@<TRIPOS>MOLECULE
3R540
247   249    1
SMALL
USER_CHARGES


@<TRIPOS>ATOM
      1 CA          4.4491  -12.6349  -48.4393 C.3       0 UNK        -0.1800 
      2 C           2.9756  -12.6650  -48.0606 C.2       0 UNK         0.5000 
      3 O           2.3066  -11.6335  -48.1298 O.2       0 UNK        -0.5000 
      4 N           2.4779  -13.8402  -47.6507 N.am      1 UNK        -0.5000 
      5 CA          1.1020  -14.1504  -47.2282 C.3       1 UNK         0.1400 
      6 C6          0.0169  -13.8653  -48.3028 C.3       23 UNK        -0.0398 
      7 S7          0.2949  -14.8237  -49.8279 S.3       23 UNK        -0.2404 
      8 C8         -0.9631  -16.1238  -49.6543 C.3       23 UNK        -0.0205 
      9 C9         -0.6821  -17.2719  -50.6072 C.ar      23 UNK        -0.0193 
     10 C10        -1.3064  -17.3327  -51.8572 C.ar      23 UNK        -0.1150 
     11 C11        -1.0383  -18.3893  -52.7344 C.ar      23 UNK        -0.0193 
     12 C12        -0.1339  -19.3834  -52.3484 C.ar      23 UNK        -0.1150 
     13 C13         0.5008  -19.3287  -51.1044 C.ar      23 UNK        -0.0193 
     14 C14         0.2188  -18.2728  -50.2356 C.ar      23 UNK        -0.1150 
     15 C15         1.5024  -20.4011  -50.7075 C.3       23 UNK        -0.0205 
     16 S16         0.6850  -21.8545  -49.9853 S.3       23 UNK        -0.2404 
     17 C17         0.1605  -21.2253  -48.3581 C.3       23 UNK        -0.0398 
     18 CA         -0.0225  -22.3818  -47.3455 C.3       11 UNK         0.1400 
     19 N           0.4407  -22.0259  -46.0029 N.am      11 UNK        -0.5000 
     20 C           0.7121  -22.9296  -45.0513 C.2       10 UNK         0.5000 
     21 O           0.6100  -24.1454  -45.2180 O.2       10 UNK        -0.5000 
     22 CA          1.1240  -22.3841  -43.6736 C.3       10 UNK         0.1400 
     23 CB          2.6021  -21.9667  -43.6751 C.3       10 UNK        -0.1800 
     24 N           0.2936  -21.2582  -43.2456 N.am      10 UNK        -0.5000 
     25 C          -1.0232  -21.3354  -43.0084 C.2       9 UNK         0.5000 
     26 O          -1.6701  -22.3796  -43.0902 O.2       9 UNK        -0.5000 
     27 CA         -1.7503  -20.0213  -42.6696 C.3       9 UNK         0.1400 
     28 CB         -1.5549  -19.6576  -41.1907 C.3       9 UNK        -0.1800 
     29 N          -1.3402  -18.8984  -43.5167 N.am      9 UNK        -0.5000 
     30 C          -1.4882  -18.8589  -44.8495 C.2       8 UNK         0.5000 
     31 O          -1.9831  -19.7690  -45.5114 O.2       8 UNK        -0.5000 
     32 CA         -0.9505  -17.6174  -45.5788 C.3       8 UNK         0.1400 
     33 CB         -1.9046  -16.4254  -45.4147 C.3       8 UNK        -0.1800 
     34 N           0.3933  -17.2536  -45.1334 N.am      8 UNK        -0.5000 
     35 C           1.4775  -18.0225  -45.3152 C.2       7 UNK         0.5000 
     36 O           1.4677  -19.0841  -45.9392 O.2       7 UNK        -0.5000 
     37 CA          2.7749  -17.5576  -44.6301 C.3       7 UNK         0.1400 
     38 CB          3.4908  -16.4705  -45.4436 C.3       7 UNK        -0.1800 
     39 N           2.5352  -17.0710  -43.2728 N.am      7 UNK        -0.5000 
     40 C           2.1099  -17.8430  -42.2642 C.2       6 UNK         0.5000 
     41 O           1.9068  -19.0521  -42.3620 O.2       6 UNK        -0.5000 
     42 CA          1.8280  -17.1378  -40.9335 C.3       6 UNK         0.1400 
     43 CB          3.1147  -16.9941  -40.1076 C.3       6 UNK        -0.1800 
     44 N           1.2235  -15.8221  -41.1190 N.am      6 UNK        -0.5000 
     45 C          -0.0452  -15.6011  -41.4911 C.2       5 UNK         0.5000 
     46 O          -0.7912  -16.4999  -41.8822 O.2       5 UNK        -0.5000 
     47 CA         -0.5778  -14.1480  -41.4182 C.3       5 UNK         0.1400 
     48 CB         -1.9646  -14.0807  -40.7496 C.3       5 UNK        -0.1800 
     49 N           0.3474  -13.1912  -40.7933 N.am      5 UNK        -0.5000 
     50 C           0.8731  -13.2122  -39.5569 C.2       4 UNK         0.5000 
     51 O           0.4773  -13.9549  -38.6579 O.2       4 UNK        -0.5000 
     52 CA          2.0976  -12.2957  -39.3113 C.3       4 UNK         0.1400 
     53 CB          3.1399  -12.9580  -38.3867 C.3       4 UNK        -0.1800 
     54 N           2.7425  -11.8223  -40.5474 N.am      4 UNK        -0.5000 
     55 C           3.2676  -12.5589  -41.5401 C.2       3 UNK         0.5000 
     56 O           3.3591  -13.7878  -41.5137 O.2       3 UNK        -0.5000 
     57 CA          3.6445  -11.7890  -42.8229 C.3       3 UNK         0.1400 
     58 CB          4.8641  -12.4156  -43.5205 C.3       3 UNK        -0.1800 
     59 N           2.5380  -11.7356  -43.7857 N.am      3 UNK        -0.5000 
     60 C           1.3050  -11.2475  -43.5799 C.2       2 UNK         0.5000 
     61 O           0.9338  -10.7506  -42.5173 O.2       2 UNK        -0.5000 
     62 CA          0.2987  -11.3179  -44.7429 C.3       2 UNK         0.1400 
     63 CB         -0.0010   -9.9099  -45.2803 C.3       2 UNK        -0.1800 
     64 N           0.7244  -12.1582  -45.8597 N.am      2 UNK        -0.5000 
     65 C           0.7405  -13.4947  -45.8797 C.2       1 UNK         0.5000 
     66 O           0.4996  -14.2002  -44.8986 O.2       1 UNK        -0.5000 
     67 C          -1.4654  -22.9334  -47.3377 C.2       11 UNK         0.5000 
     68 O          -1.7809  -23.8218  -48.1292 O.2       11 UNK        -0.5000 
     69 N          -2.3122  -22.4324  -46.4264 N.am      12 UNK        -0.5000 
     70 CA         -3.6742  -22.9183  -46.2022 C.3       12 UNK         0.1400 
     71 CB         -4.4547  -21.9204  -45.3353 C.3       12 UNK        -0.1800 
     72 C          -3.6931  -24.3247  -45.5830 C.2       12 UNK         0.5000 
     73 O          -4.4999  -25.1532  -46.0028 O.2       12 UNK        -0.5000 
     74 N          -2.7687  -24.5957  -44.6501 N.am      13 UNK        -0.5000 
     75 CA         -2.5352  -25.9232  -44.0739 C.3       13 UNK         0.1400 
     76 CB         -1.5618  -25.8078  -42.8915 C.3       13 UNK        -0.1800 
     77 C          -2.0237  -26.9410  -45.1140 C.2       13 UNK         0.5000 
     78 O          -2.3918  -28.1141  -45.0494 O.2       13 UNK        -0.5000 
     79 N          -1.2267  -26.4635  -46.0802 N.am      14 UNK        -0.5000 
     80 CA         -0.7767  -27.2195  -47.2523 C.3       14 UNK         0.1400 
     81 CB          0.4835  -26.5466  -47.8205 C.3       14 UNK        -0.1800 
     82 C          -1.8576  -27.3593  -48.3486 C.2       14 UNK         0.5000 
     83 O          -1.6460  -28.1123  -49.2999 O.2       14 UNK        -0.5000 
     84 N          -2.9792  -26.6356  -48.2046 N.am      15 UNK        -0.5000 
     85 CA         -4.1224  -26.5428  -49.1185 C.3       15 UNK         0.1400 
     86 CB         -4.8701  -27.8902  -49.1970 C.3       15 UNK        -0.1800 
     87 C          -3.7456  -25.9709  -50.5022 C.2       15 UNK         0.5000 
     88 O          -4.2534  -26.4397  -51.5229 O.2       15 UNK        -0.5000 
     89 N          -2.8565  -24.9699  -50.5096 N.am      16 UNK        -0.5000 
     90 CA         -2.2794  -24.3674  -51.7127 C.3       16 UNK         0.1400 
     91 CB         -0.8399  -24.8901  -51.8721 C.3       16 UNK        -0.1800 
     92 C          -2.3369  -22.8271  -51.6900 C.2       16 UNK         0.5000 
     93 O          -1.6451  -22.1946  -52.4867 O.2       16 UNK        -0.5000 
     94 N          -3.1431  -22.2509  -50.7857 N.am      17 UNK        -0.5000 
     95 CA         -3.3099  -20.8077  -50.5887 C.3       17 UNK         0.1400 
     96 CB         -3.9419  -20.5704  -49.2038 C.3       17 UNK        -0.1800 
     97 C          -4.1110  -20.1076  -51.7107 C.2       17 UNK         0.5000 
     98 O          -4.3743  -20.6888  -52.7635 O.2       17 UNK        -0.5000 
     99 N          -4.5097  -18.8548  -51.4475 N.am      18 UNK        -0.5000 
    100 CA        -5.1901  -17.9163  -52.3493 C.3       18 UNK         0.1400 
    101 CB        -5.3337  -16.5701  -51.6206 C.3       18 UNK        -0.1800 
    102 C         -6.5470  -18.3674  -52.9361 C.2       18 UNK         0.5000 
    103 O         -7.1002  -17.6548  -53.7755 O.2       18 UNK        -0.5000 
    104 N         -7.0540  -19.5385  -52.5316 N.am      19 UNK        -0.5000 
    105 CA        -8.2268  -20.2197  -53.0821 C.3       19 UNK         0.1400 
    106 CB        -8.6911  -21.2825  -52.0700 C.3       19 UNK        -0.1800 
    107 C         -7.9531  -20.8124  -54.4856 C.2       19 UNK         0.5000 
    108 O         -8.0615  -22.0230  -54.6842 O.2       19 UNK        -0.5000 
    109 N         -7.5851  -19.9337  -55.4274 N.am      20 UNK        -0.5000 
    110 CA        -7.3454  -20.1471  -56.8600 C.3       20 UNK         0.1400 
    111 CB        -8.6141  -20.6854  -57.5524 C.3       20 UNK        -0.1800 
    112 C         -6.1031  -20.9877  -57.2271 C.2       20 UNK         0.5000 
    113 O         -5.8160  -21.1195  -58.4182 O.2       20 UNK        -0.5000 
    114 N         -5.3568  -21.5129  -56.2441 N.am      21 UNK        -0.5000 
    115 CA        -4.1941  -22.3831  -56.4692 C.3       21 UNK         0.1400 
    116 CB        -3.7719  -23.0294  -55.1450 C.3       21 UNK        -0.1800 
    117 C         -2.9966  -21.6721  -57.1337 C.2       21 UNK         0.5000 
    118 O         -2.2049  -22.3298  -57.8103 O.2       21 UNK        -0.5000 
    119 N         -2.9085  -20.3464  -56.9642 N.am      22 UNK        -0.5000 
    120 CA        -1.9786  -19.4678  -57.6940 C.3       22 UNK         0.1400 
    121 C         -2.4261  -19.1454  -59.1544 C.2       22 UNK         0.5000 
    122 N         -3.5936  -19.5726  -59.6233 N.am      22 UNK        -0.7600 
    123 O         -1.6864  -18.4988  -59.8912 O.2       22 UNK        -0.5000 
    124 C124       -1.6762  -18.1685  -56.8997 C.3       23 UNK        -0.0398 
    125 S125       -0.5688  -18.4433  -55.4742 S.3       23 UNK        -0.2404 
    126 C126       -1.7419  -18.4694  -54.0843 C.3       23 UNK        -0.0205 
    127 H127        4.9184  -13.6124  -48.3252 H         1 UNK         0.0600 
    128 H128        4.9837  -11.9253  -47.8078 H         1 UNK         0.0600 
    129 H129        4.5624  -12.3223  -49.4773 H         1 UNK         0.0600 
    130 H130        3.1053  -14.6309  -47.6316 H         1 UNK         0.3000 
    131 H131        1.0910  -15.2266  -47.0506 H         1 UNK         0.0600 
    132 H132       -0.9787  -14.0921  -47.9178 H         1 UNK         0.0800 
    133 H133       -0.0061  -12.8081  -48.5697 H         1 UNK         0.0800 
    134 H134       -1.9523  -15.7024  -49.8400 H         1 UNK         0.0800 
    135 H135       -0.9700  -16.4952  -48.6291 H         1 UNK         0.0800 
    136 H136       -2.0001  -16.5558  -52.1458 H         1 UNK         0.1150 
    137 H137        0.0729  -20.2059  -53.0189 H         1 UNK         0.1150 
    138 H138        0.7093  -18.2226  -49.2733 H         1 UNK         0.1150 
    139 H139        2.2393  -20.0029  -50.0083 H         1 UNK         0.0800 
    140 H140        2.0619  -20.7183  -51.5887 H         1 UNK         0.0800 
    141 H141       -0.7398  -20.6169  -48.4625 H         1 UNK         0.0800 
    142 H142        0.9409  -20.5467  -48.0148 H         1 UNK         0.0800 
    143 H143        0.6169  -23.2086  -47.6629 H         1 UNK         0.0600 
    144 H144        0.5615  -21.0395  -45.8013 H         1 UNK         0.3000 
    145 H145        0.9978  -23.1889  -42.9465 H         1 UNK         0.0600 
    146 H146        3.2416  -22.7900  -43.9956 H         1 UNK         0.0600 
    147 H147        2.9278  -21.6714  -42.6777 H         1 UNK         0.0600 
    148 H148        2.7827  -21.1269  -44.3473 H         1 UNK         0.0600 
    149 H149        0.7695  -20.3706  -43.1037 H         1 UNK         0.3000 
    150 H150       -2.8168  -20.1833  -42.8369 H         1 UNK         0.0600 
    151 H151       -0.5088  -19.4568  -40.9608 H         1 UNK         0.0600 
    152 H152       -1.8837  -20.4704  -40.5420 H         1 UNK         0.0600 
    153 H153       -2.1331  -18.7733  -40.9220 H         1 UNK         0.0600 
    154 H154       -0.9568  -18.0880  -43.0390 H         1 UNK         0.3000 
    155 H155       -0.8965  -17.8634  -46.6412 H         1 UNK         0.0600 
    156 H156       -1.6057  -15.5915  -46.0476 H         1 UNK         0.0600 
    157 H157       -1.9349  -16.0694  -44.3843 H         1 UNK         0.0600 
    158 H158       -2.9221  -16.6965  -45.6995 H         1 UNK         0.0600 
    159 H159        0.4820  -16.3891  -44.6136 H         1 UNK         0.3000 
    160 H160        3.4373  -18.4239  -44.5690 H         1 UNK         0.0600 
    161 H161        2.9618  -15.5203  -45.3939 H         1 UNK         0.0600 
    162 H162        3.5797  -16.7551  -46.4928 H         1 UNK         0.0600 
    163 H163        4.4997  -16.3035  -45.0656 H         1 UNK         0.0600 
    164 H164        2.6649  -16.0839  -43.1008 H         1 UNK         0.3000 
    165 H165        1.1297  -17.7563  -40.3664 H         1 UNK         0.0600 
    166 H166        3.5709  -17.9676  -39.9234 H         1 UNK         0.0600 
    167 H167        3.8547  -16.3750  -40.6162 H         1 UNK         0.0600 
    168 H168        2.9104  -16.5412  -39.1371 H         1 UNK         0.0600 
    169 H169        1.8141  -15.0250  -40.9116 H         1 UNK         0.3000 
    170 H170       -0.6943  -13.8211  -42.4521 H         1 UNK         0.0600 
    171 H171       -2.3404  -13.0579  -40.7236 H         1 UNK         0.0600 
    172 H172       -1.9402  -14.4567  -39.7266 H         1 UNK         0.0600 
    173 H173       -2.6930  -14.6787  -41.2985 H         1 UNK         0.0600 
    174 H174        0.7199  -12.4869  -41.4204 H         1 UNK         0.3000 
    175 H175        1.7156  -11.4087  -38.8042 H         1 UNK         0.0600 
    176 H176        3.5136  -13.8943  -38.8024 H         1 UNK         0.0600 
    177 H177        2.7120  -13.1831  -37.4091 H         1 UNK         0.0600 
    178 H178        3.9935  -12.3009  -38.2206 H         1 UNK         0.0600 
    179 H179        2.6417  -10.8303  -40.7183 H         1 UNK         0.3000 
    180 H180        3.9028  -10.7650  -42.5464 H         1 UNK         0.0600 
    181 H181        4.6500  -13.4218  -43.8841 H         1 UNK         0.0600 
    182 H182        5.7109  -12.4871  -42.8367 H         1 UNK         0.0600 
    183 H183        5.1844  -11.8141  -44.3715 H         1 UNK         0.0600 
    184 H184        2.7250  -12.1338  -44.6932 H         1 UNK         0.3000 
    185 H185       -0.6273  -11.7333  -44.3398 H         1 UNK         0.0600 
    186 H186       -0.3599   -9.2531  -44.4867 H         1 UNK         0.0600 
    187 H187        0.8876   -9.4484  -45.7130 H         1 UNK         0.0600 
    188 H188       -0.7729   -9.9377  -46.0496 H         1 UNK         0.0600 
    189 H189        1.0430  -11.6781  -46.6976 H         1 UNK         0.3000 
    190 H190       -2.0174  -21.6382  -45.8646 H         1 UNK         0.3000 
    191 H191       -4.1739  -22.9810  -47.1710 H         1 UNK         0.0600 
    192 H192       -4.5038  -20.9409  -45.8113 H         1 UNK         0.0600 
    193 H193       -5.4800  -22.2577  -45.1794 H         1 UNK         0.0600 
    194 H194       -3.9981  -21.7935  -44.3542 H         1 UNK         0.0600 
    195 H195       -2.1835  -23.8392  -44.3073 H         1 UNK         0.3000 
    196 H196       -3.4890  -26.2930  -43.6920 H         1 UNK         0.0600 
    197 H197       -1.4017  -26.7790  -42.4217 H         1 UNK         0.0600 
    198 H198       -1.9501  -25.1357  -42.1260 H         1 UNK         0.0600 
    199 H199       -0.5884  -25.4301  -43.2039 H         1 UNK         0.0600 
    200 H200       -0.9180  -25.5006  -46.0167 H         1 UNK         0.3000 
    201 H201       -0.5060  -28.2272  -46.9310 H         1 UNK         0.0600 
    202 H202        0.9076  -27.1361  -48.6341 H         1 UNK         0.0600 
    203 H203        1.2555  -26.4420  -47.0579 H         1 UNK         0.0600 
    204 H204        0.2671  -25.5551  -48.2173 H         1 UNK         0.0600 
    205 H205       -3.0475  -26.0481  -47.3841 H         1 UNK         0.3000 
    206 H206       -4.8056  -25.8181  -48.6742 H         1 UNK         0.0600 
    207 H207       -5.1341  -28.2513  -48.2029 H         1 UNK         0.0600 
    208 H208       -5.7978  -27.7903  -49.7614 H         1 UNK         0.0600 
    209 H209       -4.2715  -28.6593  -49.6858 H         1 UNK         0.0600 
    210 H210       -2.4752  -24.6398  -49.6234 H         1 UNK         0.3000 
    211 H211       -2.8465  -24.6670  -52.5959 H         1 UNK         0.0600 
    212 H212       -0.8240  -25.9773  -51.9514 H         1 UNK         0.0600 
    213 H213       -0.3685  -24.4931  -52.7718 H         1 UNK         0.0600 
    214 H214       -0.2187  -24.6098  -51.0208 H         1 UNK         0.0600 
    215 H215       -3.6954  -22.8554  -50.1978 H         1 UNK         0.3000 
    216 H216       -2.3161  -20.3563  -50.5854 H         1 UNK         0.0600 
    217 H217       -4.9433  -20.9974  -49.1366 H         1 UNK         0.0600 
    218 H218       -4.0137  -19.5110  -48.9574 H         1 UNK         0.0600 
    219 H219       -3.3345  -21.0154  -48.4221 H         1 UNK         0.0600 
    220 H220       -4.2764  -18.4769  -50.5415 H         1 UNK         0.3000 
    221 H221       -4.5330  -17.7643  -53.2054 H         1 UNK         0.0600 
    222 H222       -5.9685  -16.6592  -50.7382 H         1 UNK         0.0600 
    223 H223       -4.3650  -16.1865  -51.3003 H         1 UNK         0.0600 
    224 H224       -5.7781  -15.8140  -52.2693 H         1 UNK         0.0600 
    225 H225       -6.4885  -20.0822  -51.8965 H         1 UNK         0.3000 
    226 H226       -9.0319  -19.4903  -53.1916 H         1 UNK         0.0600 
    227 H227       -8.9329  -20.8313  -51.1075 H         1 UNK         0.0600 
    228 H228       -9.5887  -21.7929  -52.4217 H         1 UNK         0.0600 
    229 H229       -7.9248  -22.0405  -51.9021 H         1 UNK         0.0600 
    230 H230       -7.4778  -18.9723  -55.1134 H         1 UNK         0.3000 
    231 H231       -7.1530  -19.1541  -57.2686 H         1 UNK         0.0600 
    232 H232       -8.8488  -21.7023  -57.2370 H         1 UNK         0.0600 
    233 H233       -8.4924  -20.7028  -58.6361 H         1 UNK         0.0600 
    234 H234       -9.4787  -20.0580  -57.3359 H         1 UNK         0.0600 
    235 H235       -5.6407  -21.3674  -55.2852 H         1 UNK         0.3000 
    236 H236       -4.5104  -23.1823  -57.1428 H         1 UNK         0.0600 
    237 H237       -3.3638  -22.2850  -54.4651 H         1 UNK         0.0600 
    238 H238       -4.6097  -23.5207  -54.6500 H         1 UNK         0.0600 
    239 H239       -2.9976  -23.7805  -55.3054 H         1 UNK         0.0600 
    240 H240       -3.6078  -19.8934  -56.3963 H         1 UNK         0.3000 
    241 H241       -1.0344  -20.0042  -57.8071 H         1 UNK         0.0600 
    242 H242       -4.2264  -20.1345  -59.0644 H         1 UNK         0.3800 
    243 H243       -3.8460  -19.3512  -60.5735 H         1 UNK         0.3800 
    244 H244       -1.1669  -17.4382  -57.5310 H         1 UNK         0.0800 
    245 H245       -2.6003  -17.6848  -56.5804 H         1 UNK         0.0800 
    246 H246       -2.4366  -17.6369  -54.1961 H         1 UNK         0.0800 
    247 H247       -2.3307  -19.3864  -54.1301 H         1 UNK         0.0800 
@<TRIPOS>BOND
     1    1    2 1    
     2    1  127 1    
     3    1  128 1    
     4    1  129 1    
     5    2    3 2    
     6    2    4 am   BACKBONE|DICT|INTERRES
     7    4    5 1    
     8    4  130 1    
     9    5    6 1    
    10    5   65 1    
    11    5  131 1    
    12    6    7 1    
    13    6  132 1    
    14    6  133 1    
    15    7    8 1    
    16    8    9 1    
    17    8  134 1    
    18    8  135 1    
    19    9   10 ar   
    20    9   14 ar   
    21   10   11 ar   
    22   10  136 1    
    23   11   12 ar   
    24   11  126 1    
    25   12   13 ar   
    26   12  137 1    
    27   13   14 ar   
    28   13   15 1    
    29   14  138 1    
    30   15   16 1    
    31   15  139 1    
    32   15  140 1    
    33   16   17 1    
    34   17   18 1    
    35   17  141 1    
    36   17  142 1    
    37   18   19 1    
    38   18   67 1    
    39   18  143 1    
    40   19   20 am   BACKBONE|DICT|INTERRES
    41   19  144 1    
    42   20   21 2    
    43   20   22 1    
    44   22   23 1    
    45   22   24 1    
    46   22  145 1    
    47   23  146 1    
    48   23  147 1    
    49   23  148 1    
    50   24   25 am   BACKBONE|DICT|INTERRES
    51   24  149 1    
    52   25   26 2    
    53   25   27 1    
    54   27   28 1    
    55   27   29 1    
    56   27  150 1    
    57   28  151 1    
    58   28  152 1    
    59   28  153 1    
    60   29   30 am   BACKBONE|DICT|INTERRES
    61   29  154 1    
    62   30   31 2    
    63   30   32 1    
    64   32   33 1    
    65   32   34 1    
    66   32  155 1    
    67   33  156 1    
    68   33  157 1    
    69   33  158 1    
    70   34   35 am   BACKBONE|DICT|INTERRES
    71   34  159 1    
    72   35   36 2    
    73   35   37 1    
    74   37   38 1    
    75   37   39 1    
    76   37  160 1    
    77   38  161 1    
    78   38  162 1    
    79   38  163 1    
    80   39   40 am   BACKBONE|DICT|INTERRES
    81   39  164 1    
    82   40   41 2    
    83   40   42 1    
    84   42   43 1    
    85   42   44 1    
    86   42  165 1    
    87   43  166 1    
    88   43  167 1    
    89   43  168 1    
    90   44   45 am   BACKBONE|DICT|INTERRES
    91   44  169 1    
    92   45   46 2    
    93   45   47 1    
    94   47   48 1    
    95   47   49 1    
    96   47  170 1    
    97   48  171 1    
    98   48  172 1    
    99   48  173 1    
   100   49   50 am   BACKBONE|DICT|INTERRES
   101   49  174 1    
   102   50   51 2    
   103   50   52 1    
   104   52   53 1    
   105   52   54 1    
   106   52  175 1    
   107   53  176 1    
   108   53  177 1    
   109   53  178 1    
   110   54   55 am   BACKBONE|DICT|INTERRES
   111   54  179 1    
   112   55   56 2    
   113   55   57 1    
   114   57   58 1    
   115   57   59 1    
   116   57  180 1    
   117   58  181 1    
   118   58  182 1    
   119   58  183 1    
   120   59   60 am   BACKBONE|DICT|INTERRES
   121   59  184 1    
   122   60   61 2    
   123   60   62 1    
   124   62   63 1    
   125   62   64 1    
   126   62  185 1    
   127   63  186 1    
   128   63  187 1    
   129   63  188 1    
   130   64   65 am   BACKBONE|DICT|INTERRES
   131   64  189 1    
   132   65   66 2    
   133   67   68 2    
   134   67   69 am   BACKBONE|DICT|INTERRES
   135   69   70 1    
   136   69  190 1    
   137   70   71 1    
   138   70   72 1    
   139   70  191 1    
   140   71  192 1    
   141   71  193 1    
   142   71  194 1    
   143   72   73 2    
   144   72   74 am   BACKBONE|DICT|INTERRES
   145   74   75 1    
   146   74  195 1    
   147   75   76 1    
   148   75   77 1    
   149   75  196 1    
   150   76  197 1    
   151   76  198 1    
   152   76  199 1    
   153   77   78 2    
   154   77   79 am   BACKBONE|DICT|INTERRES
   155   79   80 1    
   156   79  200 1    
   157   80   81 1    
   158   80   82 1    
   159   80  201 1    
   160   81  202 1    
   161   81  203 1    
   162   81  204 1    
   163   82   83 2    
   164   82   84 am   BACKBONE|DICT|INTERRES
   165   84   85 1    
   166   84  205 1    
   167   85   86 1    
   168   85   87 1    
   169   85  206 1    
   170   86  207 1    
   171   86  208 1    
   172   86  209 1    
   173   87   88 2    
   174   87   89 am   BACKBONE|DICT|INTERRES
   175   89   90 1    
   176   89  210 1    
   177   90   91 1    
   178   90   92 1    
   179   90  211 1    
   180   91  212 1    
   181   91  213 1    
   182   91  214 1    
   183   92   93 2    
   184   92   94 am   BACKBONE|DICT|INTERRES
   185   94   95 1    
   186   94  215 1    
   187   95   96 1    
   188   95   97 1    
   189   95  216 1    
   190   96  217 1    
   191   96  218 1    
   192   96  219 1    
   193   97   98 2    
   194   97   99 am   BACKBONE|DICT|INTERRES
   195   99  100 1    
   196   99  220 1    
   197  100  101 1    
   198  100  102 1    
   199  100  221 1    
   200  101  222 1    
   201  101  223 1    
   202  101  224 1    
   203  102  103 2    
   204  102  104 am   BACKBONE|DICT|INTERRES
   205  104  105 1    
   206  104  225 1    
   207  105  106 1    
   208  105  107 1    
   209  105  226 1    
   210  106  227 1    
   211  106  228 1    
   212  106  229 1    
   213  107  108 2    
   214  107  109 am   BACKBONE|DICT|INTERRES
   215  109  110 1    
   216  109  230 1    
   217  110  111 1    
   218  110  112 1    
   219  110  231 1    
   220  111  232 1    
   221  111  233 1    
   222  111  234 1    
   223  112  113 2    
   224  112  114 am   BACKBONE|DICT|INTERRES
   225  114  115 1    
   226  114  235 1    
   227  115  116 1    
   228  115  117 1    
   229  115  236 1    
   230  116  237 1    
   231  116  238 1    
   232  116  239 1    
   233  117  118 2    
   234  117  119 am   BACKBONE|DICT|INTERRES
   235  119  120 1    
   236  119  240 1    
   237  120  121 1    
   238  120  124 1    
   239  120  241 1    
   240  121  122 am   BACKBONE|DICT|INTERRES
   241  121  123 2    
   242  122  242 1    
   243  122  243 1    
   244  124  125 1    
   245  124  244 1    
   246  124  245 1    
   247  125  126 1    
   248  126  246 1    
   249  126  247 1    
@<TRIPOS>SUBSTRUCTURE
     1 UNK         1 GROUP             0       ****    0 ROOT    
