@<TRIPOS>MOLECULE
3R540
247   249    1
SMALL
USER_CHARGES


@<TRIPOS>ATOM
      1 CA          5.7764  -17.3950  -45.8923 C.3       0 UNK        -0.1800 
      2 C           5.6631  -17.4086  -47.4161 C.2       0 UNK         0.5000 
      3 O           6.3108  -18.2312  -48.0604 O.2       0 UNK        -0.5000 
      4 N           4.8514  -16.5418  -48.0367 N.am      1 UNK        -0.5000 
      5 CA          4.0850  -15.4498  -47.4256 C.3       1 UNK         0.1400 
      6 C6          2.9943  -14.9063  -48.3827 C.3       23 UNK        -0.0398 
      7 S7          1.7982  -16.1874  -48.8918 S.3       23 UNK        -0.2404 
      8 C8          0.5298  -15.1621  -49.6899 C.3       23 UNK        -0.0205 
      9 C9         -0.5968  -16.0076  -50.2657 C.ar      23 UNK        -0.0193 
     10 C10        -0.4662  -16.5844  -51.5327 C.ar      23 UNK        -0.1150 
     11 C11        -1.5158  -17.3197  -52.0919 C.ar      23 UNK        -0.0193 
     12 C12        -2.7057  -17.4738  -51.3727 C.ar      23 UNK        -0.1150 
     13 C13        -2.8479  -16.9061  -50.1027 C.ar      23 UNK        -0.0193 
     14 C14        -1.7862  -16.1806  -49.5517 C.ar      23 UNK        -0.1150 
     15 C15        -4.1672  -17.0277  -49.3503 C.3       23 UNK        -0.0205 
     16 S16        -4.4612  -18.6975  -48.6856 S.3       23 UNK        -0.2404 
     17 C17        -3.1125  -18.8727  -47.4704 C.3       23 UNK        -0.0398 
     18 CA         -2.1449  -20.0272  -47.8246 C.3       11 UNK         0.1400 
     19 N          -0.8416  -19.8818  -47.1745 N.am      11 UNK        -0.5000 
     20 C           0.2246  -20.6581  -47.4134 C.2       10 UNK         0.5000 
     21 O           0.2407  -21.5530  -48.2567 O.2       10 UNK        -0.5000 
     22 CA          1.4620  -20.4498  -46.5238 C.3       10 UNK         0.1400 
     23 CB          2.3216  -19.2869  -47.0332 C.3       10 UNK        -0.1800 
     24 N           1.1173  -20.2289  -45.1203 N.am      10 UNK        -0.5000 
     25 C           0.5103  -21.1296  -44.3357 C.2       9 UNK         0.5000 
     26 O           0.2136  -22.2660  -44.7042 O.2       9 UNK        -0.5000 
     27 CA          0.1278  -20.6678  -42.9178 C.3       9 UNK         0.1400 
     28 CB          1.3509  -20.6727  -41.9889 C.3       9 UNK        -0.1800 
     29 N          -0.4962  -19.3438  -42.9058 N.am      9 UNK        -0.5000 
     30 C          -1.6628  -19.0510  -43.4992 C.2       8 UNK         0.5000 
     31 O          -2.3569  -19.8774  -44.0928 O.2       8 UNK        -0.5000 
     32 CA         -2.1054  -17.5766  -43.4684 C.3       8 UNK         0.1400 
     33 CB         -2.7087  -17.2129  -42.1037 C.3       8 UNK        -0.1800 
     34 N          -1.0163  -16.6538  -43.7947 N.am      8 UNK        -0.5000 
     35 C          -0.3776  -16.6336  -44.9733 C.2       7 UNK         0.5000 
     36 O          -0.6714  -17.3604  -45.9181 O.2       7 UNK        -0.5000 
     37 CA          0.8277  -15.6929  -45.1113 C.3       7 UNK         0.1400 
     38 CB          0.3847  -14.2498  -45.3901 C.3       7 UNK        -0.1800 
     39 N           1.7024  -15.7285  -43.9432 N.am      7 UNK        -0.5000 
     40 C           2.3737  -16.8060  -43.5158 C.2       6 UNK         0.5000 
     41 O           2.3867  -17.8840  -44.1057 O.2       6 UNK        -0.5000 
     42 CA          3.1203  -16.6642  -42.1804 C.3       6 UNK         0.1400 
     43 CB          4.4748  -15.9662  -42.3790 C.3       6 UNK        -0.1800 
     44 N           2.3269  -15.9328  -41.1928 N.am      6 UNK        -0.5000 
     45 C           1.2092  -16.4025  -40.6210 C.2       5 UNK         0.5000 
     46 O           0.7430  -17.5199  -40.8458 O.2       5 UNK        -0.5000 
     47 CA          0.4730  -15.4469  -39.6639 C.3       5 UNK         0.1400 
     48 CB          1.1095  -15.4826  -38.2665 C.3       5 UNK        -0.1800 
     49 N           0.4499  -14.0663  -40.1524 N.am      5 UNK        -0.5000 
     50 C          -0.2430  -13.6609  -41.2256 C.2       4 UNK         0.5000 
     51 O          -0.9491  -14.4068  -41.9035 O.2       4 UNK        -0.5000 
     52 CA         -0.0797  -12.1857  -41.6429 C.3       4 UNK         0.1400 
     53 CB         -1.0110  -11.2854  -40.8173 C.3       4 UNK        -0.1800 
     54 N           1.2950  -11.6764  -41.5553 N.am      4 UNK        -0.5000 
     55 C           2.3538  -12.2263  -42.1640 C.2       3 UNK         0.5000 
     56 O           2.2996  -13.2873  -42.7881 O.2       3 UNK        -0.5000 
     57 CA          3.7038  -11.4947  -42.0266 C.3       3 UNK         0.1400 
     58 CB          4.2922  -11.7220  -40.6251 C.3       3 UNK        -0.1800 
     59 N           4.6732  -11.9685  -43.0182 N.am      3 UNK        -0.5000 
     60 C           4.5595  -11.8090  -44.3436 C.2       2 UNK         0.5000 
     61 O           3.7102  -11.0937  -44.8777 O.2       2 UNK        -0.5000 
     62 CA          5.5130  -12.6230  -45.2303 C.3       2 UNK         0.1400 
     63 CB          6.7450  -13.1945  -44.4934 C.3       2 UNK        -0.1800 
     64 N           4.7372  -13.7078  -45.8255 N.am      2 UNK        -0.5000 
     65 C           5.0275  -14.3106  -46.9829 C.2       1 UNK         0.5000 
     66 O           5.9880  -14.0026  -47.6926 O.2       1 UNK        -0.5000 
     67 C          -2.7771  -21.4006  -47.5220 C.2       11 UNK         0.5000 
     68 O          -3.2297  -22.0771  -48.4443 O.2       11 UNK        -0.5000 
     69 N          -2.7695  -21.8153  -46.2481 N.am      12 UNK        -0.5000 
     70 CA         -3.2607  -23.1237  -45.8137 C.3       12 UNK         0.1400 
     71 CB         -3.2402  -23.1988  -44.2799 C.3       12 UNK        -0.1800 
     72 C          -2.4781  -24.2961  -46.4372 C.2       12 UNK         0.5000 
     73 O          -3.0917  -25.2767  -46.8586 O.2       12 UNK        -0.5000 
     74 N          -1.1475  -24.1615  -46.4986 N.am      13 UNK        -0.5000 
     75 CA         -0.2351  -25.1658  -47.0360 C.3       13 UNK         0.1400 
     76 CB          1.1869  -24.8862  -46.5215 C.3       13 UNK        -0.1800 
     77 C          -0.2576  -25.2530  -48.5732 C.2       13 UNK         0.5000 
     78 O          -0.5397  -26.3225  -49.1149 O.2       13 UNK        -0.5000 
     79 N           0.0865  -24.1489  -49.2482 N.am      14 UNK        -0.5000 
     80 CA          0.3833  -24.1248  -50.6816 C.3       14 UNK         0.1400 
     81 CB          1.5098  -23.1134  -50.9472 C.3       14 UNK        -0.1800 
     82 C          -0.8394  -23.7871  -51.5448 C.2       14 UNK         0.5000 
     83 O          -0.9554  -24.3159  -52.6511 O.2       14 UNK        -0.5000 
     84 N          -1.7244  -22.9163  -51.0426 N.am      15 UNK        -0.5000 
     85 CA         -2.9147  -22.4645  -51.7670 C.3       15 UNK         0.1400 
     86 CB         -3.1562  -20.9730  -51.4874 C.3       15 UNK        -0.1800 
     87 C          -4.1657  -23.2842  -51.4168 C.2       15 UNK         0.5000 
     88 O          -5.2251  -23.0105  -51.9837 O.2       15 UNK        -0.5000 
     89 N          -4.0387  -24.2367  -50.4811 N.am      16 UNK        -0.5000 
     90 CA         -5.0987  -25.0825  -49.9244 C.3       16 UNK         0.1400 
     91 CB         -5.6124  -26.0724  -50.9908 C.3       16 UNK        -0.1800 
     92 C          -6.2252  -24.2544  -49.2699 C.2       16 UNK         0.5000 
     93 O          -7.4037  -24.5515  -49.4632 O.2       16 UNK        -0.5000 
     94 N          -5.8335  -23.1921  -48.5498 N.am      17 UNK        -0.5000 
     95 CA         -6.6925  -22.1629  -47.9512 C.3       17 UNK         0.1400 
     96 CB         -7.5858  -22.7529  -46.8407 C.3       17 UNK        -0.1800 
     97 C          -7.4745  -21.3751  -49.0237 C.2       17 UNK         0.5000 
     98 O          -8.6631  -21.0973  -48.8591 O.2       17 UNK        -0.5000 
     99 N          -6.7661  -21.0565  -50.1161 N.am      18 UNK        -0.5000 
    100 CA        -7.2053  -20.3456  -51.3201 C.3       18 UNK         0.1400 
    101 CB        -7.7593  -18.9455  -50.9853 C.3       18 UNK        -0.1800 
    102 C         -8.1485  -21.1559  -52.2347 C.2       18 UNK         0.5000 
    103 O         -8.6969  -20.5864  -53.1788 O.2       18 UNK        -0.5000 
    104 N         -8.2956  -22.4664  -51.9883 N.am      19 UNK        -0.5000 
    105 CA        -9.0573  -23.3788  -52.8447 C.3       19 UNK         0.1400 
    106 CB        -9.4027  -24.6571  -52.0677 C.3       19 UNK        -0.1800 
    107 C         -8.3069  -23.7197  -54.1460 C.2       19 UNK         0.5000 
    108 O         -8.9394  -23.8282  -55.1971 O.2       19 UNK        -0.5000 
    109 N         -6.9769  -23.8612  -54.0571 N.am      20 UNK        -0.5000 
    110 CA        -6.0815  -24.0511  -55.2008 C.3       20 UNK         0.1400 
    111 CB        -4.9540  -25.0195  -54.8092 C.3       20 UNK        -0.1800 
    112 C         -5.4975  -22.7123  -55.6885 C.2       20 UNK         0.5000 
    113 O         -5.0503  -22.6314  -56.8332 O.2       20 UNK        -0.5000 
    114 N         -5.5004  -21.6931  -54.8126 N.am      21 UNK        -0.5000 
    115 CA        -5.1180  -20.2957  -55.0659 C.3       21 UNK         0.1400 
    116 CB        -6.1600  -19.6202  -55.9800 C.3       21 UNK        -0.1800 
    117 C         -3.6714  -20.1242  -55.5813 C.2       21 UNK         0.5000 
    118 O         -3.3934  -19.2026  -56.3497 O.2       21 UNK        -0.5000 
    119 N         -2.7851  -21.0296  -55.1470 N.am      22 UNK        -0.5000 
    120 CA        -1.3803  -21.1665  -55.5717 C.3       22 UNK         0.1400 
    121 C         -1.2021  -21.6598  -57.0426 C.2       22 UNK         0.5000 
    122 N         -2.2323  -22.1678  -57.7110 N.am      22 UNK        -0.7600 
    123 O         -0.1007  -21.6154  -57.5842 O.2       22 UNK        -0.5000 
    124 C124       -0.5004  -19.9221  -55.2505 C.3       23 UNK        -0.0398 
    125 S125       -0.4772  -19.4885  -53.4763 S.3       23 UNK        -0.2404 
    126 C126       -1.3769  -17.9068  -53.4890 C.3       23 UNK        -0.0205 
    127 H127        6.2869  -16.4968  -45.5457 H         1 UNK         0.0600 
    128 H128        6.3487  -18.2557  -45.5460 H         1 UNK         0.0600 
    129 H129        4.7944  -17.4489  -45.4248 H         1 UNK         0.0600 
    130 H130        4.7965  -16.5796  -49.0437 H         1 UNK         0.3000 
    131 H131        3.5882  -15.8441  -46.5392 H         1 UNK         0.0600 
    132 H132        2.4409  -14.0965  -47.9034 H         1 UNK         0.0800 
    133 H133        3.4459  -14.4814  -49.2813 H         1 UNK         0.0800 
    134 H134        0.9886  -14.5723  -50.4850 H         1 UNK         0.0800 
    135 H135        0.1334  -14.4488  -48.9657 H         1 UNK         0.0800 
    136 H136        0.4510  -16.4522  -52.0893 H         1 UNK         0.1150 
    137 H137       -3.5287  -18.0255  -51.8041 H         1 UNK         0.1150 
    138 H138       -1.8913  -15.7318  -48.5738 H         1 UNK         0.1150 
    139 H139       -4.2152  -16.3052  -48.5340 H         1 UNK         0.0800 
    140 H140       -4.9851  -16.7733  -50.0257 H         1 UNK         0.0800 
    141 H141       -3.5387  -18.9964  -46.4734 H         1 UNK         0.0800 
    142 H142       -2.5690  -17.9308  -47.4401 H         1 UNK         0.0800 
    143 H143       -1.9494  -19.9842  -48.8980 H         1 UNK         0.0600 
    144 H144       -0.7517  -19.1160  -46.5107 H         1 UNK         0.3000 
    145 H145        2.0622  -21.3602  -46.5797 H         1 UNK         0.0600 
    146 H146        3.2661  -19.2330  -46.4927 H         1 UNK         0.0600 
    147 H147        2.5564  -19.3995  -48.0924 H         1 UNK         0.0600 
    148 H148        1.8109  -18.3333  -46.9061 H         1 UNK         0.0600 
    149 H149        1.3730  -19.3255  -44.7287 H         1 UNK         0.3000 
    150 H150       -0.5992  -21.3808  -42.5235 H         1 UNK         0.0600 
    151 H151        1.8207  -21.6567  -41.9670 H         1 UNK         0.0600 
    152 H152        1.0687  -20.4233  -40.9659 H         1 UNK         0.0600 
    153 H153        2.1057  -19.9548  -42.3106 H         1 UNK         0.0600 
    154 H154       -0.0002  -18.6107  -42.4094 H         1 UNK         0.3000 
    155 H155       -2.8831  -17.4508  -44.2247 H         1 UNK         0.0600 
    156 H156       -1.9682  -17.2712  -41.3058 H         1 UNK         0.0600 
    157 H157       -3.5256  -17.8877  -41.8450 H         1 UNK         0.0600 
    158 H158       -3.1132  -16.2007  -42.1101 H         1 UNK         0.0600 
    159 H159       -0.7535  -15.9853  -43.0769 H         1 UNK         0.3000 
    160 H160        1.4037  -16.0408  -45.9673 H         1 UNK         0.0600 
    161 H161       -0.1956  -13.8408  -44.5629 H         1 UNK         0.0600 
    162 H162       -0.2359  -14.1995  -46.2856 H         1 UNK         0.0600 
    163 H163        1.2426  -13.5964  -45.5498 H         1 UNK         0.0600 
    164 H164        1.7822  -14.8653  -43.4071 H         1 UNK         0.3000 
    165 H165        3.3078  -17.6675  -41.7921 H         1 UNK         0.0600 
    166 H166        5.0161  -15.8806  -41.4368 H         1 UNK         0.0600 
    167 H167        5.1069  -16.5311  -43.0645 H         1 UNK         0.0600 
    168 H168        4.3596  -14.9643  -42.7909 H         1 UNK         0.0600 
    169 H169        2.6004  -14.9794  -41.0074 H         1 UNK         0.3000 
    170 H170       -0.5586  -15.7950  -39.5762 H         1 UNK         0.0600 
    171 H171        1.1256  -16.4993  -37.8714 H         1 UNK         0.0600 
    172 H172        2.1379  -15.1194  -38.2809 H         1 UNK         0.0600 
    173 H173        0.5469  -14.8702  -37.5616 H         1 UNK         0.0600 
    174 H174        1.0122  -13.3911  -39.6558 H         1 UNK         0.3000 
    175 H175       -0.3826  -12.1128  -42.6894 H         1 UNK         0.0600 
    176 H176       -0.7300  -11.2731  -39.7635 H         1 UNK         0.0600 
    177 H177       -0.9927  -10.2583  -41.1822 H         1 UNK         0.0600 
    178 H178       -2.0439  -11.6312  -40.8780 H         1 UNK         0.0600 
    179 H179        1.4201  -10.8144  -41.0444 H         1 UNK         0.3000 
    180 H180        3.5394  -10.4265  -42.1810 H         1 UNK         0.0600 
    181 H181        4.4638  -12.7810  -40.4270 H         1 UNK         0.0600 
    182 H182        3.6234  -11.3471  -39.8494 H         1 UNK         0.0600 
    183 H183        5.2429  -11.2013  -40.5081 H         1 UNK         0.0600 
    184 H184        5.3922  -12.5872  -42.6747 H         1 UNK         0.3000 
    185 H185        5.8604  -11.9486  -46.0160 H         1 UNK         0.0600 
    186 H186        7.3000  -12.4066  -43.9827 H         1 UNK         0.0600 
    187 H187        6.4704  -13.9484  -43.7551 H         1 UNK         0.0600 
    188 H188        7.4346  -13.6637  -45.1953 H         1 UNK         0.0600 
    189 H189        3.9021  -13.9630  -45.3155 H         1 UNK         0.3000 
    190 H190       -2.4104  -21.1967  -45.5258 H         1 UNK         0.3000 
    191 H191       -4.2995  -23.2121  -46.1360 H         1 UNK         0.0600 
    192 H192       -2.2309  -23.0895  -43.8830 H         1 UNK         0.0600 
    193 H193       -3.6293  -24.1559  -43.9306 H         1 UNK         0.0600 
    194 H194       -3.8578  -22.4157  -43.8398 H         1 UNK         0.0600 
    195 H195       -0.7234  -23.3368  -46.0839 H         1 UNK         0.3000 
    196 H196       -0.5379  -26.1406  -46.6475 H         1 UNK         0.0600 
    197 H197        1.8963  -25.6172  -46.9114 H         1 UNK         0.0600 
    198 H198        1.2278  -24.9416  -45.4335 H         1 UNK         0.0600 
    199 H199        1.5377  -23.8963  -46.8156 H         1 UNK         0.0600 
    200 H200        0.2362  -23.2753  -48.7450 H         1 UNK         0.3000 
    201 H201        0.7458  -25.1075  -50.9917 H         1 UNK         0.0600 
    202 H202        2.3979  -23.3477  -50.3601 H         1 UNK         0.0600 
    203 H203        1.2059  -22.0945  -50.7039 H         1 UNK         0.0600 
    204 H204        1.8021  -23.1231  -51.9980 H         1 UNK         0.0600 
    205 H205       -1.5840  -22.5411  -50.1132 H         1 UNK         0.3000 
    206 H206       -2.7477  -22.5751  -52.8386 H         1 UNK         0.0600 
    207 H207       -2.2216  -20.4199  -51.4129 H         1 UNK         0.0600 
    208 H208       -3.7413  -20.5198  -52.2858 H         1 UNK         0.0600 
    209 H209       -3.7050  -20.8090  -50.5633 H         1 UNK         0.0600 
    210 H210       -3.1288  -24.3398  -50.0551 H         1 UNK         0.3000 
    211 H211       -4.6435  -25.6659  -49.1232 H         1 UNK         0.0600 
    212 H212       -6.1049  -25.5619  -51.8175 H         1 UNK         0.0600 
    213 H213       -6.3316  -26.7715  -50.5627 H         1 UNK         0.0600 
    214 H214       -4.7946  -26.6621  -51.4047 H         1 UNK         0.0600 
    215 H215       -4.8355  -22.9944  -48.5084 H         1 UNK         0.3000 
    216 H216       -6.0208  -21.4437  -47.4799 H         1 UNK         0.0600 
    217 H217       -8.1169  -21.9627  -46.3090 H         1 UNK         0.0600 
    218 H218       -6.9928  -23.2965  -46.1053 H         1 UNK         0.0600 
    219 H219       -8.3356  -23.4365  -47.2396 H         1 UNK         0.0600 
    220 H220       -5.8125  -21.3864  -50.1477 H         1 UNK         0.3000 
    221 H221       -6.2974  -20.1943  -51.9044 H         1 UNK         0.0600 
    222 H222       -8.7230  -18.9999  -50.4788 H         1 UNK         0.0600 
    223 H223       -7.0737  -18.3910  -50.3452 H         1 UNK         0.0600 
    224 H224       -7.9025  -18.3552  -51.8910 H         1 UNK         0.0600 
    225 H225       -7.8107  -22.8734  -51.1996 H         1 UNK         0.3000 
    226 H226       -9.9959  -22.8913  -53.1170 H         1 UNK         0.0600 
    227 H227       -9.9289  -24.4272  -51.1410 H         1 UNK         0.0600 
    228 H228      -10.0496  -25.3072  -52.6579 H         1 UNK         0.0600 
    229 H229       -8.5112  -25.2298  -51.8134 H         1 UNK         0.0600 
    230 H230       -6.5269  -23.7229  -53.1563 H         1 UNK         0.3000 
    231 H231       -6.6302  -24.4954  -56.0337 H         1 UNK         0.0600 
    232 H232       -5.3556  -25.9701  -54.4580 H         1 UNK         0.0600 
    233 H233       -4.3192  -24.6140  -54.0224 H         1 UNK         0.0600 
    234 H234       -4.3126  -25.2344  -55.6648 H         1 UNK         0.0600 
    235 H235       -5.8391  -21.8971  -53.8826 H         1 UNK         0.3000 
    236 H236       -5.1545  -19.7858  -54.1030 H         1 UNK         0.0600 
    237 H237       -6.1479  -20.0419  -56.9856 H         1 UNK         0.0600 
    238 H238       -7.1675  -19.7362  -55.5798 H         1 UNK         0.0600 
    239 H239       -5.9704  -18.5500  -56.0702 H         1 UNK         0.0600 
    240 H240       -3.1289  -21.7650  -54.5511 H         1 UNK         0.3000 
    241 H241       -0.9877  -21.9879  -54.9709 H         1 UNK         0.0600 
    242 H242       -3.1585  -22.2260  -57.3004 H         1 UNK         0.3800 
    243 H243       -2.0916  -22.4906  -58.6550 H         1 UNK         0.3800 
    244 H244       -0.8141  -19.0623  -55.8435 H         1 UNK         0.0800 
    245 H245        0.5359  -20.1114  -55.5345 H         1 UNK         0.0800 
    246 H246       -2.3621  -18.0523  -53.9324 H         1 UNK         0.0800 
    247 H247       -0.8526  -17.1984  -54.1323 H         1 UNK         0.0800 
@<TRIPOS>BOND
     1    1    2 1    
     2    1  127 1    
     3    1  128 1    
     4    1  129 1    
     5    2    3 2    
     6    2    4 am   BACKBONE|DICT|INTERRES
     7    4    5 1    
     8    4  130 1    
     9    5    6 1    
    10    5   65 1    
    11    5  131 1    
    12    6    7 1    
    13    6  132 1    
    14    6  133 1    
    15    7    8 1    
    16    8    9 1    
    17    8  134 1    
    18    8  135 1    
    19    9   10 ar   
    20    9   14 ar   
    21   10   11 ar   
    22   10  136 1    
    23   11   12 ar   
    24   11  126 1    
    25   12   13 ar   
    26   12  137 1    
    27   13   14 ar   
    28   13   15 1    
    29   14  138 1    
    30   15   16 1    
    31   15  139 1    
    32   15  140 1    
    33   16   17 1    
    34   17   18 1    
    35   17  141 1    
    36   17  142 1    
    37   18   19 1    
    38   18   67 1    
    39   18  143 1    
    40   19   20 am   BACKBONE|DICT|INTERRES
    41   19  144 1    
    42   20   21 2    
    43   20   22 1    
    44   22   23 1    
    45   22   24 1    
    46   22  145 1    
    47   23  146 1    
    48   23  147 1    
    49   23  148 1    
    50   24   25 am   BACKBONE|DICT|INTERRES
    51   24  149 1    
    52   25   26 2    
    53   25   27 1    
    54   27   28 1    
    55   27   29 1    
    56   27  150 1    
    57   28  151 1    
    58   28  152 1    
    59   28  153 1    
    60   29   30 am   BACKBONE|DICT|INTERRES
    61   29  154 1    
    62   30   31 2    
    63   30   32 1    
    64   32   33 1    
    65   32   34 1    
    66   32  155 1    
    67   33  156 1    
    68   33  157 1    
    69   33  158 1    
    70   34   35 am   BACKBONE|DICT|INTERRES
    71   34  159 1    
    72   35   36 2    
    73   35   37 1    
    74   37   38 1    
    75   37   39 1    
    76   37  160 1    
    77   38  161 1    
    78   38  162 1    
    79   38  163 1    
    80   39   40 am   BACKBONE|DICT|INTERRES
    81   39  164 1    
    82   40   41 2    
    83   40   42 1    
    84   42   43 1    
    85   42   44 1    
    86   42  165 1    
    87   43  166 1    
    88   43  167 1    
    89   43  168 1    
    90   44   45 am   BACKBONE|DICT|INTERRES
    91   44  169 1    
    92   45   46 2    
    93   45   47 1    
    94   47   48 1    
    95   47   49 1    
    96   47  170 1    
    97   48  171 1    
    98   48  172 1    
    99   48  173 1    
   100   49   50 am   BACKBONE|DICT|INTERRES
   101   49  174 1    
   102   50   51 2    
   103   50   52 1    
   104   52   53 1    
   105   52   54 1    
   106   52  175 1    
   107   53  176 1    
   108   53  177 1    
   109   53  178 1    
   110   54   55 am   BACKBONE|DICT|INTERRES
   111   54  179 1    
   112   55   56 2    
   113   55   57 1    
   114   57   58 1    
   115   57   59 1    
   116   57  180 1    
   117   58  181 1    
   118   58  182 1    
   119   58  183 1    
   120   59   60 am   BACKBONE|DICT|INTERRES
   121   59  184 1    
   122   60   61 2    
   123   60   62 1    
   124   62   63 1    
   125   62   64 1    
   126   62  185 1    
   127   63  186 1    
   128   63  187 1    
   129   63  188 1    
   130   64   65 am   BACKBONE|DICT|INTERRES
   131   64  189 1    
   132   65   66 2    
   133   67   68 2    
   134   67   69 am   BACKBONE|DICT|INTERRES
   135   69   70 1    
   136   69  190 1    
   137   70   71 1    
   138   70   72 1    
   139   70  191 1    
   140   71  192 1    
   141   71  193 1    
   142   71  194 1    
   143   72   73 2    
   144   72   74 am   BACKBONE|DICT|INTERRES
   145   74   75 1    
   146   74  195 1    
   147   75   76 1    
   148   75   77 1    
   149   75  196 1    
   150   76  197 1    
   151   76  198 1    
   152   76  199 1    
   153   77   78 2    
   154   77   79 am   BACKBONE|DICT|INTERRES
   155   79   80 1    
   156   79  200 1    
   157   80   81 1    
   158   80   82 1    
   159   80  201 1    
   160   81  202 1    
   161   81  203 1    
   162   81  204 1    
   163   82   83 2    
   164   82   84 am   BACKBONE|DICT|INTERRES
   165   84   85 1    
   166   84  205 1    
   167   85   86 1    
   168   85   87 1    
   169   85  206 1    
   170   86  207 1    
   171   86  208 1    
   172   86  209 1    
   173   87   88 2    
   174   87   89 am   BACKBONE|DICT|INTERRES
   175   89   90 1    
   176   89  210 1    
   177   90   91 1    
   178   90   92 1    
   179   90  211 1    
   180   91  212 1    
   181   91  213 1    
   182   91  214 1    
   183   92   93 2    
   184   92   94 am   BACKBONE|DICT|INTERRES
   185   94   95 1    
   186   94  215 1    
   187   95   96 1    
   188   95   97 1    
   189   95  216 1    
   190   96  217 1    
   191   96  218 1    
   192   96  219 1    
   193   97   98 2    
   194   97   99 am   BACKBONE|DICT|INTERRES
   195   99  100 1    
   196   99  220 1    
   197  100  101 1    
   198  100  102 1    
   199  100  221 1    
   200  101  222 1    
   201  101  223 1    
   202  101  224 1    
   203  102  103 2    
   204  102  104 am   BACKBONE|DICT|INTERRES
   205  104  105 1    
   206  104  225 1    
   207  105  106 1    
   208  105  107 1    
   209  105  226 1    
   210  106  227 1    
   211  106  228 1    
   212  106  229 1    
   213  107  108 2    
   214  107  109 am   BACKBONE|DICT|INTERRES
   215  109  110 1    
   216  109  230 1    
   217  110  111 1    
   218  110  112 1    
   219  110  231 1    
   220  111  232 1    
   221  111  233 1    
   222  111  234 1    
   223  112  113 2    
   224  112  114 am   BACKBONE|DICT|INTERRES
   225  114  115 1    
   226  114  235 1    
   227  115  116 1    
   228  115  117 1    
   229  115  236 1    
   230  116  237 1    
   231  116  238 1    
   232  116  239 1    
   233  117  118 2    
   234  117  119 am   BACKBONE|DICT|INTERRES
   235  119  120 1    
   236  119  240 1    
   237  120  121 1    
   238  120  124 1    
   239  120  241 1    
   240  121  122 am   BACKBONE|DICT|INTERRES
   241  121  123 2    
   242  122  242 1    
   243  122  243 1    
   244  124  125 1    
   245  124  244 1    
   246  124  245 1    
   247  125  126 1    
   248  126  246 1    
   249  126  247 1    
@<TRIPOS>SUBSTRUCTURE
     1 UNK         1 GROUP             0       ****    0 ROOT    
