@<TRIPOS>MOLECULE
3R540
247   249    1
SMALL
USER_CHARGES


@<TRIPOS>ATOM
      1 CA          4.1249  -11.8001  -50.7302 C.3       0 UNK        -0.1800 
      2 C           3.9771  -12.8567  -49.6451 C.2       0 UNK         0.5000 
      3 O           4.8873  -13.0382  -48.8356 O.2       0 UNK        -0.5000 
      4 N           2.8271  -13.5447  -49.6104 N.am      1 UNK        -0.5000 
      5 CA          2.5096  -14.6099  -48.6478 C.3       1 UNK         0.1400 
      6 C6          1.2668  -15.4321  -49.0610 C.3       23 UNK        -0.0398 
      7 S7         -0.2604  -14.4499  -49.2933 S.3       23 UNK        -0.2404 
      8 C8         -0.9307  -15.1636  -50.8316 C.3       23 UNK        -0.0205 
      9 C9         -1.5123  -16.5507  -50.6004 C.ar      23 UNK        -0.0193 
     10 C10        -2.8756  -16.7110  -50.3357 C.ar      23 UNK        -0.1150 
     11 C11        -3.4106  -17.9867  -50.1305 C.ar      23 UNK        -0.0193 
     12 C12        -2.5633  -19.0965  -50.1330 C.ar      23 UNK        -0.1150 
     13 C13        -1.1995  -18.9511  -50.3950 C.ar      23 UNK        -0.0193 
     14 C14        -0.6890  -17.6785  -50.6599 C.ar      23 UNK        -0.1150 
     15 C15        -0.2816  -20.1678  -50.3907 C.3       23 UNK        -0.0205 
     16 S16         1.1685  -19.9509  -49.3039 S.3       23 UNK        -0.2404 
     17 C17         0.3743  -19.7142  -47.6783 C.3       23 UNK        -0.0398 
     18 CA          0.6166  -20.8926  -46.7086 C.3       11 UNK         0.1400 
     19 N           0.4767  -20.4619  -45.3119 N.am      11 UNK        -0.5000 
     20 C           0.7221  -21.2234  -44.2355 C.2       10 UNK         0.5000 
     21 O           1.1339  -22.3808  -44.2961 O.2       10 UNK        -0.5000 
     22 CA          0.3961  -20.6066  -42.8660 C.3       10 UNK         0.1400 
     23 CB          1.5386  -19.7088  -42.3692 C.3       10 UNK        -0.1800 
     24 N          -0.8569  -19.8520  -42.9225 N.am      10 UNK        -0.5000 
     25 C          -2.0682  -20.4216  -42.8398 C.2       9 UNK         0.5000 
     26 O          -2.2436  -21.6058  -42.5540 O.2       9 UNK        -0.5000 
     27 CA         -3.2917  -19.5412  -43.1582 C.3       9 UNK         0.1400 
     28 CB         -3.9544  -19.0339  -41.8689 C.3       9 UNK        -0.1800 
     29 N          -2.9705  -18.4094  -44.0319 N.am      9 UNK        -0.5000 
     30 C          -2.7350  -18.5284  -45.3478 C.2       8 UNK         0.5000 
     31 O          -2.7648  -19.6036  -45.9437 O.2       8 UNK        -0.5000 
     32 CA         -2.3617  -17.2514  -46.1280 C.3       8 UNK         0.1400 
     33 CB         -3.6214  -16.5870  -46.7004 C.3       8 UNK        -0.1800 
     34 N          -1.6222  -16.2655  -45.3401 N.am      8 UNK        -0.5000 
     35 C          -0.4527  -16.4792  -44.7241 C.2       7 UNK         0.5000 
     36 O           0.1445  -17.5579  -44.7633 O.2       7 UNK        -0.5000 
     37 CA          0.1187  -15.3204  -43.8759 C.3       7 UNK         0.1400 
     38 CB         -0.7419  -14.0367  -43.8936 C.3       7 UNK        -0.1800 
     39 N           0.3818  -15.7284  -42.4949 N.am      7 UNK        -0.5000 
     40 C          -0.4881  -16.2880  -41.6396 C.2       6 UNK         0.5000 
     41 O          -1.6630  -16.5235  -41.9242 O.2       6 UNK        -0.5000 
     42 CA          0.0525  -16.6629  -40.2472 C.3       6 UNK         0.1400 
     43 CB         -0.6736  -17.8733  -39.6315 C.3       6 UNK        -0.1800 
     44 N           1.4899  -16.9314  -40.3081 N.am      6 UNK        -0.5000 
     45 C           2.4048  -16.4382  -39.4677 C.2       5 UNK         0.5000 
     46 O           2.1319  -15.7545  -38.4801 O.2       5 UNK        -0.5000 
     47 CA          3.8825  -16.7469  -39.7864 C.3       5 UNK         0.1400 
     48 CB          4.3407  -17.9897  -39.0074 C.3       5 UNK        -0.1800 
     49 N           4.2185  -16.9313  -41.2066 N.am      5 UNK        -0.5000 
     50 C           3.9767  -16.0643  -42.2001 C.2       4 UNK         0.5000 
     51 O           3.2496  -15.0749  -42.0870 O.2       4 UNK        -0.5000 
     52 CA          4.6393  -16.3791  -43.5555 C.3       4 UNK         0.1400 
     53 CB          3.7749  -17.3450  -44.3792 C.3       4 UNK        -0.1800 
     54 N           4.8686  -15.1587  -44.3304 N.am      4 UNK        -0.5000 
     55 C           5.8273  -14.2596  -44.0562 C.2       3 UNK         0.5000 
     56 O           6.6703  -14.4194  -43.1717 O.2       3 UNK        -0.5000 
     57 CA          5.8730  -12.9694  -44.9037 C.3       3 UNK         0.1400 
     58 CB          6.9498  -13.0821  -45.9937 C.3       3 UNK        -0.1800 
     59 N           4.5963  -12.6406  -45.5365 N.am      3 UNK        -0.5000 
     60 C           3.4989  -12.2312  -44.8835 C.2       2 UNK         0.5000 
     61 O           3.4878  -11.9526  -43.6845 O.2       2 UNK        -0.5000 
     62 CA          2.1867  -12.1258  -45.6917 C.3       2 UNK         0.1400 
     63 CB          1.8103  -10.6546  -45.9234 C.3       2 UNK        -0.1800 
     64 N           2.2054  -12.8133  -46.9863 N.am      2 UNK        -0.5000 
     65 C           2.4129  -14.1232  -47.1872 C.2       1 UNK         0.5000 
     66 O           2.5865  -14.9298  -46.2756 O.2       1 UNK        -0.5000 
     67 C          -0.2752  -22.1104  -47.0503 C.2       11 UNK         0.5000 
     68 O           0.1558  -22.9950  -47.7911 O.2       11 UNK        -0.5000 
     69 N          -1.4676  -22.1743  -46.4386 N.am      12 UNK        -0.5000 
     70 CA         -2.4343  -23.2710  -46.5348 C.3       12 UNK         0.1400 
     71 CB         -3.6765  -22.9211  -45.7021 C.3       12 UNK        -0.1800 
     72 C          -1.8943  -24.6604  -46.1371 C.2       12 UNK         0.5000 
     73 O          -2.4642  -25.6634  -46.5675 O.2       12 UNK        -0.5000 
     74 N          -0.7880  -24.7174  -45.3780 N.am      13 UNK        -0.5000 
     75 CA         -0.0664  -25.9509  -45.0474 C.3       13 UNK         0.1400 
     76 CB          1.0276  -25.6405  -44.0157 C.3       13 UNK        -0.1800 
     77 C           0.5390  -26.6624  -46.2773 C.2       13 UNK         0.5000 
     78 O           0.7687  -27.8706  -46.2191 O.2       13 UNK        -0.5000 
     79 N           0.7510  -25.9224  -47.3767 N.am      14 UNK        -0.5000 
     80 CA          1.1686  -26.4525  -48.6774 C.3       14 UNK         0.1400 
     81 CB          1.8847  -25.3362  -49.4567 C.3       14 UNK        -0.1800 
     82 C          -0.0046  -27.0278  -49.5034 C.2       14 UNK         0.5000 
     83 O           0.2223  -27.4729  -50.6283 O.2       14 UNK        -0.5000 
     84 N          -1.2309  -26.9790  -48.9568 N.am      15 UNK        -0.5000 
     85 CA         -2.5172  -27.3887  -49.5386 C.3       15 UNK         0.1400 
     86 CB         -2.4928  -28.8525  -50.0253 C.3       15 UNK        -0.1800 
     87 C          -3.0645  -26.4207  -50.6088 C.2       15 UNK         0.5000 
     88 O          -4.1426  -26.6668  -51.1516 O.2       15 UNK        -0.5000 
     89 N          -2.3481  -25.3207  -50.8684 N.am      16 UNK        -0.5000 
     90 CA         -2.7940  -24.2018  -51.6889 C.3       16 UNK         0.1400 
     91 CB         -1.5608  -23.4882  -52.2698 C.3       16 UNK        -0.1800 
     92 C          -3.6249  -23.2598  -50.8067 C.2       16 UNK         0.5000 
     93 O          -3.0506  -22.5384  -49.9928 O.2       16 UNK        -0.5000 
     94 N          -4.9515  -23.3104  -50.9455 N.am      17 UNK        -0.5000 
     95 CA         -5.9014  -22.4881  -50.2036 C.3       17 UNK         0.1400 
     96 CB         -6.1003  -23.0543  -48.7860 C.3       17 UNK        -0.1800 
     97 C          -7.2303  -22.4545  -50.9685 C.2       17 UNK         0.5000 
     98 O          -7.5250  -23.3950  -51.7112 O.2       17 UNK        -0.5000 
     99 N          -8.0037  -21.3785  -50.7666 N.am      18 UNK        -0.5000 
    100 CA        -9.3447  -21.0732  -51.2950 C.3       18 UNK         0.1400 
    101 CB       -10.3749  -22.1102  -50.8084 C.3       18 UNK        -0.1800 
    102 C         -9.4418  -20.8817  -52.8247 C.2       18 UNK         0.5000 
    103 O        -10.2009  -20.0240  -53.2787 O.2       18 UNK        -0.5000 
    104 N         -8.6919  -21.6809  -53.5874 N.am      19 UNK        -0.5000 
    105 CA        -8.5825  -21.6493  -55.0426 C.3       19 UNK         0.1400 
    106 CB        -7.9238  -22.9666  -55.4898 C.3       19 UNK        -0.1800 
    107 C         -7.7841  -20.4339  -55.5568 C.2       19 UNK         0.5000 
    108 O         -7.2254  -19.6626  -54.7718 O.2       19 UNK        -0.5000 
    109 N         -7.6894  -20.3259  -56.8904 N.am      20 UNK        -0.5000 
    110 CA        -6.9391  -19.3009  -57.6289 C.3       20 UNK         0.1400 
    111 CB        -7.1494  -19.5215  -59.1348 C.3       20 UNK        -0.1800 
    112 C         -5.4315  -19.2345  -57.3000 C.2       20 UNK         0.5000 
    113 O         -4.8000  -18.2120  -57.5694 O.2       20 UNK        -0.5000 
    114 N         -4.8943  -20.2930  -56.6748 N.am      21 UNK        -0.5000 
    115 CA        -3.5545  -20.3654  -56.0869 C.3       21 UNK         0.1400 
    116 CB        -3.3584  -21.7616  -55.4754 C.3       21 UNK        -0.1800 
    117 C         -3.2692  -19.2733  -55.0324 C.2       21 UNK         0.5000 
    118 O         -2.1054  -18.9185  -54.8429 O.2       21 UNK        -0.5000 
    119 N         -4.3229  -18.7377  -54.3980 N.am      22 UNK        -0.5000 
    120 CA        -4.2544  -17.5517  -53.5297 C.3       22 UNK         0.1400 
    121 C         -4.0067  -16.2084  -54.2819 C.2       22 UNK         0.5000 
    122 N         -4.0767  -16.1467  -55.6073 N.am      22 UNK        -0.7600 
    123 O         -3.7387  -15.1930  -53.6460 O.2       22 UNK        -0.5000 
    124 C124       -5.4961  -17.4312  -52.6063 C.3       23 UNK        -0.0398 
    125 S125       -5.6839  -18.8353  -51.4563 S.3       23 UNK        -0.2404 
    126 C126       -4.9065  -18.1811  -49.9421 C.3       23 UNK        -0.0205 
    127 H127        3.2380  -11.7407  -51.3620 H         1 UNK         0.0600 
    128 H128        4.9803  -12.0322  -51.3650 H         1 UNK         0.0600 
    129 H129        4.2886  -10.8210  -50.2798 H         1 UNK         0.0600 
    130 H130        2.1037  -13.3411  -50.2861 H         1 UNK         0.3000 
    131 H131        3.3568  -15.2995  -48.6648 H         1 UNK         0.0600 
    132 H132        1.5093  -15.9367  -49.9947 H         1 UNK         0.0800 
    133 H133        1.0652  -16.2276  -48.3404 H         1 UNK         0.0800 
    134 H134       -0.1549  -15.1992  -51.5979 H         1 UNK         0.0800 
    135 H135       -1.7050  -14.4993  -51.2189 H         1 UNK         0.0800 
    136 H136       -3.5228  -15.8455  -50.3169 H         1 UNK         0.1150 
    137 H137       -2.9777  -20.0759  -49.9512 H         1 UNK         0.1150 
    138 H138        0.3601  -17.5729  -50.8903 H         1 UNK         0.1150 
    139 H139       -0.8221  -21.0608  -50.0740 H         1 UNK         0.0800 
    140 H140        0.0597  -20.3567  -51.4092 H         1 UNK         0.0800 
    141 H141       -0.6925  -19.5201  -47.7920 H         1 UNK         0.0800 
    142 H142        0.7971  -18.7977  -47.2634 H         1 UNK         0.0800 
    143 H143        1.6538  -21.2164  -46.8189 H         1 UNK         0.0600 
    144 H144        0.1895  -19.5000  -45.1623 H         1 UNK         0.3000 
    145 H145        0.2938  -21.4291  -42.1546 H         1 UNK         0.0600 
    146 H146        1.4253  -19.4973  -41.3074 H         1 UNK         0.0600 
    147 H147        2.5059  -20.1979  -42.4923 H         1 UNK         0.0600 
    148 H148        1.5751  -18.7624  -42.9066 H         1 UNK         0.0600 
    149 H149       -0.7973  -18.8823  -43.2044 H         1 UNK         0.3000 
    150 H150       -4.0183  -20.1722  -43.6752 H         1 UNK         0.0600 
    151 H151       -4.2856  -19.8684  -41.2496 H         1 UNK         0.0600 
    152 H152       -4.8309  -18.4240  -42.0878 H         1 UNK         0.0600 
    153 H153       -3.2707  -18.4369  -41.2675 H         1 UNK         0.0600 
    154 H154       -2.8619  -17.5070  -43.5849 H         1 UNK         0.3000 
    155 H155       -1.7268  -17.5479  -46.9647 H         1 UNK         0.0600 
    156 H156       -4.2153  -17.3026  -47.2688 H         1 UNK         0.0600 
    157 H157       -3.3637  -15.7705  -47.3755 H         1 UNK         0.0600 
    158 H158       -4.2599  -16.1865  -45.9122 H         1 UNK         0.0600 
    159 H159       -2.0579  -15.3613  -45.2337 H         1 UNK         0.3000 
    160 H160        1.0896  -15.0736  -44.2983 H         1 UNK         0.0600 
    161 H161       -1.7342  -14.1999  -43.4714 H         1 UNK         0.0600 
    162 H162       -0.8653  -13.6550  -44.9081 H         1 UNK         0.0600 
    163 H163       -0.2675  -13.2459  -43.3123 H         1 UNK         0.0600 
    164 H164        1.3278  -15.5485  -42.1714 H         1 UNK         0.3000 
    165 H165       -0.1382  -15.7951  -39.6128 H         1 UNK         0.0600 
    166 H166       -0.2542  -18.1310  -38.6589 H         1 UNK         0.0600 
    167 H167       -1.7313  -17.6576  -39.4779 H         1 UNK         0.0600 
    168 H168       -0.6074  -18.7545  -40.2688 H         1 UNK         0.0600 
    169 H169        1.8115  -17.4741  -41.0957 H         1 UNK         0.3000 
    170 H170        4.4648  -15.8935  -39.4332 H         1 UNK         0.0600 
    171 H171        4.1344  -17.8835  -37.9414 H         1 UNK         0.0600 
    172 H172        3.8299  -18.8898  -39.3522 H         1 UNK         0.0600 
    173 H173        5.4139  -18.1501  -39.1126 H         1 UNK         0.0600 
    174 H174        4.8004  -17.7316  -41.4091 H         1 UNK         0.3000 
    175 H175        5.6053  -16.8546  -43.3726 H         1 UNK         0.0600 
    176 H176        2.7585  -16.9722  -44.5024 H         1 UNK         0.0600 
    177 H177        4.1932  -17.5028  -45.3734 H         1 UNK         0.0600 
    178 H178        3.7141  -18.3208  -43.8981 H         1 UNK         0.0600 
    179 H179        4.1758  -14.9442  -45.0400 H         1 UNK         0.3000 
    180 H180        6.1453  -12.1479  -44.2377 H         1 UNK         0.0600 
    181 H181        6.7248  -13.8840  -46.6983 H         1 UNK         0.0600 
    182 H182        7.9282  -13.2905  -45.5586 H         1 UNK         0.0600 
    183 H183        7.0370  -12.1546  -46.5601 H         1 UNK         0.0600 
    184 H184        4.5274  -12.8237  -46.5297 H         1 UNK         0.3000 
    185 H185        1.4058  -12.5867  -45.0869 H         1 UNK         0.0600 
    186 H186        1.7480  -10.1120  -44.9790 H         1 UNK         0.0600 
    187 H187        2.5468  -10.1457  -46.5467 H         1 UNK         0.0600 
    188 H188        0.8385  -10.5672  -46.4098 H         1 UNK         0.0600 
    189 H189        2.0867  -12.2313  -47.8027 H         1 UNK         0.3000 
    190 H190       -1.7748  -21.3600  -45.9176 H         1 UNK         0.3000 
    191 H191       -2.7354  -23.3423  -47.5795 H         1 UNK         0.0600 
    192 H192       -4.1312  -21.9903  -46.0418 H         1 UNK         0.0600 
    193 H193       -4.4359  -23.6998  -45.7846 H         1 UNK         0.0600 
    194 H194       -3.4330  -22.8121  -44.6456 H         1 UNK         0.0600 
    195 H195       -0.3568  -23.8514  -45.0774 H         1 UNK         0.3000 
    196 H196       -0.7803  -26.6388  -44.5899 H         1 UNK         0.0600 
    197 H197        1.5191  -26.5550  -43.6812 H         1 UNK         0.0600 
    198 H198        0.6140  -25.1515  -43.1333 H         1 UNK         0.0600 
    199 H199        1.7973  -24.9894  -44.4318 H         1 UNK         0.0600 
    200 H200        0.5374  -24.9292  -47.3507 H         1 UNK         0.3000 
    201 H201        1.8822  -27.2633  -48.5172 H         1 UNK         0.0600 
    202 H202        2.7017  -24.9086  -48.8754 H         1 UNK         0.0600 
    203 H203        1.2028  -24.5275  -49.7219 H         1 UNK         0.0600 
    204 H204        2.3132  -25.7182  -50.3841 H         1 UNK         0.0600 
    205 H205       -1.3149  -26.5703  -48.0324 H         1 UNK         0.3000 
    206 H206       -3.2298  -27.3400  -48.7139 H         1 UNK         0.0600 
    207 H207       -2.0988  -29.5183  -49.2574 H         1 UNK         0.0600 
    208 H208       -3.4987  -29.1974  -50.2672 H         1 UNK         0.0600 
    209 H209       -1.8872  -28.9755  -50.9232 H         1 UNK         0.0600 
    210 H210       -1.4959  -25.1797  -50.3476 H         1 UNK         0.3000 
    211 H211       -3.4070  -24.5593  -52.5193 H         1 UNK         0.0600 
    212 H212       -1.0241  -24.1348  -52.9642 H         1 UNK         0.0600 
    213 H213       -0.8616  -23.1849  -51.4893 H         1 UNK         0.0600 
    214 H214       -1.8506  -22.5896  -52.8150 H         1 UNK         0.0600 
    215 H215       -5.3771  -23.9360  -51.6187 H         1 UNK         0.3000 
    216 H216       -5.5113  -21.4713  -50.1347 H         1 UNK         0.0600 
    217 H217       -6.8206  -22.4601  -48.2224 H         1 UNK         0.0600 
    218 H218       -5.1679  -23.0481  -48.2234 H         1 UNK         0.0600 
    219 H219       -6.4675  -24.0809  -48.8127 H         1 UNK         0.0600 
    220 H220       -7.6252  -20.6500  -50.1773 H         1 UNK         0.3000 
    221 H221       -9.6167  -20.1137  -50.8523 H         1 UNK         0.0600 
    222 H222      -10.1772  -23.1026  -51.2146 H         1 UNK         0.0600 
    223 H223      -10.3744  -22.1864  -49.7211 H         1 UNK         0.0600 
    224 H224      -11.3837  -21.8296  -51.1138 H         1 UNK         0.0600 
    225 H225       -8.1234  -22.3690  -53.1017 H         1 UNK         0.3000 
    226 H226       -9.5883  -21.5951  -55.4629 H         1 UNK         0.0600 
    227 H227       -8.4803  -23.8284  -55.1206 H         1 UNK         0.0600 
    228 H228       -7.8897  -23.0529  -56.5761 H         1 UNK         0.0600 
    229 H229       -6.9012  -23.0496  -55.1195 H         1 UNK         0.0600 
    230 H230       -8.1692  -21.0081  -57.4600 H         1 UNK         0.3000 
    231 H231       -7.3643  -18.3315  -57.3621 H         1 UNK         0.0600 
    232 H232       -6.7697  -20.4924  -59.4552 H         1 UNK         0.0600 
    233 H233       -6.6333  -18.7582  -59.7189 H         1 UNK         0.0600 
    234 H234       -8.2058  -19.4690  -59.3986 H         1 UNK         0.0600 
    235 H235       -5.4982  -21.0815  -56.5006 H         1 UNK         0.3000 
    236 H236       -2.8338  -20.2368  -56.8967 H         1 UNK         0.0600 
    237 H237       -3.5079  -22.5450  -56.2184 H         1 UNK         0.0600 
    238 H238       -2.3459  -21.8751  -55.0870 H         1 UNK         0.0600 
    239 H239       -4.0502  -21.9411  -54.6512 H         1 UNK         0.0600 
    240 H240       -5.2531  -19.0961  -54.5874 H         1 UNK         0.3000 
    241 H241       -3.3794  -17.6837  -52.8932 H         1 UNK         0.0600 
    242 H242       -3.9078  -15.2651  -56.0644 H         1 UNK         0.3800 
    243 H243       -4.2927  -16.9632  -56.1703 H         1 UNK         0.3800 
    244 H244       -5.4606  -16.5115  -52.0202 H         1 UNK         0.0800 
    245 H245       -6.4034  -17.3656  -53.2091 H         1 UNK         0.0800 
    246 H246       -5.3893  -17.2463  -49.6530 H         1 UNK         0.0800 
    247 H247       -5.0788  -18.8822  -49.1242 H         1 UNK         0.0800 
@<TRIPOS>BOND
     1    1    2 1    
     2    1  127 1    
     3    1  128 1    
     4    1  129 1    
     5    2    3 2    
     6    2    4 am   BACKBONE|DICT|INTERRES
     7    4    5 1    
     8    4  130 1    
     9    5    6 1    
    10    5   65 1    
    11    5  131 1    
    12    6    7 1    
    13    6  132 1    
    14    6  133 1    
    15    7    8 1    
    16    8    9 1    
    17    8  134 1    
    18    8  135 1    
    19    9   10 ar   
    20    9   14 ar   
    21   10   11 ar   
    22   10  136 1    
    23   11   12 ar   
    24   11  126 1    
    25   12   13 ar   
    26   12  137 1    
    27   13   14 ar   
    28   13   15 1    
    29   14  138 1    
    30   15   16 1    
    31   15  139 1    
    32   15  140 1    
    33   16   17 1    
    34   17   18 1    
    35   17  141 1    
    36   17  142 1    
    37   18   19 1    
    38   18   67 1    
    39   18  143 1    
    40   19   20 am   BACKBONE|DICT|INTERRES
    41   19  144 1    
    42   20   21 2    
    43   20   22 1    
    44   22   23 1    
    45   22   24 1    
    46   22  145 1    
    47   23  146 1    
    48   23  147 1    
    49   23  148 1    
    50   24   25 am   BACKBONE|DICT|INTERRES
    51   24  149 1    
    52   25   26 2    
    53   25   27 1    
    54   27   28 1    
    55   27   29 1    
    56   27  150 1    
    57   28  151 1    
    58   28  152 1    
    59   28  153 1    
    60   29   30 am   BACKBONE|DICT|INTERRES
    61   29  154 1    
    62   30   31 2    
    63   30   32 1    
    64   32   33 1    
    65   32   34 1    
    66   32  155 1    
    67   33  156 1    
    68   33  157 1    
    69   33  158 1    
    70   34   35 am   BACKBONE|DICT|INTERRES
    71   34  159 1    
    72   35   36 2    
    73   35   37 1    
    74   37   38 1    
    75   37   39 1    
    76   37  160 1    
    77   38  161 1    
    78   38  162 1    
    79   38  163 1    
    80   39   40 am   BACKBONE|DICT|INTERRES
    81   39  164 1    
    82   40   41 2    
    83   40   42 1    
    84   42   43 1    
    85   42   44 1    
    86   42  165 1    
    87   43  166 1    
    88   43  167 1    
    89   43  168 1    
    90   44   45 am   BACKBONE|DICT|INTERRES
    91   44  169 1    
    92   45   46 2    
    93   45   47 1    
    94   47   48 1    
    95   47   49 1    
    96   47  170 1    
    97   48  171 1    
    98   48  172 1    
    99   48  173 1    
   100   49   50 am   BACKBONE|DICT|INTERRES
   101   49  174 1    
   102   50   51 2    
   103   50   52 1    
   104   52   53 1    
   105   52   54 1    
   106   52  175 1    
   107   53  176 1    
   108   53  177 1    
   109   53  178 1    
   110   54   55 am   BACKBONE|DICT|INTERRES
   111   54  179 1    
   112   55   56 2    
   113   55   57 1    
   114   57   58 1    
   115   57   59 1    
   116   57  180 1    
   117   58  181 1    
   118   58  182 1    
   119   58  183 1    
   120   59   60 am   BACKBONE|DICT|INTERRES
   121   59  184 1    
   122   60   61 2    
   123   60   62 1    
   124   62   63 1    
   125   62   64 1    
   126   62  185 1    
   127   63  186 1    
   128   63  187 1    
   129   63  188 1    
   130   64   65 am   BACKBONE|DICT|INTERRES
   131   64  189 1    
   132   65   66 2    
   133   67   68 2    
   134   67   69 am   BACKBONE|DICT|INTERRES
   135   69   70 1    
   136   69  190 1    
   137   70   71 1    
   138   70   72 1    
   139   70  191 1    
   140   71  192 1    
   141   71  193 1    
   142   71  194 1    
   143   72   73 2    
   144   72   74 am   BACKBONE|DICT|INTERRES
   145   74   75 1    
   146   74  195 1    
   147   75   76 1    
   148   75   77 1    
   149   75  196 1    
   150   76  197 1    
   151   76  198 1    
   152   76  199 1    
   153   77   78 2    
   154   77   79 am   BACKBONE|DICT|INTERRES
   155   79   80 1    
   156   79  200 1    
   157   80   81 1    
   158   80   82 1    
   159   80  201 1    
   160   81  202 1    
   161   81  203 1    
   162   81  204 1    
   163   82   83 2    
   164   82   84 am   BACKBONE|DICT|INTERRES
   165   84   85 1    
   166   84  205 1    
   167   85   86 1    
   168   85   87 1    
   169   85  206 1    
   170   86  207 1    
   171   86  208 1    
   172   86  209 1    
   173   87   88 2    
   174   87   89 am   BACKBONE|DICT|INTERRES
   175   89   90 1    
   176   89  210 1    
   177   90   91 1    
   178   90   92 1    
   179   90  211 1    
   180   91  212 1    
   181   91  213 1    
   182   91  214 1    
   183   92   93 2    
   184   92   94 am   BACKBONE|DICT|INTERRES
   185   94   95 1    
   186   94  215 1    
   187   95   96 1    
   188   95   97 1    
   189   95  216 1    
   190   96  217 1    
   191   96  218 1    
   192   96  219 1    
   193   97   98 2    
   194   97   99 am   BACKBONE|DICT|INTERRES
   195   99  100 1    
   196   99  220 1    
   197  100  101 1    
   198  100  102 1    
   199  100  221 1    
   200  101  222 1    
   201  101  223 1    
   202  101  224 1    
   203  102  103 2    
   204  102  104 am   BACKBONE|DICT|INTERRES
   205  104  105 1    
   206  104  225 1    
   207  105  106 1    
   208  105  107 1    
   209  105  226 1    
   210  106  227 1    
   211  106  228 1    
   212  106  229 1    
   213  107  108 2    
   214  107  109 am   BACKBONE|DICT|INTERRES
   215  109  110 1    
   216  109  230 1    
   217  110  111 1    
   218  110  112 1    
   219  110  231 1    
   220  111  232 1    
   221  111  233 1    
   222  111  234 1    
   223  112  113 2    
   224  112  114 am   BACKBONE|DICT|INTERRES
   225  114  115 1    
   226  114  235 1    
   227  115  116 1    
   228  115  117 1    
   229  115  236 1    
   230  116  237 1    
   231  116  238 1    
   232  116  239 1    
   233  117  118 2    
   234  117  119 am   BACKBONE|DICT|INTERRES
   235  119  120 1    
   236  119  240 1    
   237  120  121 1    
   238  120  124 1    
   239  120  241 1    
   240  121  122 am   BACKBONE|DICT|INTERRES
   241  121  123 2    
   242  122  242 1    
   243  122  243 1    
   244  124  125 1    
   245  124  244 1    
   246  124  245 1    
   247  125  126 1    
   248  126  246 1    
   249  126  247 1    
@<TRIPOS>SUBSTRUCTURE
     1 UNK         1 GROUP             0       ****    0 ROOT    
