@<TRIPOS>MOLECULE
3R540
247   249    1
SMALL
USER_CHARGES


@<TRIPOS>ATOM
      1 CA         -2.1232  -13.9960  -52.8605 C.3       0 UNK        -0.1800 
      2 C          -1.7735  -13.9459  -51.3805 C.2       0 UNK         0.5000 
      3 O          -2.5743  -14.3663  -50.5472 O.2       0 UNK        -0.5000 
      4 N          -0.5906  -13.4087  -51.0533 N.am      1 UNK        -0.5000 
      5 CA          0.0280  -13.3020  -49.7193 C.3       1 UNK         0.1400 
      6 C6          0.2002  -14.6613  -48.9952 C.3       23 UNK        -0.0398 
      7 S7          1.2348  -15.8404  -49.9180 S.3       23 UNK        -0.2404 
      8 C8          0.7164  -17.3847  -49.1151 C.3       23 UNK        -0.0205 
      9 C9          1.5541  -18.5600  -49.5869 C.ar      23 UNK        -0.0193 
     10 C10         1.2169  -19.2380  -50.7604 C.ar      23 UNK        -0.1150 
     11 C11         1.9743  -20.3296  -51.1968 C.ar      23 UNK        -0.0193 
     12 C12         3.0799  -20.7399  -50.4435 C.ar      23 UNK        -0.1150 
     13 C13         3.4314  -20.0647  -49.2696 C.ar      23 UNK        -0.0193 
     14 C14         2.6639  -18.9756  -48.8472 C.ar      23 UNK        -0.1150 
     15 C15         4.6511  -20.4920  -48.4645 C.3       23 UNK        -0.0205 
     16 S16         4.1931  -21.2975  -46.8967 S.3       23 UNK        -0.2404 
     17 C17         3.4591  -22.8579  -47.4917 C.3       23 UNK        -0.0398 
     18 CA          3.7237  -24.0548  -46.5411 C.3       11 UNK         0.1400 
     19 N           3.2621  -23.7836  -45.1748 N.am      11 UNK        -0.5000 
     20 C           3.7047  -24.3933  -44.0669 C.2       10 UNK         0.5000 
     21 O           4.6326  -25.2020  -44.0550 O.2       10 UNK        -0.5000 
     22 CA          2.9492  -24.0790  -42.7608 C.3       10 UNK         0.1400 
     23 CB          3.6821  -22.9905  -41.9623 C.3       10 UNK        -0.1800 
     24 N           1.5622  -23.6637  -43.0011 N.am      10 UNK        -0.5000 
     25 C           0.5839  -24.4933  -43.3999 C.2       9 UNK         0.5000 
     26 O           0.7491  -25.7005  -43.5705 O.2       9 UNK        -0.5000 
     27 CA         -0.7897  -23.8733  -43.7291 C.3       9 UNK         0.1400 
     28 CB         -1.6882  -23.8570  -42.4844 C.3       9 UNK        -0.1800 
     29 N          -0.6827  -22.5215  -44.2796 N.am      9 UNK        -0.5000 
     30 C          -0.0983  -22.2267  -45.4489 C.2       8 UNK         0.5000 
     31 O           0.2471  -23.0884  -46.2605 O.2       8 UNK        -0.5000 
     32 CA          0.2114  -20.7409  -45.7364 C.3       8 UNK         0.1400 
     33 CB         -0.6096  -20.2208  -46.9188 C.3       8 UNK        -0.1800 
     34 N           0.0448  -19.8312  -44.5956 N.am      8 UNK        -0.5000 
     35 C           0.7988  -19.8479  -43.4858 C.2       7 UNK         0.5000 
     36 O           1.6178  -20.7345  -43.2466 O.2       7 UNK        -0.5000 
     37 CA          0.6206  -18.7047  -42.4697 C.3       7 UNK         0.1400 
     38 CB          1.8794  -17.8236  -42.4352 C.3       7 UNK        -0.1800 
     39 N          -0.5420  -17.8595  -42.7500 N.am      7 UNK        -0.5000 
     40 C          -1.7778  -18.0960  -42.2849 C.2       6 UNK         0.5000 
     41 O          -2.0652  -19.0744  -41.5964 O.2       6 UNK        -0.5000 
     42 CA         -2.8831  -17.0792  -42.6421 C.3       6 UNK         0.1400 
     43 CB         -3.1189  -16.1103  -41.4742 C.3       6 UNK        -0.1800 
     44 N          -2.5843  -16.3019  -43.8442 N.am      6 UNK        -0.5000 
     45 C          -2.5750  -16.7939  -45.0892 C.2       5 UNK         0.5000 
     46 O          -2.9460  -17.9340  -45.3654 O.2       5 UNK        -0.5000 
     47 CA         -2.0484  -15.8791  -46.2113 C.3       5 UNK         0.1400 
     48 CB         -3.2077  -15.4029  -47.0943 C.3       5 UNK        -0.1800 
     49 N          -1.2855  -14.7197  -45.7338 N.am      5 UNK        -0.5000 
     50 C          -0.0995  -14.7972  -45.1077 C.2       4 UNK         0.5000 
     51 O           0.4423  -15.8703  -44.8432 O.2       4 UNK        -0.5000 
     52 CA          0.5924  -13.4867  -44.6831 C.3       4 UNK         0.1400 
     53 CB          1.9313  -13.3029  -45.4151 C.3       4 UNK        -0.1800 
     54 N          -0.2396  -12.3007  -44.8931 N.am      4 UNK        -0.5000 
     55 C          -1.1787  -11.8770  -44.0348 C.2       3 UNK         0.5000 
     56 O          -1.4253  -12.4397  -42.9675 O.2       3 UNK        -0.5000 
     57 CA         -2.0005  -10.6362  -44.4418 C.3       3 UNK         0.1400 
     58 CB         -1.3881   -9.3648  -43.8353 C.3       3 UNK        -0.1800 
     59 N          -2.1310  -10.4584  -45.8906 N.am      3 UNK        -0.5000 
     60 C          -2.7440  -11.3174  -46.7158 C.2       2 UNK         0.5000 
     61 O          -3.2742  -12.3585  -46.3299 O.2       2 UNK        -0.5000 
     62 CA         -2.7333  -10.9971  -48.2252 C.3       2 UNK         0.1400 
     63 CB         -2.2960   -9.5538  -48.5616 C.3       2 UNK        -0.1800 
     64 N          -1.9224  -11.9623  -48.9747 N.am      2 UNK        -0.5000 
     65 C          -0.6312  -12.2658  -48.7790 C.2       1 UNK         0.5000 
     66 O           0.0568  -11.7504  -47.8961 O.2       1 UNK        -0.5000 
     67 C           3.0790  -25.3365  -47.1199 C.2       11 UNK         0.5000 
     68 O           3.4675  -25.7602  -48.2086 O.2       11 UNK        -0.5000 
     69 N           2.0876  -25.9024  -46.4092 N.am      12 UNK        -0.5000 
     70 CA          1.2157  -27.0152  -46.8016 C.3       12 UNK         0.1400 
     71 CB          2.0223  -28.3154  -46.9996 C.3       12 UNK        -0.1800 
     72 C           0.3116  -26.6739  -48.0061 C.2       12 UNK         0.5000 
     73 O          -0.1290  -27.5771  -48.7189 O.2       12 UNK        -0.5000 
     74 N           0.0452  -25.3759  -48.2061 N.am      13 UNK        -0.5000 
     75 CA         -0.7387  -24.8393  -49.3186 C.3       13 UNK         0.1400 
     76 CB          0.0105  -23.6222  -49.8818 C.3       13 UNK        -0.1800 
     77 C          -2.1808  -24.4785  -48.9048 C.2       13 UNK         0.5000 
     78 O          -2.9832  -24.1556  -49.7794 O.2       13 UNK        -0.5000 
     79 N          -2.4729  -24.5748  -47.5981 N.am      14 UNK        -0.5000 
     80 CA         -3.7179  -24.2606  -46.8887 C.3       14 UNK         0.1400 
     81 CB         -4.9617  -24.8917  -47.5442 C.3       14 UNK        -0.1800 
     82 C          -3.8922  -22.7504  -46.6480 C.2       14 UNK         0.5000 
     83 O          -3.8072  -21.9463  -47.5765 O.2       14 UNK        -0.5000 
     84 N          -4.1293  -22.3966  -45.3802 N.am      15 UNK        -0.5000 
     85 CA         -4.2922  -21.0241  -44.9062 C.3       15 UNK         0.1400 
     86 CB         -4.2047  -21.0270  -43.3708 C.3       15 UNK        -0.1800 
     87 C          -5.5987  -20.3532  -45.3751 C.2       15 UNK         0.5000 
     88 O          -6.5072  -21.0216  -45.8732 O.2       15 UNK        -0.5000 
     89 N          -5.6634  -19.0331  -45.1563 N.am      16 UNK        -0.5000 
     90 CA         -6.7972  -18.1371  -45.4085 C.3       16 UNK         0.1400 
     91 CB         -8.0484  -18.5622  -44.6107 C.3       16 UNK        -0.1800 
     92 C          -7.0616  -17.9312  -46.9117 C.2       16 UNK         0.5000 
     93 O          -8.2118  -17.9235  -47.3519 O.2       16 UNK        -0.5000 
     94 N          -5.9652  -17.7534  -47.6621 N.am      17 UNK        -0.5000 
     95 CA         -5.9001  -17.4114  -49.0887 C.3       17 UNK         0.1400 
     96 CB         -6.5922  -16.0637  -49.3790 C.3       17 UNK        -0.1800 
     97 C          -6.3485  -18.5301  -50.0479 C.2       17 UNK         0.5000 
     98 O          -6.4714  -18.2787  -51.2464 O.2       17 UNK        -0.5000 
     99 N          -6.4998  -19.7632  -49.5439 N.am      18 UNK        -0.5000 
    100 CA        -6.6590  -20.9673  -50.3663 C.3       18 UNK         0.1400 
    101 CB        -7.0386  -22.1490  -49.4628 C.3       18 UNK        -0.1800 
    102 C         -5.3852  -21.2760  -51.1820 C.2       18 UNK         0.5000 
    103 O         -5.4741  -21.7575  -52.3117 O.2       18 UNK        -0.5000 
    104 N         -4.2285  -20.9293  -50.6038 N.am      19 UNK        -0.5000 
    105 CA        -2.8959  -21.0484  -51.1856 C.3       19 UNK         0.1400 
    106 CB        -1.8778  -20.7734  -50.0770 C.3       19 UNK        -0.1800 
    107 C         -2.6143  -20.1054  -52.3677 C.2       19 UNK         0.5000 
    108 O         -1.6552  -20.3490  -53.0981 O.2       19 UNK        -0.5000 
    109 N         -3.4267  -19.0510  -52.5469 N.am      20 UNK        -0.5000 
    110 CA        -3.2351  -17.9882  -53.5447 C.3       20 UNK         0.1400 
    111 CB        -4.3408  -16.9353  -53.3803 C.3       20 UNK        -0.1800 
    112 C         -3.1605  -18.4737  -55.0079 C.2       20 UNK         0.5000 
    113 O         -2.6101  -17.7688  -55.8556 O.2       20 UNK        -0.5000 
    114 N         -3.6612  -19.6900  -55.2647 N.am      21 UNK        -0.5000 
    115 CA        -3.5435  -20.4294  -56.5201 C.3       21 UNK         0.1400 
    116 CB        -4.2969  -21.7607  -56.3762 C.3       21 UNK        -0.1800 
    117 C         -2.0924  -20.6791  -56.9880 C.2       21 UNK         0.5000 
    118 O         -1.8929  -20.8868  -58.1860 O.2       21 UNK        -0.5000 
    119 N         -1.1077  -20.6391  -56.0735 N.am      22 UNK        -0.5000 
    120 CA         0.3240  -20.6779  -56.4237 C.3       22 UNK         0.1400 
    121 C          0.8730  -19.3748  -57.0850 C.2       22 UNK         0.5000 
    122 N          0.1384  -18.2668  -57.1005 N.am      22 UNK        -0.7600 
    123 O          1.9820  -19.3763  -57.6129 O.2       22 UNK        -0.5000 
    124 C124        1.2179  -21.1943  -55.2611 C.3       23 UNK        -0.0398 
    125 S125        1.5727  -19.9908  -53.9298 S.3       23 UNK        -0.2404 
    126 C126        1.5846  -21.0770  -52.4666 C.3       23 UNK        -0.0205 
    127 H127       -3.1639  -13.7100  -53.0136 H         1 UNK         0.0600 
    128 H128       -1.9853  -15.0069  -53.2421 H         1 UNK         0.0600 
    129 H129       -1.4973  -13.3217  -53.4454 H         1 UNK         0.0600 
    130 H130       -0.0103  -13.0577  -51.8023 H         1 UNK         0.3000 
    131 H131        1.0300  -12.9129  -49.9077 H         1 UNK         0.0600 
    132 H132        0.6688  -14.5240  -48.0211 H         1 UNK         0.0800 
    133 H133       -0.7706  -15.1169  -48.8055 H         1 UNK         0.0800 
    134 H134        0.8048  -17.2737  -48.0330 H         1 UNK         0.0800 
    135 H135       -0.3381  -17.5707  -49.3258 H         1 UNK         0.0800 
    136 H136        0.3613  -18.9173  -51.3387 H         1 UNK         0.1150 
    137 H137        3.6702  -21.5835  -50.7726 H         1 UNK         0.1150 
    138 H138        2.9327  -18.4524  -47.9402 H         1 UNK         0.1150 
    139 H139        5.2906  -21.1579  -49.0459 H         1 UNK         0.0800 
    140 H140        5.2554  -19.6115  -48.2415 H         1 UNK         0.0800 
    141 H141        2.3912  -22.6946  -47.6382 H         1 UNK         0.0800 
    142 H142        3.8653  -23.0761  -48.4809 H         1 UNK         0.0800 
    143 H143        4.8017  -24.2270  -46.5117 H         1 UNK         0.0600 
    144 H144        2.5053  -23.1219  -45.0871 H         1 UNK         0.3000 
    145 H145        2.9339  -24.9893  -42.1576 H         1 UNK         0.0600 
    146 H146        3.1517  -22.7495  -41.0409 H         1 UNK         0.0600 
    147 H147        3.7916  -22.0712  -42.5384 H         1 UNK         0.0600 
    148 H148        4.6836  -23.3212  -41.6848 H         1 UNK         0.0600 
    149 H149        1.3792  -22.6666  -42.9362 H         1 UNK         0.3000 
    150 H150       -1.2627  -24.5094  -44.4800 H         1 UNK         0.0600 
    151 H151       -1.7209  -24.8398  -42.0119 H         1 UNK         0.0600 
    152 H152       -2.7136  -23.5954  -42.7418 H         1 UNK         0.0600 
    153 H153       -1.3326  -23.1456  -41.7380 H         1 UNK         0.0600 
    154 H154       -0.9231  -21.7573  -43.6662 H         1 UNK         0.3000 
    155 H155        1.2631  -20.6945  -46.0257 H         1 UNK         0.0600 
    156 H156       -0.3140  -20.7403  -47.8289 H         1 UNK         0.0600 
    157 H157       -0.4411  -19.1581  -47.0861 H         1 UNK         0.0600 
    158 H158       -1.6788  -20.3713  -46.7760 H         1 UNK         0.0600 
    159 H159       -0.6277  -19.0859  -44.7049 H         1 UNK         0.3000 
    160 H160        0.5079  -19.1613  -41.4841 H         1 UNK         0.0600 
    161 H161        2.0933  -17.3854  -43.4104 H         1 UNK         0.0600 
    162 H162        2.7543  -18.4049  -42.1411 H         1 UNK         0.0600 
    163 H163        1.7741  -17.0106  -41.7167 H         1 UNK         0.0600 
    164 H164       -0.3736  -17.0533  -43.3419 H         1 UNK         0.3000 
    165 H165       -3.8054  -17.6377  -42.8122 H         1 UNK         0.0600 
    166 H166       -3.9461  -15.4323  -41.6853 H         1 UNK         0.0600 
    167 H167       -3.3686  -16.6516  -40.5606 H         1 UNK         0.0600 
    168 H168       -2.2343  -15.5062  -41.2676 H         1 UNK         0.0600 
    169 H169       -2.2862  -15.3470  -43.7055 H         1 UNK         0.3000 
    170 H170       -1.3788  -16.4826  -46.8269 H         1 UNK         0.0600 
    171 H171       -4.0058  -14.9473  -46.5070 H         1 UNK         0.0600 
    172 H172       -2.8815  -14.6731  -47.8342 H         1 UNK         0.0600 
    173 H173       -3.6350  -16.2398  -47.6406 H         1 UNK         0.0600 
    174 H174       -1.7106  -13.8113  -45.8791 H         1 UNK         0.3000 
    175 H175        0.8141  -13.5804  -43.6179 H         1 UNK         0.0600 
    176 H176        1.7983  -13.1768  -46.4885 H         1 UNK         0.0600 
    177 H177        2.4634  -12.4277  -45.0423 H         1 UNK         0.0600 
    178 H178        2.5832  -14.1646  -45.2649 H         1 UNK         0.0600 
    179 H179       -0.1211  -11.8153  -45.7762 H         1 UNK         0.3000 
    180 H180       -3.0043  -10.7616  -44.0306 H         1 UNK         0.0600 
    181 H181       -2.0070   -8.4912  -44.0409 H         1 UNK         0.0600 
    182 H182       -0.3901   -9.1712  -44.2307 H         1 UNK         0.0600 
    183 H183       -1.3008   -9.4514  -42.7514 H         1 UNK         0.0600 
    184 H184       -1.6906   -9.6417  -46.2886 H         1 UNK         0.3000 
    185 H185       -3.7611  -11.1203  -48.5694 H         1 UNK         0.0600 
    186 H186       -2.3928   -9.3606  -49.6301 H         1 UNK         0.0600 
    187 H187       -2.9215   -8.8226  -48.0480 H         1 UNK         0.0600 
    188 H188       -1.2586   -9.3587  -48.2878 H         1 UNK         0.0600 
    189 H189       -2.4180  -12.5175  -49.6632 H         1 UNK         0.3000 
    190 H190        1.8609  -25.4874  -45.5150 H         1 UNK         0.3000 
    191 H191        0.5406  -27.1771  -45.9603 H         1 UNK         0.0600 
    192 H192        1.3583  -29.1719  -47.1213 H         1 UNK         0.0600 
    193 H193        2.6579  -28.5197  -46.1379 H         1 UNK         0.0600 
    194 H194        2.6584  -28.2699  -47.8838 H         1 UNK         0.0600 
    195 H195        0.4141  -24.6916  -47.5539 H         1 UNK         0.3000 
    196 H196       -0.8124  -25.5804  -50.1171 H         1 UNK         0.0600 
    197 H197       -0.5008  -23.2250  -50.7585 H         1 UNK         0.0600 
    198 H198        1.0201  -23.8903  -50.1939 H         1 UNK         0.0600 
    199 H199        0.0934  -22.8231  -49.1448 H         1 UNK         0.0600 
    200 H200       -1.7001  -24.8272  -47.0004 H         1 UNK         0.3000 
    201 H201       -3.6049  -24.7381  -45.9140 H         1 UNK         0.0600 
    202 H202       -5.1871  -24.4473  -48.5131 H         1 UNK         0.0600 
    203 H203       -5.8419  -24.7507  -46.9160 H         1 UNK         0.0600 
    204 H204       -4.8314  -25.9641  -47.6884 H         1 UNK         0.0600 
    205 H205       -4.2454  -23.1187  -44.6859 H         1 UNK         0.3000 
    206 H206       -3.4599  -20.4384  -45.2954 H         1 UNK         0.0600 
    207 H207       -3.2130  -21.3263  -43.0350 H         1 UNK         0.0600 
    208 H208       -4.3881  -20.0369  -42.9536 H         1 UNK         0.0600 
    209 H209       -4.9341  -21.7049  -42.9261 H         1 UNK         0.0600 
    210 H210       -4.8165  -18.5801  -44.8308 H         1 UNK         0.3000 
    211 H211       -6.4938  -17.1611  -45.0266 H         1 UNK         0.0600 
    212 H212       -8.4712  -19.4970  -44.9794 H         1 UNK         0.0600 
    213 H213       -8.8294  -17.8043  -44.6807 H         1 UNK         0.0600 
    214 H214       -7.8169  -18.6917  -43.5535 H         1 UNK         0.0600 
    215 H215       -5.0730  -17.8350  -47.1949 H         1 UNK         0.3000 
    216 H216       -4.8412  -17.2738  -49.3093 H         1 UNK         0.0600 
    217 H217       -6.3953  -15.7347  -50.4002 H         1 UNK         0.0600 
    218 H218       -6.2253  -15.2815  -48.7143 H         1 UNK         0.0600 
    219 H219       -7.6740  -16.1274  -49.2615 H         1 UNK         0.0600 
    220 H220       -6.4020  -19.8979  -48.5474 H         1 UNK         0.3000 
    221 H221       -7.4745  -20.7992  -51.0728 H         1 UNK         0.0600 
    222 H222       -7.1268  -23.0717  -50.0377 H         1 UNK         0.0600 
    223 H223       -7.9964  -21.9765  -48.9717 H         1 UNK         0.0600 
    224 H224       -6.2927  -22.3134  -48.6855 H         1 UNK         0.0600 
    225 H225       -4.2596  -20.6243  -49.6411 H         1 UNK         0.3000 
    226 H226       -2.7663  -22.0724  -51.5403 H         1 UNK         0.0600 
    227 H227       -1.9921  -21.4833  -49.2618 H         1 UNK         0.0600 
    228 H228       -0.8615  -20.8831  -50.4469 H         1 UNK         0.0600 
    229 H229       -1.9775  -19.7668  -49.6691 H         1 UNK         0.0600 
    230 H230       -4.2242  -18.9506  -51.9349 H         1 UNK         0.3000 
    231 H231       -2.2777  -17.5129  -53.3228 H         1 UNK         0.0600 
    232 H232       -4.2052  -16.1106  -54.0810 H         1 UNK         0.0600 
    233 H233       -4.3375  -16.5103  -52.3760 H         1 UNK         0.0600 
    234 H234       -5.3282  -17.3605  -53.5637 H         1 UNK         0.0600 
    235 H235       -4.0777  -20.1900  -54.4923 H         1 UNK         0.3000 
    236 H236       -4.0353  -19.8374  -57.2943 H         1 UNK         0.0600 
    237 H237       -3.8672  -22.3807  -55.5882 H         1 UNK         0.0600 
    238 H238       -5.3481  -21.5965  -56.1383 H         1 UNK         0.0600 
    239 H239       -4.2606  -22.3345  -57.3032 H         1 UNK         0.0600 
    240 H240       -1.3304  -20.4681  -55.0972 H         1 UNK         0.3000 
    241 H241        0.4177  -21.4342  -57.2057 H         1 UNK         0.0600 
    242 H242        0.5068  -17.4378  -57.5387 H         1 UNK         0.3800 
    243 H243       -0.7791  -18.2381  -56.6704 H         1 UNK         0.3800 
    244 H244        2.1784  -21.5222  -55.6618 H         1 UNK         0.0800 
    245 H245        0.7646  -22.0872  -54.8284 H         1 UNK         0.0800 
    246 H246        0.5970  -21.5181  -52.3332 H         1 UNK         0.0800 
    247 H247        2.2713  -21.9051  -52.6483 H         1 UNK         0.0800 
@<TRIPOS>BOND
     1    1    2 1    
     2    1  127 1    
     3    1  128 1    
     4    1  129 1    
     5    2    3 2    
     6    2    4 am   BACKBONE|DICT|INTERRES
     7    4    5 1    
     8    4  130 1    
     9    5    6 1    
    10    5   65 1    
    11    5  131 1    
    12    6    7 1    
    13    6  132 1    
    14    6  133 1    
    15    7    8 1    
    16    8    9 1    
    17    8  134 1    
    18    8  135 1    
    19    9   10 ar   
    20    9   14 ar   
    21   10   11 ar   
    22   10  136 1    
    23   11   12 ar   
    24   11  126 1    
    25   12   13 ar   
    26   12  137 1    
    27   13   14 ar   
    28   13   15 1    
    29   14  138 1    
    30   15   16 1    
    31   15  139 1    
    32   15  140 1    
    33   16   17 1    
    34   17   18 1    
    35   17  141 1    
    36   17  142 1    
    37   18   19 1    
    38   18   67 1    
    39   18  143 1    
    40   19   20 am   BACKBONE|DICT|INTERRES
    41   19  144 1    
    42   20   21 2    
    43   20   22 1    
    44   22   23 1    
    45   22   24 1    
    46   22  145 1    
    47   23  146 1    
    48   23  147 1    
    49   23  148 1    
    50   24   25 am   BACKBONE|DICT|INTERRES
    51   24  149 1    
    52   25   26 2    
    53   25   27 1    
    54   27   28 1    
    55   27   29 1    
    56   27  150 1    
    57   28  151 1    
    58   28  152 1    
    59   28  153 1    
    60   29   30 am   BACKBONE|DICT|INTERRES
    61   29  154 1    
    62   30   31 2    
    63   30   32 1    
    64   32   33 1    
    65   32   34 1    
    66   32  155 1    
    67   33  156 1    
    68   33  157 1    
    69   33  158 1    
    70   34   35 am   BACKBONE|DICT|INTERRES
    71   34  159 1    
    72   35   36 2    
    73   35   37 1    
    74   37   38 1    
    75   37   39 1    
    76   37  160 1    
    77   38  161 1    
    78   38  162 1    
    79   38  163 1    
    80   39   40 am   BACKBONE|DICT|INTERRES
    81   39  164 1    
    82   40   41 2    
    83   40   42 1    
    84   42   43 1    
    85   42   44 1    
    86   42  165 1    
    87   43  166 1    
    88   43  167 1    
    89   43  168 1    
    90   44   45 am   BACKBONE|DICT|INTERRES
    91   44  169 1    
    92   45   46 2    
    93   45   47 1    
    94   47   48 1    
    95   47   49 1    
    96   47  170 1    
    97   48  171 1    
    98   48  172 1    
    99   48  173 1    
   100   49   50 am   BACKBONE|DICT|INTERRES
   101   49  174 1    
   102   50   51 2    
   103   50   52 1    
   104   52   53 1    
   105   52   54 1    
   106   52  175 1    
   107   53  176 1    
   108   53  177 1    
   109   53  178 1    
   110   54   55 am   BACKBONE|DICT|INTERRES
   111   54  179 1    
   112   55   56 2    
   113   55   57 1    
   114   57   58 1    
   115   57   59 1    
   116   57  180 1    
   117   58  181 1    
   118   58  182 1    
   119   58  183 1    
   120   59   60 am   BACKBONE|DICT|INTERRES
   121   59  184 1    
   122   60   61 2    
   123   60   62 1    
   124   62   63 1    
   125   62   64 1    
   126   62  185 1    
   127   63  186 1    
   128   63  187 1    
   129   63  188 1    
   130   64   65 am   BACKBONE|DICT|INTERRES
   131   64  189 1    
   132   65   66 2    
   133   67   68 2    
   134   67   69 am   BACKBONE|DICT|INTERRES
   135   69   70 1    
   136   69  190 1    
   137   70   71 1    
   138   70   72 1    
   139   70  191 1    
   140   71  192 1    
   141   71  193 1    
   142   71  194 1    
   143   72   73 2    
   144   72   74 am   BACKBONE|DICT|INTERRES
   145   74   75 1    
   146   74  195 1    
   147   75   76 1    
   148   75   77 1    
   149   75  196 1    
   150   76  197 1    
   151   76  198 1    
   152   76  199 1    
   153   77   78 2    
   154   77   79 am   BACKBONE|DICT|INTERRES
   155   79   80 1    
   156   79  200 1    
   157   80   81 1    
   158   80   82 1    
   159   80  201 1    
   160   81  202 1    
   161   81  203 1    
   162   81  204 1    
   163   82   83 2    
   164   82   84 am   BACKBONE|DICT|INTERRES
   165   84   85 1    
   166   84  205 1    
   167   85   86 1    
   168   85   87 1    
   169   85  206 1    
   170   86  207 1    
   171   86  208 1    
   172   86  209 1    
   173   87   88 2    
   174   87   89 am   BACKBONE|DICT|INTERRES
   175   89   90 1    
   176   89  210 1    
   177   90   91 1    
   178   90   92 1    
   179   90  211 1    
   180   91  212 1    
   181   91  213 1    
   182   91  214 1    
   183   92   93 2    
   184   92   94 am   BACKBONE|DICT|INTERRES
   185   94   95 1    
   186   94  215 1    
   187   95   96 1    
   188   95   97 1    
   189   95  216 1    
   190   96  217 1    
   191   96  218 1    
   192   96  219 1    
   193   97   98 2    
   194   97   99 am   BACKBONE|DICT|INTERRES
   195   99  100 1    
   196   99  220 1    
   197  100  101 1    
   198  100  102 1    
   199  100  221 1    
   200  101  222 1    
   201  101  223 1    
   202  101  224 1    
   203  102  103 2    
   204  102  104 am   BACKBONE|DICT|INTERRES
   205  104  105 1    
   206  104  225 1    
   207  105  106 1    
   208  105  107 1    
   209  105  226 1    
   210  106  227 1    
   211  106  228 1    
   212  106  229 1    
   213  107  108 2    
   214  107  109 am   BACKBONE|DICT|INTERRES
   215  109  110 1    
   216  109  230 1    
   217  110  111 1    
   218  110  112 1    
   219  110  231 1    
   220  111  232 1    
   221  111  233 1    
   222  111  234 1    
   223  112  113 2    
   224  112  114 am   BACKBONE|DICT|INTERRES
   225  114  115 1    
   226  114  235 1    
   227  115  116 1    
   228  115  117 1    
   229  115  236 1    
   230  116  237 1    
   231  116  238 1    
   232  116  239 1    
   233  117  118 2    
   234  117  119 am   BACKBONE|DICT|INTERRES
   235  119  120 1    
   236  119  240 1    
   237  120  121 1    
   238  120  124 1    
   239  120  241 1    
   240  121  122 am   BACKBONE|DICT|INTERRES
   241  121  123 2    
   242  122  242 1    
   243  122  243 1    
   244  124  125 1    
   245  124  244 1    
   246  124  245 1    
   247  125  126 1    
   248  126  246 1    
   249  126  247 1    
@<TRIPOS>SUBSTRUCTURE
     1 UNK         1 GROUP             0       ****    0 ROOT    
