@<TRIPOS>MOLECULE
3R540
247   249    1
SMALL
USER_CHARGES


@<TRIPOS>ATOM
      1 CA          8.7103  -15.5970  -49.3111 C.3       0 UNK        -0.1800 
      2 C           7.5547  -14.7718  -48.7622 C.2       0 UNK         0.5000 
      3 O           7.4961  -13.5647  -48.9994 O.2       0 UNK        -0.5000 
      4 N           6.6438  -15.4149  -48.0231 N.am      1 UNK        -0.5000 
      5 CA          5.4204  -14.8170  -47.4819 C.3       1 UNK         0.1400 
      6 C6          4.8215  -15.6747  -46.3363 C.3       23 UNK        -0.0398 
      7 S7          4.5486  -17.4366  -46.7506 S.3       23 UNK        -0.2404 
      8 C8          4.7760  -18.2193  -45.1202 C.3       23 UNK        -0.0205 
      9 C9          4.3148  -19.6712  -45.1226 C.ar      23 UNK        -0.0193 
     10 C10         3.1707  -20.0533  -44.4139 C.ar      23 UNK        -0.1150 
     11 C11         2.7246  -21.3775  -44.4392 C.ar      23 UNK        -0.0193 
     12 C12         3.4512  -22.3320  -45.1558 C.ar      23 UNK        -0.1150 
     13 C13         4.6007  -21.9662  -45.8629 C.ar      23 UNK        -0.0193 
     14 C14         5.0289  -20.6354  -45.8393 C.ar      23 UNK        -0.1150 
     15 C15         5.3819  -23.0085  -46.6503 C.3       23 UNK        -0.0205 
     16 S16         4.4159  -23.7226  -48.0200 S.3       23 UNK        -0.2404 
     17 C17         4.2297  -22.2996  -49.1491 C.3       23 UNK        -0.0398 
     18 CA          2.9166  -22.3900  -49.9634 C.3       11 UNK         0.1400 
     19 N           1.7282  -22.2811  -49.1162 N.am      11 UNK        -0.5000 
     20 C           0.7149  -23.1557  -49.1185 C.2       10 UNK         0.5000 
     21 O           0.6724  -24.1700  -49.8150 O.2       10 UNK        -0.5000 
     22 CA         -0.4845  -22.8081  -48.2180 C.3       10 UNK         0.1400 
     23 CB         -0.1934  -23.2115  -46.7678 C.3       10 UNK        -0.1800 
     24 N          -0.8410  -21.3874  -48.2485 N.am      10 UNK        -0.5000 
     25 C          -1.0949  -20.6565  -49.3431 C.2       9 UNK         0.5000 
     26 O          -1.1326  -21.1221  -50.4802 O.2       9 UNK        -0.5000 
     27 CA         -1.2835  -19.1396  -49.1572 C.3       9 UNK         0.1400 
     28 CB         -2.7653  -18.7459  -49.2379 C.3       9 UNK        -0.1800 
     29 N          -0.7118  -18.5861  -47.9277 N.am      9 UNK        -0.5000 
     30 C           0.5723  -18.6699  -47.5448 C.2       8 UNK         0.5000 
     31 O           1.4258  -19.3316  -48.1391 O.2       8 UNK        -0.5000 
     32 CA          0.9453  -17.8913  -46.2810 C.3       8 UNK         0.1400 
     33 CB          1.1401  -16.4083  -46.6353 C.3       8 UNK        -0.1800 
     34 N          -0.0915  -18.0359  -45.2635 N.am      8 UNK        -0.5000 
     35 C          -0.0320  -17.5930  -44.0043 C.2       7 UNK         0.5000 
     36 O           0.9845  -17.1281  -43.4871 O.2       7 UNK        -0.5000 
     37 CA         -1.3633  -17.6284  -43.2243 C.3       7 UNK         0.1400 
     38 CB         -1.2349  -17.0962  -41.7869 C.3       7 UNK        -0.1800 
     39 N          -2.4041  -16.8711  -43.9191 N.am      7 UNK        -0.5000 
     40 C          -3.0620  -17.2354  -45.0264 C.2       6 UNK         0.5000 
     41 O          -2.9582  -18.3501  -45.5444 O.2       6 UNK        -0.5000 
     42 CA         -3.8987  -16.1493  -45.7265 C.3       6 UNK         0.1400 
     43 CB         -5.2658  -15.9619  -45.0440 C.3       6 UNK        -0.1800 
     44 N          -3.1767  -14.8774  -45.8953 N.am      6 UNK        -0.5000 
     45 C          -2.7852  -13.9913  -44.9627 C.2       5 UNK         0.5000 
     46 O          -3.0343  -14.1142  -43.7627 O.2       5 UNK        -0.5000 
     47 CA         -1.9284  -12.7907  -45.4194 C.3       5 UNK         0.1400 
     48 CB         -0.4804  -12.9601  -44.9321 C.3       5 UNK        -0.1800 
     49 N          -1.9141  -12.5952  -46.8692 N.am      5 UNK        -0.5000 
     50 C          -2.9461  -12.1250  -47.5854 C.2       4 UNK         0.5000 
     51 O          -3.9918  -11.7162  -47.0797 O.2       4 UNK        -0.5000 
     52 CA         -2.8089  -12.1347  -49.1231 C.3       4 UNK         0.1400 
     53 CB         -2.4970  -10.7223  -49.6412 C.3       4 UNK        -0.1800 
     54 N          -1.7941  -13.0574  -49.6394 N.am      4 UNK        -0.5000 
     55 C          -1.7589  -14.3839  -49.4486 C.2       3 UNK         0.5000 
     56 O          -2.6076  -15.0090  -48.8123 O.2       3 UNK        -0.5000 
     57 CA         -0.5408  -15.1326  -50.0218 C.3       3 UNK         0.1400 
     58 CB         -0.8861  -15.6991  -51.4065 C.3       3 UNK        -0.1800 
     59 N           0.6899  -14.3343  -50.1177 N.am      3 UNK        -0.5000 
     60 C           1.2908  -13.6946  -49.1033 C.2       2 UNK         0.5000 
     61 O           0.8202  -13.6105  -47.9674 O.2       2 UNK        -0.5000 
     62 CA          2.6217  -12.9945  -49.4134 C.3       2 UNK         0.1400 
     63 CB          2.4567  -11.4688  -49.3309 C.3       2 UNK        -0.1800 
     64 N           3.6485  -13.4193  -48.4620 N.am      2 UNK        -0.5000 
     65 C           4.3968  -14.5212  -48.6039 C.2       1 UNK         0.5000 
     66 O           4.3107  -15.2775  -49.5741 O.2       1 UNK        -0.5000 
     67 C           2.8833  -21.3200  -51.0693 C.2       11 UNK         0.5000 
     68 O           3.3011  -21.6065  -52.1917 O.2       11 UNK        -0.5000 
     69 N           2.3909  -20.1130  -50.7533 N.am      12 UNK        -0.5000 
     70 CA          2.4351  -18.9554  -51.6483 C.3       12 UNK         0.1400 
     71 CB          2.2785  -17.6777  -50.8113 C.3       12 UNK        -0.1800 
     72 C           1.4074  -18.9892  -52.7977 C.2       12 UNK         0.5000 
     73 O           1.6131  -18.2909  -53.7911 O.2       12 UNK        -0.5000 
     74 N           0.3272  -19.7705  -52.6581 N.am      13 UNK        -0.5000 
     75 CA         -0.7685  -19.8482  -53.6301 C.3       13 UNK         0.1400 
     76 CB         -1.8401  -18.7991  -53.2787 C.3       13 UNK        -0.1800 
     77 C          -1.3513  -21.2690  -53.7506 C.2       13 UNK         0.5000 
     78 O          -2.4998  -21.4194  -54.1712 O.2       13 UNK        -0.5000 
     79 N          -0.5639  -22.2893  -53.3726 N.am      14 UNK        -0.5000 
     80 CA         -0.8965  -23.7217  -53.4168 C.3       14 UNK         0.1400 
     81 CB         -0.8843  -24.2233  -54.8755 C.3       14 UNK        -0.1800 
     82 C          -2.2053  -24.0761  -52.6725 C.2       14 UNK         0.5000 
     83 O          -3.0154  -24.8591  -53.1706 O.2       14 UNK        -0.5000 
     84 N          -2.3900  -23.4493  -51.5039 N.am      15 UNK        -0.5000 
     85 CA         -3.5360  -23.5118  -50.5924 C.3       15 UNK         0.1400 
     86 CB         -3.9328  -24.9563  -50.2284 C.3       15 UNK        -0.1800 
     87 C          -4.7451  -22.6616  -51.0166 C.2       15 UNK         0.5000 
     88 O          -5.7003  -22.5817  -50.2420 O.2       15 UNK        -0.5000 
     89 N          -4.6899  -22.0215  -52.1952 N.am      16 UNK        -0.5000 
     90 CA         -5.6946  -21.1035  -52.7465 C.3       16 UNK         0.1400 
     91 CB         -5.6494  -19.7611  -51.9871 C.3       16 UNK        -0.1800 
     92 C          -7.1124  -21.7149  -52.8064 C.2       16 UNK         0.5000 
     93 O          -8.0833  -21.0659  -52.4174 O.2       16 UNK        -0.5000 
     94 N          -7.1905  -22.9788  -53.2513 N.am      17 UNK        -0.5000 
     95 CA         -8.3906  -23.8273  -53.2798 C.3       17 UNK         0.1400 
     96 CB         -9.4467  -23.2701  -54.2583 C.3       17 UNK        -0.1800 
     97 C          -8.9530  -24.1102  -51.8675 C.2       17 UNK         0.5000 
     98 O         -10.1687  -24.1076  -51.6669 O.2       17 UNK        -0.5000 
     99 N          -8.0348  -24.3518  -50.9202 N.am      18 UNK        -0.5000 
    100 CA        -8.2519  -24.6381  -49.4973 C.3       18 UNK         0.1400 
    101 CB        -9.0798  -25.9260  -49.3018 C.3       18 UNK        -0.1800 
    102 C         -8.7950  -23.4373  -48.6924 C.2       18 UNK         0.5000 
    103 O         -9.4380  -23.6333  -47.6596 O.2       18 UNK        -0.5000 
    104 N         -8.5030  -22.2150  -49.1557 N.am      19 UNK        -0.5000 
    105 CA        -8.8095  -20.9657  -48.4547 C.3       19 UNK         0.1400 
    106 CB        -9.0536  -19.8588  -49.4914 C.3       19 UNK        -0.1800 
    107 C         -7.6908  -20.5479  -47.4786 C.2       19 UNK         0.5000 
    108 O         -7.9259  -19.6892  -46.6270 O.2       19 UNK        -0.5000 
    109 N         -6.4950  -21.1328  -47.6318 N.am      20 UNK        -0.5000 
    110 CA        -5.3055  -20.8594  -46.8268 C.3       20 UNK         0.1400 
    111 CB        -4.1171  -21.5830  -47.4686 C.3       20 UNK        -0.1800 
    112 C         -5.4186  -21.2832  -45.3511 C.2       20 UNK         0.5000 
    113 O         -6.2596  -22.1105  -44.9908 O.2       20 UNK        -0.5000 
    114 N         -4.5040  -20.7397  -44.5451 N.am      21 UNK        -0.5000 
    115 CA        -4.2651  -21.0853  -43.1489 C.3       21 UNK         0.1400 
    116 CB        -4.9409  -20.0218  -42.2621 C.3       21 UNK        -0.1800 
    117 C         -2.7437  -21.1530  -42.9138 C.2       21 UNK         0.5000 
    118 O         -1.9680  -21.0654  -43.8699 O.2       21 UNK        -0.5000 
    119 N         -2.3337  -21.2609  -41.6453 N.am      22 UNK        -0.5000 
    120 CA        -0.9385  -21.1178  -41.1946 C.3       22 UNK         0.1400 
    121 C         -0.8270  -20.5805  -39.7363 C.2       22 UNK         0.5000 
    122 N         -1.8401  -19.9056  -39.2039 N.am      22 UNK        -0.7600 
    123 O          0.1869  -20.7651  -39.0696 O.2       22 UNK        -0.5000 
    124 C124       -0.0770  -22.3823  -41.4791 C.3       23 UNK        -0.0398 
    125 S125        1.6406  -21.9649  -41.9463 S.3       23 UNK        -0.2404 
    126 C126        1.4308  -21.7625  -43.7388 C.3       23 UNK        -0.0205 
    127 H127        8.6380  -16.6435  -49.0137 H         1 UNK         0.0600 
    128 H128        9.6593  -15.2045  -48.9455 H         1 UNK         0.0600 
    129 H129        8.7183  -15.5530  -50.4002 H         1 UNK         0.0600 
    130 H130        6.7197  -16.4141  -47.8953 H         1 UNK         0.3000 
    131 H131        5.7011  -13.8560  -47.0450 H         1 UNK         0.0600 
    132 H132        3.8830  -15.2452  -45.9838 H         1 UNK         0.0800 
    133 H133        5.4985  -15.6287  -45.4821 H         1 UNK         0.0800 
    134 H134        4.2235  -17.6496  -44.3708 H         1 UNK         0.0800 
    135 H135        5.8282  -18.1708  -44.8367 H         1 UNK         0.0800 
    136 H136        2.6106  -19.3155  -43.8568 H         1 UNK         0.1150 
    137 H137        3.1127  -23.3584  -45.1828 H         1 UNK         0.1150 
    138 H138        5.9127  -20.3422  -46.3884 H         1 UNK         0.1150 
    139 H139        6.3070  -22.5877  -47.0475 H         1 UNK         0.0800 
    140 H140        5.6771  -23.8112  -45.9733 H         1 UNK         0.0800 
    141 H141        5.0973  -22.2897  -49.8113 H         1 UNK         0.0800 
    142 H142        4.2618  -21.3668  -48.5837 H         1 UNK         0.0800 
    143 H143        2.9222  -23.3541  -50.4768 H         1 UNK         0.0600 
    144 H144        1.6616  -21.4591  -48.5283 H         1 UNK         0.3000 
    145 H145       -1.3391  -23.3886  -48.5609 H         1 UNK         0.0600 
    146 H146        0.6719  -22.6722  -46.3852 H         1 UNK         0.0600 
    147 H147       -1.0412  -23.0015  -46.1147 H         1 UNK         0.0600 
    148 H148        0.0233  -24.2778  -46.6923 H         1 UNK         0.0600 
    149 H149       -0.8176  -20.9061  -47.3623 H         1 UNK         0.3000 
    150 H150       -0.7725  -18.6674  -49.9973 H         1 UNK         0.0600 
    151 H151       -3.2760  -19.2680  -50.0475 H         1 UNK         0.0600 
    152 H152       -2.8761  -17.6780  -49.4235 H         1 UNK         0.0600 
    153 H153       -3.2940  -18.9720  -48.3130 H         1 UNK         0.0600 
    154 H154       -1.3446  -18.0279  -47.3738 H         1 UNK         0.3000 
    155 H155        1.8796  -18.2948  -45.9020 H         1 UNK         0.0600 
    156 H156        1.8126  -16.2896  -47.4859 H         1 UNK         0.0600 
    157 H157        1.5704  -15.8504  -45.8048 H         1 UNK         0.0600 
    158 H158        0.1922  -15.9359  -46.8940 H         1 UNK         0.0600 
    159 H159       -0.9705  -18.4454  -45.5628 H         1 UNK         0.3000 
    160 H160       -1.6753  -18.6644  -43.1637 H         1 UNK         0.0600 
    161 H161       -2.1762  -17.1946  -41.2461 H         1 UNK         0.0600 
    162 H162       -0.9483  -16.0439  -41.7728 H         1 UNK         0.0600 
    163 H163       -0.4809  -17.6518  -41.2280 H         1 UNK         0.0600 
    164 H164       -2.5438  -15.9131  -43.6081 H         1 UNK         0.3000 
    165 H165       -4.0898  -16.5096  -46.7388 H         1 UNK         0.0600 
    166 H166       -5.1691  -15.6434  -44.0059 H         1 UNK         0.0600 
    167 H167       -5.8681  -15.2199  -45.5682 H         1 UNK         0.0600 
    168 H168       -5.8282  -16.8967  -45.0442 H         1 UNK         0.0600 
    169 H169       -2.8984  -14.6919  -46.8542 H         1 UNK         0.3000 
    170 H170       -2.3435  -11.8947  -44.9535 H         1 UNK         0.0600 
    171 H171       -0.0229  -13.8623  -45.3395 H         1 UNK         0.0600 
    172 H172        0.1379  -12.1110  -45.2241 H         1 UNK         0.0600 
    173 H173       -0.4377  -13.0348  -43.8448 H         1 UNK         0.0600 
    174 H174       -1.0789  -12.9050  -47.3553 H         1 UNK         0.3000 
    175 H175       -3.7728  -12.4464  -49.5303 H         1 UNK         0.0600 
    176 H176       -1.5262  -10.3712  -49.2887 H         1 UNK         0.0600 
    177 H177       -2.4905  -10.6931  -50.7309 H         1 UNK         0.0600 
    178 H178       -3.2476  -10.0061  -49.3037 H         1 UNK         0.0600 
    179 H179       -1.0388  -12.6407  -50.1630 H         1 UNK         0.3000 
    180 H180       -0.3332  -15.9688  -49.3524 H         1 UNK         0.0600 
    181 H181       -1.0982  -14.9050  -52.1234 H         1 UNK         0.0600 
    182 H182       -1.7689  -16.3377  -51.3557 H         1 UNK         0.0600 
    183 H183       -0.0741  -16.3016  -51.8108 H         1 UNK         0.0600 
    184 H184        1.1407  -14.3285  -51.0213 H         1 UNK         0.3000 
    185 H185        2.9372  -13.2467  -50.4282 H         1 UNK         0.0600 
    186 H186        3.3896  -10.9585  -49.5715 H         1 UNK         0.0600 
    187 H187        1.7035  -11.1185  -50.0379 H         1 UNK         0.0600 
    188 H188        2.1463  -11.1477  -48.3355 H         1 UNK         0.0600 
    189 H189        3.7359  -12.8607  -47.6255 H         1 UNK         0.3000 
    190 H190        2.0734  -19.9287  -49.8055 H         1 UNK         0.3000 
    191 H191        3.4254  -18.9243  -52.1080 H         1 UNK         0.0600 
    192 H192        1.3009  -17.6216  -50.3369 H         1 UNK         0.0600 
    193 H193        3.0300  -17.6306  -50.0228 H         1 UNK         0.0600 
    194 H194        2.4001  -16.7856  -51.4266 H         1 UNK         0.0600 
    195 H195        0.1987  -20.3082  -51.8083 H         1 UNK         0.3000 
    196 H196       -0.3874  -19.6174  -54.6268 H         1 UNK         0.0600 
    197 H197       -1.4313  -17.7915  -53.3379 H         1 UNK         0.0600 
    198 H198       -2.2279  -18.9497  -52.2717 H         1 UNK         0.0600 
    199 H199       -2.6838  -18.8380  -53.9685 H         1 UNK         0.0600 
    200 H200        0.3655  -22.0667  -53.0466 H         1 UNK         0.3000 
    201 H201       -0.0980  -24.2388  -52.8824 H         1 UNK         0.0600 
    202 H202       -1.0158  -25.3051  -54.9198 H         1 UNK         0.0600 
    203 H203        0.0630  -23.9933  -55.3633 H         1 UNK         0.0600 
    204 H204       -1.6830  -23.7712  -55.4645 H         1 UNK         0.0600 
    205 H205       -1.6966  -22.7528  -51.2409 H         1 UNK         0.3000 
    206 H206       -3.1841  -23.0460  -49.6774 H         1 UNK         0.0600 
    207 H207       -3.0644  -25.5383  -49.9200 H         1 UNK         0.0600 
    208 H208       -4.4087  -25.4734  -51.0616 H         1 UNK         0.0600 
    209 H209       -4.6395  -24.9666  -49.3978 H         1 UNK         0.0600 
    210 H210       -3.8582  -22.1349  -52.7649 H         1 UNK         0.3000 
    211 H211       -5.4040  -20.9081  -53.7796 H         1 UNK         0.0600 
    212 H212       -4.6615  -19.3080  -52.0565 H         1 UNK         0.0600 
    213 H213       -6.3589  -19.0457  -52.4045 H         1 UNK         0.0600 
    214 H214       -5.8875  -19.8842  -50.9303 H         1 UNK         0.0600 
    215 H215       -6.3308  -23.4261  -53.5388 H         1 UNK         0.3000 
    216 H216       -8.0679  -24.7934  -53.6704 H         1 UNK         0.0600 
    217 H217      -10.2670  -23.9767  -54.3889 H         1 UNK         0.0600 
    218 H218       -9.8786  -22.3340  -53.9038 H         1 UNK         0.0600 
    219 H219       -9.0157  -23.0896  -55.2429 H         1 UNK         0.0600 
    220 H220       -7.0646  -24.2530  -51.1841 H         1 UNK         0.3000 
    221 H221       -7.2600  -24.8321  -49.0871 H         1 UNK         0.0600 
    222 H222      -10.1182  -25.7922  -49.6055 H         1 UNK         0.0600 
    223 H223       -8.6645  -26.7535  -49.8769 H         1 UNK         0.0600 
    224 H224       -9.0850  -26.2319  -48.2550 H         1 UNK         0.0600 
    225 H225       -7.9463  -22.1408  -49.9983 H         1 UNK         0.3000 
    226 H226       -9.7260  -21.0889  -47.8741 H         1 UNK         0.0600 
    227 H227       -9.8431  -20.1380  -50.1894 H         1 UNK         0.0600 
    228 H228       -9.3594  -18.9304  -49.0075 H         1 UNK         0.0600 
    229 H229       -8.1552  -19.6451  -50.0705 H         1 UNK         0.0600 
    230 H230       -6.3868  -21.8105  -48.3767 H         1 UNK         0.3000 
    231 H231       -5.1230  -19.7831  -46.8566 H         1 UNK         0.0600 
    232 H232       -3.1976  -21.3935  -46.9149 H         1 UNK         0.0600 
    233 H233       -3.9633  -21.2384  -48.4886 H         1 UNK         0.0600 
    234 H234       -4.2696  -22.6627  -47.4929 H         1 UNK         0.0600 
    235 H235       -3.8079  -20.1136  -44.9409 H         1 UNK         0.3000 
    236 H236       -4.6797  -22.0701  -42.9249 H         1 UNK         0.0600 
    237 H237       -5.9999  -19.9269  -42.5030 H         1 UNK         0.0600 
    238 H238       -4.8785  -20.2808  -41.2051 H         1 UNK         0.0600 
    239 H239       -4.4824  -19.0403  -42.3931 H         1 UNK         0.0600 
    240 H240       -3.0146  -21.3830  -40.9092 H         1 UNK         0.3000 
    241 H241       -0.5224  -20.3010  -41.7863 H         1 UNK         0.0600 
    242 H242       -1.7508  -19.5675  -38.2580 H         1 UNK         0.3800 
    243 H243       -2.6654  -19.6748  -39.7313 H         1 UNK         0.3800 
    244 H244       -0.0606  -23.0487  -40.6153 H         1 UNK         0.0800 
    245 H245       -0.5107  -22.9732  -42.2867 H         1 UNK         0.0800 
    246 H246        0.6772  -20.9991  -43.9359 H         1 UNK         0.0800 
    247 H247        1.0411  -22.6959  -44.1449 H         1 UNK         0.0800 
@<TRIPOS>BOND
     1    1    2 1    
     2    1  127 1    
     3    1  128 1    
     4    1  129 1    
     5    2    3 2    
     6    2    4 am   BACKBONE|DICT|INTERRES
     7    4    5 1    
     8    4  130 1    
     9    5    6 1    
    10    5   65 1    
    11    5  131 1    
    12    6    7 1    
    13    6  132 1    
    14    6  133 1    
    15    7    8 1    
    16    8    9 1    
    17    8  134 1    
    18    8  135 1    
    19    9   10 ar   
    20    9   14 ar   
    21   10   11 ar   
    22   10  136 1    
    23   11   12 ar   
    24   11  126 1    
    25   12   13 ar   
    26   12  137 1    
    27   13   14 ar   
    28   13   15 1    
    29   14  138 1    
    30   15   16 1    
    31   15  139 1    
    32   15  140 1    
    33   16   17 1    
    34   17   18 1    
    35   17  141 1    
    36   17  142 1    
    37   18   19 1    
    38   18   67 1    
    39   18  143 1    
    40   19   20 am   BACKBONE|DICT|INTERRES
    41   19  144 1    
    42   20   21 2    
    43   20   22 1    
    44   22   23 1    
    45   22   24 1    
    46   22  145 1    
    47   23  146 1    
    48   23  147 1    
    49   23  148 1    
    50   24   25 am   BACKBONE|DICT|INTERRES
    51   24  149 1    
    52   25   26 2    
    53   25   27 1    
    54   27   28 1    
    55   27   29 1    
    56   27  150 1    
    57   28  151 1    
    58   28  152 1    
    59   28  153 1    
    60   29   30 am   BACKBONE|DICT|INTERRES
    61   29  154 1    
    62   30   31 2    
    63   30   32 1    
    64   32   33 1    
    65   32   34 1    
    66   32  155 1    
    67   33  156 1    
    68   33  157 1    
    69   33  158 1    
    70   34   35 am   BACKBONE|DICT|INTERRES
    71   34  159 1    
    72   35   36 2    
    73   35   37 1    
    74   37   38 1    
    75   37   39 1    
    76   37  160 1    
    77   38  161 1    
    78   38  162 1    
    79   38  163 1    
    80   39   40 am   BACKBONE|DICT|INTERRES
    81   39  164 1    
    82   40   41 2    
    83   40   42 1    
    84   42   43 1    
    85   42   44 1    
    86   42  165 1    
    87   43  166 1    
    88   43  167 1    
    89   43  168 1    
    90   44   45 am   BACKBONE|DICT|INTERRES
    91   44  169 1    
    92   45   46 2    
    93   45   47 1    
    94   47   48 1    
    95   47   49 1    
    96   47  170 1    
    97   48  171 1    
    98   48  172 1    
    99   48  173 1    
   100   49   50 am   BACKBONE|DICT|INTERRES
   101   49  174 1    
   102   50   51 2    
   103   50   52 1    
   104   52   53 1    
   105   52   54 1    
   106   52  175 1    
   107   53  176 1    
   108   53  177 1    
   109   53  178 1    
   110   54   55 am   BACKBONE|DICT|INTERRES
   111   54  179 1    
   112   55   56 2    
   113   55   57 1    
   114   57   58 1    
   115   57   59 1    
   116   57  180 1    
   117   58  181 1    
   118   58  182 1    
   119   58  183 1    
   120   59   60 am   BACKBONE|DICT|INTERRES
   121   59  184 1    
   122   60   61 2    
   123   60   62 1    
   124   62   63 1    
   125   62   64 1    
   126   62  185 1    
   127   63  186 1    
   128   63  187 1    
   129   63  188 1    
   130   64   65 am   BACKBONE|DICT|INTERRES
   131   64  189 1    
   132   65   66 2    
   133   67   68 2    
   134   67   69 am   BACKBONE|DICT|INTERRES
   135   69   70 1    
   136   69  190 1    
   137   70   71 1    
   138   70   72 1    
   139   70  191 1    
   140   71  192 1    
   141   71  193 1    
   142   71  194 1    
   143   72   73 2    
   144   72   74 am   BACKBONE|DICT|INTERRES
   145   74   75 1    
   146   74  195 1    
   147   75   76 1    
   148   75   77 1    
   149   75  196 1    
   150   76  197 1    
   151   76  198 1    
   152   76  199 1    
   153   77   78 2    
   154   77   79 am   BACKBONE|DICT|INTERRES
   155   79   80 1    
   156   79  200 1    
   157   80   81 1    
   158   80   82 1    
   159   80  201 1    
   160   81  202 1    
   161   81  203 1    
   162   81  204 1    
   163   82   83 2    
   164   82   84 am   BACKBONE|DICT|INTERRES
   165   84   85 1    
   166   84  205 1    
   167   85   86 1    
   168   85   87 1    
   169   85  206 1    
   170   86  207 1    
   171   86  208 1    
   172   86  209 1    
   173   87   88 2    
   174   87   89 am   BACKBONE|DICT|INTERRES
   175   89   90 1    
   176   89  210 1    
   177   90   91 1    
   178   90   92 1    
   179   90  211 1    
   180   91  212 1    
   181   91  213 1    
   182   91  214 1    
   183   92   93 2    
   184   92   94 am   BACKBONE|DICT|INTERRES
   185   94   95 1    
   186   94  215 1    
   187   95   96 1    
   188   95   97 1    
   189   95  216 1    
   190   96  217 1    
   191   96  218 1    
   192   96  219 1    
   193   97   98 2    
   194   97   99 am   BACKBONE|DICT|INTERRES
   195   99  100 1    
   196   99  220 1    
   197  100  101 1    
   198  100  102 1    
   199  100  221 1    
   200  101  222 1    
   201  101  223 1    
   202  101  224 1    
   203  102  103 2    
   204  102  104 am   BACKBONE|DICT|INTERRES
   205  104  105 1    
   206  104  225 1    
   207  105  106 1    
   208  105  107 1    
   209  105  226 1    
   210  106  227 1    
   211  106  228 1    
   212  106  229 1    
   213  107  108 2    
   214  107  109 am   BACKBONE|DICT|INTERRES
   215  109  110 1    
   216  109  230 1    
   217  110  111 1    
   218  110  112 1    
   219  110  231 1    
   220  111  232 1    
   221  111  233 1    
   222  111  234 1    
   223  112  113 2    
   224  112  114 am   BACKBONE|DICT|INTERRES
   225  114  115 1    
   226  114  235 1    
   227  115  116 1    
   228  115  117 1    
   229  115  236 1    
   230  116  237 1    
   231  116  238 1    
   232  116  239 1    
   233  117  118 2    
   234  117  119 am   BACKBONE|DICT|INTERRES
   235  119  120 1    
   236  119  240 1    
   237  120  121 1    
   238  120  124 1    
   239  120  241 1    
   240  121  122 am   BACKBONE|DICT|INTERRES
   241  121  123 2    
   242  122  242 1    
   243  122  243 1    
   244  124  125 1    
   245  124  244 1    
   246  124  245 1    
   247  125  126 1    
   248  126  246 1    
   249  126  247 1    
@<TRIPOS>SUBSTRUCTURE
     1 UNK         1 GROUP             0       ****    0 ROOT    
