@<TRIPOS>MOLECULE
3R540
247   249    1
SMALL
USER_CHARGES


@<TRIPOS>ATOM
      1 CA         -4.9143  -16.1308  -49.0143 C.3       0 UNK        -0.1800 
      2 C          -3.9185  -15.2494  -48.2729 C.2       0 UNK         0.5000 
      3 O          -4.2904  -14.1953  -47.7581 O.2       0 UNK        -0.5000 
      4 N          -2.6557  -15.6890  -48.1987 N.am      1 UNK        -0.5000 
      5 CA         -1.5459  -14.9790  -47.5416 C.3       1 UNK         0.1400 
      6 C6         -0.1629  -15.4382  -48.0732 C.3       23 UNK        -0.0398 
      7 S7          0.0098  -15.1947  -49.8761 S.3       23 UNK        -0.2404 
      8 C8         -0.2288  -16.8849  -50.5119 C.3       23 UNK        -0.0205 
      9 C9          1.0686  -17.5431  -50.9611 C.ar      23 UNK        -0.0193 
     10 C10         1.1977  -17.9963  -52.2775 C.ar      23 UNK        -0.1150 
     11 C11         2.3614  -18.6428  -52.7079 C.ar      23 UNK        -0.0193 
     12 C12         3.4129  -18.8100  -51.8018 C.ar      23 UNK        -0.1150 
     13 C13         3.3051  -18.3523  -50.4851 C.ar      23 UNK        -0.0193 
     14 C14         2.1258  -17.7301  -50.0659 C.ar      23 UNK        -0.1150 
     15 C15         4.4762  -18.5182  -49.5299 C.3       23 UNK        -0.0205 
     16 S16         4.5321  -20.1854  -48.8049 S.3       23 UNK        -0.2404 
     17 C17         3.3379  -20.0313  -47.4371 C.3       23 UNK        -0.0398 
     18 CA          2.4295  -21.2767  -47.2900 C.3       11 UNK         0.1400 
     19 N           2.0532  -21.4969  -45.8909 N.am      11 UNK        -0.5000 
     20 C           1.5163  -22.6220  -45.3988 C.2       10 UNK         0.5000 
     21 O           1.3250  -23.6403  -46.0628 O.2       10 UNK        -0.5000 
     22 CA          1.0755  -22.5853  -43.9215 C.3       10 UNK         0.1400 
     23 CB          2.2404  -22.9386  -42.9850 C.3       10 UNK        -0.1800 
     24 N           0.5138  -21.2876  -43.5411 N.am      10 UNK        -0.5000 
     25 C          -0.6145  -20.7808  -44.0569 C.2       9 UNK         0.5000 
     26 O          -1.3392  -21.3935  -44.8395 O.2       9 UNK        -0.5000 
     27 CA         -0.9579  -19.3291  -43.6862 C.3       9 UNK         0.1400 
     28 CB         -1.6613  -19.2672  -42.3202 C.3       9 UNK        -0.1800 
     29 N           0.2227  -18.4615  -43.6908 N.am      9 UNK        -0.5000 
     30 C           0.9316  -18.1449  -44.7848 C.2       8 UNK         0.5000 
     31 O           0.6105  -18.4835  -45.9216 O.2       8 UNK        -0.5000 
     32 CA          2.2513  -17.3787  -44.5812 C.3       8 UNK         0.1400 
     33 CB          2.0405  -15.8626  -44.6535 C.3       8 UNK        -0.1800 
     34 N           2.8962  -17.7225  -43.3167 N.am      8 UNK        -0.5000 
     35 C           3.5023  -18.8927  -43.0754 C.2       7 UNK         0.5000 
     36 O           3.6214  -19.7830  -43.9163 O.2       7 UNK        -0.5000 
     37 CA          4.0069  -19.1196  -41.6384 C.3       7 UNK         0.1400 
     38 CB          5.4000  -18.5016  -41.4493 C.3       7 UNK        -0.1800 
     39 N           3.0894  -18.5655  -40.6399 N.am      7 UNK        -0.5000 
     40 C           1.8520  -19.0304  -40.4145 C.2       6 UNK         0.5000 
     41 O           1.3934  -20.0285  -40.9699 O.2       6 UNK        -0.5000 
     42 CA          0.9632  -18.2110  -39.4566 C.3       6 UNK         0.1400 
     43 CB          1.1331  -18.7016  -38.0115 C.3       6 UNK        -0.1800 
     44 N           1.2336  -16.7699  -39.5174 N.am      6 UNK        -0.5000 
     45 C           1.0074  -16.0009  -40.5909 C.2       5 UNK         0.5000 
     46 O           0.4980  -16.4182  -41.6329 O.2       5 UNK        -0.5000 
     47 CA          1.5177  -14.5555  -40.5157 C.3       5 UNK         0.1400 
     48 CB          3.0555  -14.5482  -40.6635 C.3       5 UNK        -0.1800 
     49 N           0.9000  -13.7597  -41.5765 N.am      5 UNK        -0.5000 
     50 C           1.0194  -12.4336  -41.7246 C.2       4 UNK         0.5000 
     51 O           1.6139  -11.7069  -40.9271 O.2       4 UNK        -0.5000 
     52 CA          0.3743  -11.8042  -42.9719 C.3       4 UNK         0.1400 
     53 CB          1.2571  -12.0185  -44.2111 C.3       4 UNK        -0.1800 
     54 N          -0.9727  -12.3096  -43.2337 N.am      4 UNK        -0.5000 
     55 C          -2.0618  -11.9186  -42.5537 C.2       3 UNK         0.5000 
     56 O          -2.0279  -11.1113  -41.6238 O.2       3 UNK        -0.5000 
     57 CA         -3.4252  -12.4997  -42.9847 C.3       3 UNK         0.1400 
     58 CB         -4.1687  -11.5065  -43.8910 C.3       3 UNK        -0.1800 
     59 N          -3.3219  -13.7815  -43.6793 N.am      3 UNK        -0.5000 
     60 C          -2.9250  -14.9252  -43.1087 C.2       2 UNK         0.5000 
     61 O          -2.6906  -15.0388  -41.9056 O.2       2 UNK        -0.5000 
     62 CA         -2.7422  -16.1455  -44.0310 C.3       2 UNK         0.1400 
     63 CB         -3.9425  -17.0960  -43.8918 C.3       2 UNK        -0.1800 
     64 N          -2.5460  -15.8531  -45.4548 N.am      2 UNK        -0.5000 
     65 C          -1.5998  -15.0720  -45.9979 C.2       1 UNK         0.5000 
     66 O          -0.7968  -14.4239  -45.3277 O.2       1 UNK        -0.5000 
     67 C           1.1981  -21.2171  -48.2243 C.2       11 UNK         0.5000 
     68 O           1.2357  -21.7940  -49.3100 O.2       11 UNK        -0.5000 
     69 N           0.1212  -20.5556  -47.7709 N.am      12 UNK        -0.5000 
     70 CA         -1.1793  -20.4801  -48.4440 C.3       12 UNK         0.1400 
     71 CB         -2.0491  -19.4219  -47.7440 C.3       12 UNK        -0.1800 
     72 C          -1.9253  -21.8278  -48.4900 C.2       12 UNK         0.5000 
     73 O          -2.6790  -22.0658  -49.4358 O.2       12 UNK        -0.5000 
     74 N          -1.6741  -22.6755  -47.4835 N.am      13 UNK        -0.5000 
     75 CA         -2.1921  -24.0280  -47.2715 C.3       13 UNK         0.1400 
     76 CB         -1.8602  -24.9426  -48.4704 C.3       13 UNK        -0.1800 
     77 C          -3.6899  -24.0661  -46.9082 C.2       13 UNK         0.5000 
     78 O          -4.3608  -23.0312  -46.8506 O.2       13 UNK        -0.5000 
     79 N          -4.1834  -25.2832  -46.6386 N.am      14 UNK        -0.5000 
     80 CA         -5.5747  -25.5806  -46.2968 C.3       14 UNK         0.1400 
     81 CB         -5.7202  -27.0872  -46.0357 C.3       14 UNK        -0.1800 
     82 C          -6.5432  -25.1256  -47.4019 C.2       14 UNK         0.5000 
     83 O          -6.2878  -25.3855  -48.5799 O.2       14 UNK        -0.5000 
     84 N          -7.6045  -24.4136  -46.9982 N.am      15 UNK        -0.5000 
     85 CA         -8.6251  -23.7890  -47.8520 C.3       15 UNK         0.1400 
     86 CB         -9.4778  -24.8702  -48.5490 C.3       15 UNK        -0.1800 
     87 C          -8.0640  -22.7501  -48.8524 C.2       15 UNK         0.5000 
     88 O          -8.7332  -22.4390  -49.8388 O.2       15 UNK        -0.5000 
     89 N          -6.8480  -22.2423  -48.5871 N.am      16 UNK        -0.5000 
     90 CA         -6.0546  -21.3448  -49.4322 C.3       16 UNK         0.1400 
     91 CB         -6.7421  -19.9682  -49.5597 C.3       16 UNK        -0.1800 
     92 C          -5.6855  -21.9703  -50.7977 C.2       16 UNK         0.5000 
     93 O          -5.5375  -21.2464  -51.7829 O.2       16 UNK        -0.5000 
     94 N          -5.5497  -23.3048  -50.8457 N.am      17 UNK        -0.5000 
     95 CA         -5.3208  -24.0743  -52.0702 C.3       17 UNK         0.1400 
     96 CB         -5.3937  -25.5743  -51.7509 C.3       17 UNK        -0.1800 
     97 C          -4.0017  -23.7401  -52.7892 C.2       17 UNK         0.5000 
     98 O          -3.9923  -23.6319  -54.0162 O.2       17 UNK        -0.5000 
     99 N          -2.9174  -23.5555  -52.0245 N.am      18 UNK        -0.5000 
    100 CA        -1.6086  -23.1936  -52.5699 C.3       18 UNK         0.1400 
    101 CB        -0.4940  -23.6159  -51.6057 C.3       18 UNK        -0.1800 
    102 C         -1.5243  -21.6983  -52.9202 C.2       18 UNK         0.5000 
    103 O         -0.7986  -21.3426  -53.8472 O.2       18 UNK        -0.5000 
    104 N         -2.3033  -20.8567  -52.2234 N.am      19 UNK        -0.5000 
    105 CA        -2.4901  -19.4461  -52.5644 C.3       19 UNK         0.1400 
    106 CB        -3.1994  -18.7056  -51.4241 C.3       19 UNK        -0.1800 
    107 C         -3.2486  -19.2678  -53.8902 C.2       19 UNK         0.5000 
    108 O         -2.8499  -18.4367  -54.7048 O.2       19 UNK        -0.5000 
    109 N         -4.2926  -20.0811  -54.1035 N.am      20 UNK        -0.5000 
    110 CA        -5.0512  -20.1514  -55.3531 C.3       20 UNK         0.1400 
    111 CB        -6.2883  -21.0406  -55.1568 C.3       20 UNK        -0.1800 
    112 C         -4.1907  -20.6469  -56.5306 C.2       20 UNK         0.5000 
    113 O         -4.2285  -20.0478  -57.6067 O.2       20 UNK        -0.5000 
    114 N         -3.3812  -21.6895  -56.2883 N.am      21 UNK        -0.5000 
    115 CA        -2.4118  -22.2373  -57.2447 C.3       21 UNK         0.1400 
    116 CB        -1.8231  -23.5386  -56.6808 C.3       21 UNK        -0.1800 
    117 C         -1.2818  -21.2550  -57.6221 C.2       21 UNK         0.5000 
    118 O         -0.6839  -21.4033  -58.6886 O.2       21 UNK        -0.5000 
    119 N         -1.0255  -20.2650  -56.7579 N.am      22 UNK        -0.5000 
    120 CA        -0.1016  -19.1431  -56.9834 C.3       22 UNK         0.1400 
    121 C         -0.5701  -18.1302  -58.0730 C.2       22 UNK         0.5000 
    122 N         -1.8254  -18.1486  -58.5101 N.am      22 UNK        -0.7600 
    123 O          0.2227  -17.3167  -58.5388 O.2       22 UNK        -0.5000 
    124 C124        0.2322  -18.4218  -55.6460 C.3       23 UNK        -0.0398 
    125 S125        2.0065  -18.0395  -55.4437 S.3       23 UNK        -0.2404 
    126 C126        2.4887  -19.2072  -54.1235 C.3       23 UNK        -0.0205 
    127 H127       -5.2184  -15.6525  -49.9452 H         1 UNK         0.0600 
    128 H128       -5.8038  -16.2893  -48.4045 H         1 UNK         0.0600 
    129 H129       -4.4925  -17.1070  -49.2529 H         1 UNK         0.0600 
    130 H130       -2.4108  -16.5535  -48.6544 H         1 UNK         0.3000 
    131 H131       -1.6465  -13.9177  -47.7793 H         1 UNK         0.0600 
    132 H132        0.6299  -14.8526  -47.6058 H         1 UNK         0.0800 
    133 H133        0.0363  -16.4780  -47.8089 H         1 UNK         0.0800 
    134 H134       -0.9286  -16.8227  -51.3459 H         1 UNK         0.0800 
    135 H135       -0.7029  -17.5172  -49.7635 H         1 UNK         0.0800 
    136 H136        0.3842  -17.8449  -52.9676 H         1 UNK         0.1150 
    137 H137        4.3203  -19.3063  -52.1165 H         1 UNK         0.1150 
    138 H138        2.0328  -17.3802  -49.0479 H         1 UNK         0.1150 
    139 H139        4.4433  -17.7671  -48.7390 H         1 UNK         0.0800 
    140 H140        5.4076  -18.3429  -50.0704 H         1 UNK         0.0800 
    141 H141        2.7485  -19.1191  -47.5347 H         1 UNK         0.0800 
    142 H142        3.9389  -19.8958  -46.5376 H         1 UNK         0.0800 
    143 H143        3.0090  -22.1547  -47.5842 H         1 UNK         0.0600 
    144 H144        2.2315  -20.7348  -45.2482 H         1 UNK         0.3000 
    145 H145        0.2957  -23.3384  -43.7896 H         1 UNK         0.0600 
    146 H146        1.9181  -22.9530  -41.9437 H         1 UNK         0.0600 
    147 H147        2.6397  -23.9267  -43.2168 H         1 UNK         0.0600 
    148 H148        3.0607  -22.2263  -43.0701 H         1 UNK         0.0600 
    149 H149        1.0210  -20.7470  -42.8482 H         1 UNK         0.3000 
    150 H150       -1.6437  -18.9505  -44.4447 H         1 UNK         0.0600 
    151 H151       -1.1087  -19.8041  -41.5506 H         1 UNK         0.0600 
    152 H152       -2.6505  -19.7224  -42.3789 H         1 UNK         0.0600 
    153 H153       -1.7934  -18.2422  -41.9751 H         1 UNK         0.0600 
    154 H154        0.5067  -18.0648  -42.8022 H         1 UNK         0.3000 
    155 H155        2.9260  -17.6582  -45.3929 H         1 UNK         0.0600 
    156 H156        1.3024  -15.5196  -43.9303 H         1 UNK         0.0600 
    157 H157        1.6882  -15.5714  -45.6417 H         1 UNK         0.0600 
    158 H158        2.9687  -15.3214  -44.4702 H         1 UNK         0.0600 
    159 H159        2.7963  -17.0612  -42.5623 H         1 UNK         0.3000 
    160 H160        4.0827  -20.1970  -41.4763 H         1 UNK         0.0600 
    161 H161        5.3835  -17.4186  -41.5779 H         1 UNK         0.0600 
    162 H162        6.1078  -18.9077  -42.1733 H         1 UNK         0.0600 
    163 H163        5.7943  -18.7159  -40.4559 H         1 UNK         0.0600 
    164 H164        3.4015  -17.7526  -40.1305 H         1 UNK         0.3000 
    165 H165       -0.0759  -18.3712  -39.7511 H         1 UNK         0.0600 
    166 H166        0.4524  -18.1826  -37.3364 H         1 UNK         0.0600 
    167 H167        2.1501  -18.5464  -37.6491 H         1 UNK         0.0600 
    168 H168        0.9157  -19.7677  -37.9336 H         1 UNK         0.0600 
    169 H169        1.6582  -16.3580  -38.6987 H         1 UNK         0.3000 
    170 H170        1.2328  -14.1372  -39.5484 H         1 UNK         0.0600 
    171 H171        3.5322  -15.1860  -39.9185 H         1 UNK         0.0600 
    172 H172        3.3649  -14.9035  -41.6473 H         1 UNK         0.0600 
    173 H173        3.4703  -13.5499  -40.5275 H         1 UNK         0.0600 
    174 H174        0.3542  -14.2973  -42.2385 H         1 UNK         0.3000 
    175 H175        0.3091  -10.7272  -42.8016 H         1 UNK         0.0600 
    176 H176        1.3731  -13.0752  -44.4484 H         1 UNK         0.0600 
    177 H177        0.8346  -11.5250  -45.0864 H         1 UNK         0.0600 
    178 H178        2.2551  -11.6073  -44.0547 H         1 UNK         0.0600 
    179 H179       -1.0647  -12.9977  -43.9750 H         1 UNK         0.3000 
    180 H180       -4.0193  -12.6493  -42.0807 H         1 UNK         0.0600 
    181 H181       -3.6293  -11.3314  -44.8228 H         1 UNK         0.0600 
    182 H182       -4.2920  -10.5420  -43.3965 H         1 UNK         0.0600 
    183 H183       -5.1649  -11.8707  -44.1426 H         1 UNK         0.0600 
    184 H184       -3.4955  -13.7778  -44.6741 H         1 UNK         0.3000 
    185 H185       -1.8406  -16.6490  -43.6869 H         1 UNK         0.0600 
    186 H186       -3.8042  -18.0078  -44.4723 H         1 UNK         0.0600 
    187 H187       -4.0906  -17.3924  -42.8526 H         1 UNK         0.0600 
    188 H188       -4.8655  -16.6238  -44.2309 H         1 UNK         0.0600 
    189 H189       -3.1783  -16.3147  -46.0910 H         1 UNK         0.3000 
    190 H190        0.2081  -20.0305  -46.9052 H         1 UNK         0.3000 
    191 H191       -1.0004  -20.1653  -49.4737 H         1 UNK         0.0600 
    192 H192       -3.0084  -19.3017  -48.2480 H         1 UNK         0.0600 
    193 H193       -1.5575  -18.4507  -47.7246 H         1 UNK         0.0600 
    194 H194       -2.2648  -19.7014  -46.7132 H         1 UNK         0.0600 
    195 H195       -1.1307  -22.3077  -46.7113 H         1 UNK         0.3000 
    196 H196       -1.6523  -24.4074  -46.4027 H         1 UNK         0.0600 
    197 H197       -2.4717  -24.7098  -49.3418 H         1 UNK         0.0600 
    198 H198       -0.8127  -24.8482  -48.7573 H         1 UNK         0.0600 
    199 H199       -2.0296  -25.9920  -48.2289 H         1 UNK         0.0600 
    200 H200       -3.5722  -26.0815  -46.7244 H         1 UNK         0.3000 
    201 H201       -5.8087  -25.0455  -45.3742 H         1 UNK         0.0600 
    202 H202       -5.4672  -27.6746  -46.9194 H         1 UNK         0.0600 
    203 H203       -6.7448  -27.3378  -45.7578 H         1 UNK         0.0600 
    204 H204       -5.0745  -27.4119  -45.2195 H         1 UNK         0.0600 
    205 H205       -7.7103  -24.2371  -46.0085 H         1 UNK         0.3000 
    206 H206       -9.2821  -23.2328  -47.1820 H         1 UNK         0.0600 
    207 H207       -9.8671  -25.5905  -47.8295 H         1 UNK         0.0600 
    208 H208      -10.3352  -24.4276  -49.0572 H         1 UNK         0.0600 
    209 H209       -8.9038  -25.4190  -49.2963 H         1 UNK         0.0600 
    210 H210       -6.3619  -22.5819  -47.7654 H         1 UNK         0.3000 
    211 H211       -5.1140  -21.1893  -48.9039 H         1 UNK         0.0600 
    212 H212       -6.0849  -19.2371  -50.0272 H         1 UNK         0.0600 
    213 H213       -7.0147  -19.5720  -48.5817 H         1 UNK         0.0600 
    214 H214       -7.6474  -20.0211  -50.1648 H         1 UNK         0.0600 
    215 H215       -5.7022  -23.8408  -49.9990 H         1 UNK         0.3000 
    216 H216       -6.1338  -23.8373  -52.7596 H         1 UNK         0.0600 
    217 H217       -4.6456  -25.8649  -51.0121 H         1 UNK         0.0600 
    218 H218       -5.2258  -26.1754  -52.6455 H         1 UNK         0.0600 
    219 H219       -6.3738  -25.8451  -51.3578 H         1 UNK         0.0600 
    220 H220       -3.0131  -23.5483  -51.0164 H         1 UNK         0.3000 
    221 H221       -1.4541  -23.7527  -53.4942 H         1 UNK         0.0600 
    222 H222       -0.5101  -24.6916  -51.4311 H         1 UNK         0.0600 
    223 H223       -0.5831  -23.1199  -50.6429 H         1 UNK         0.0600 
    224 H224        0.4876  -23.3649  -52.0096 H         1 UNK         0.0600 
    225 H225       -2.8590  -21.2328  -51.4651 H         1 UNK         0.3000 
    226 H226       -1.5032  -19.0025  -52.6866 H         1 UNK         0.0600 
    227 H227       -4.1913  -19.1091  -51.2385 H         1 UNK         0.0600 
    228 H228       -2.6325  -18.7705  -50.4998 H         1 UNK         0.0600 
    229 H229       -3.3185  -17.6476  -51.6605 H         1 UNK         0.0600 
    230 H230       -4.6034  -20.6836  -53.3455 H         1 UNK         0.3000 
    231 H231       -5.3937  -19.1426  -55.5925 H         1 UNK         0.0600 
    232 H232       -6.0155  -22.0624  -54.8928 H         1 UNK         0.0600 
    233 H233       -6.8860  -21.0846  -56.0680 H         1 UNK         0.0600 
    234 H234       -6.9291  -20.6529  -54.3646 H         1 UNK         0.0600 
    235 H235       -3.4475  -22.1583  -55.3911 H         1 UNK         0.3000 
    236 H236       -2.9540  -22.4785  -58.1611 H         1 UNK         0.0600 
    237 H237       -2.6064  -24.2524  -56.4252 H         1 UNK         0.0600 
    238 H238       -1.1707  -24.0191  -57.4108 H         1 UNK         0.0600 
    239 H239       -1.2292  -23.3526  -55.7865 H         1 UNK         0.0600 
    240 H240       -1.5503  -20.2410  -55.8947 H         1 UNK         0.3000 
    241 H241        0.8157  -19.5909  -57.3700 H         1 UNK         0.0600 
    242 H242       -2.1117  -17.4911  -59.2180 H         1 UNK         0.3800 
    243 H243       -2.4981  -18.8075  -58.1387 H         1 UNK         0.3800 
    244 H244       -0.0746  -19.0398  -54.8043 H         1 UNK         0.0800 
    245 H245       -0.3384  -17.4981  -55.5309 H         1 UNK         0.0800 
    246 H246        3.5224  -19.5002  -54.3127 H         1 UNK         0.0800 
    247 H247        1.9015  -20.1238  -54.1984 H         1 UNK         0.0800 
@<TRIPOS>BOND
     1    1    2 1    
     2    1  127 1    
     3    1  128 1    
     4    1  129 1    
     5    2    3 2    
     6    2    4 am   BACKBONE|DICT|INTERRES
     7    4    5 1    
     8    4  130 1    
     9    5    6 1    
    10    5   65 1    
    11    5  131 1    
    12    6    7 1    
    13    6  132 1    
    14    6  133 1    
    15    7    8 1    
    16    8    9 1    
    17    8  134 1    
    18    8  135 1    
    19    9   10 ar   
    20    9   14 ar   
    21   10   11 ar   
    22   10  136 1    
    23   11   12 ar   
    24   11  126 1    
    25   12   13 ar   
    26   12  137 1    
    27   13   14 ar   
    28   13   15 1    
    29   14  138 1    
    30   15   16 1    
    31   15  139 1    
    32   15  140 1    
    33   16   17 1    
    34   17   18 1    
    35   17  141 1    
    36   17  142 1    
    37   18   19 1    
    38   18   67 1    
    39   18  143 1    
    40   19   20 am   BACKBONE|DICT|INTERRES
    41   19  144 1    
    42   20   21 2    
    43   20   22 1    
    44   22   23 1    
    45   22   24 1    
    46   22  145 1    
    47   23  146 1    
    48   23  147 1    
    49   23  148 1    
    50   24   25 am   BACKBONE|DICT|INTERRES
    51   24  149 1    
    52   25   26 2    
    53   25   27 1    
    54   27   28 1    
    55   27   29 1    
    56   27  150 1    
    57   28  151 1    
    58   28  152 1    
    59   28  153 1    
    60   29   30 am   BACKBONE|DICT|INTERRES
    61   29  154 1    
    62   30   31 2    
    63   30   32 1    
    64   32   33 1    
    65   32   34 1    
    66   32  155 1    
    67   33  156 1    
    68   33  157 1    
    69   33  158 1    
    70   34   35 am   BACKBONE|DICT|INTERRES
    71   34  159 1    
    72   35   36 2    
    73   35   37 1    
    74   37   38 1    
    75   37   39 1    
    76   37  160 1    
    77   38  161 1    
    78   38  162 1    
    79   38  163 1    
    80   39   40 am   BACKBONE|DICT|INTERRES
    81   39  164 1    
    82   40   41 2    
    83   40   42 1    
    84   42   43 1    
    85   42   44 1    
    86   42  165 1    
    87   43  166 1    
    88   43  167 1    
    89   43  168 1    
    90   44   45 am   BACKBONE|DICT|INTERRES
    91   44  169 1    
    92   45   46 2    
    93   45   47 1    
    94   47   48 1    
    95   47   49 1    
    96   47  170 1    
    97   48  171 1    
    98   48  172 1    
    99   48  173 1    
   100   49   50 am   BACKBONE|DICT|INTERRES
   101   49  174 1    
   102   50   51 2    
   103   50   52 1    
   104   52   53 1    
   105   52   54 1    
   106   52  175 1    
   107   53  176 1    
   108   53  177 1    
   109   53  178 1    
   110   54   55 am   BACKBONE|DICT|INTERRES
   111   54  179 1    
   112   55   56 2    
   113   55   57 1    
   114   57   58 1    
   115   57   59 1    
   116   57  180 1    
   117   58  181 1    
   118   58  182 1    
   119   58  183 1    
   120   59   60 am   BACKBONE|DICT|INTERRES
   121   59  184 1    
   122   60   61 2    
   123   60   62 1    
   124   62   63 1    
   125   62   64 1    
   126   62  185 1    
   127   63  186 1    
   128   63  187 1    
   129   63  188 1    
   130   64   65 am   BACKBONE|DICT|INTERRES
   131   64  189 1    
   132   65   66 2    
   133   67   68 2    
   134   67   69 am   BACKBONE|DICT|INTERRES
   135   69   70 1    
   136   69  190 1    
   137   70   71 1    
   138   70   72 1    
   139   70  191 1    
   140   71  192 1    
   141   71  193 1    
   142   71  194 1    
   143   72   73 2    
   144   72   74 am   BACKBONE|DICT|INTERRES
   145   74   75 1    
   146   74  195 1    
   147   75   76 1    
   148   75   77 1    
   149   75  196 1    
   150   76  197 1    
   151   76  198 1    
   152   76  199 1    
   153   77   78 2    
   154   77   79 am   BACKBONE|DICT|INTERRES
   155   79   80 1    
   156   79  200 1    
   157   80   81 1    
   158   80   82 1    
   159   80  201 1    
   160   81  202 1    
   161   81  203 1    
   162   81  204 1    
   163   82   83 2    
   164   82   84 am   BACKBONE|DICT|INTERRES
   165   84   85 1    
   166   84  205 1    
   167   85   86 1    
   168   85   87 1    
   169   85  206 1    
   170   86  207 1    
   171   86  208 1    
   172   86  209 1    
   173   87   88 2    
   174   87   89 am   BACKBONE|DICT|INTERRES
   175   89   90 1    
   176   89  210 1    
   177   90   91 1    
   178   90   92 1    
   179   90  211 1    
   180   91  212 1    
   181   91  213 1    
   182   91  214 1    
   183   92   93 2    
   184   92   94 am   BACKBONE|DICT|INTERRES
   185   94   95 1    
   186   94  215 1    
   187   95   96 1    
   188   95   97 1    
   189   95  216 1    
   190   96  217 1    
   191   96  218 1    
   192   96  219 1    
   193   97   98 2    
   194   97   99 am   BACKBONE|DICT|INTERRES
   195   99  100 1    
   196   99  220 1    
   197  100  101 1    
   198  100  102 1    
   199  100  221 1    
   200  101  222 1    
   201  101  223 1    
   202  101  224 1    
   203  102  103 2    
   204  102  104 am   BACKBONE|DICT|INTERRES
   205  104  105 1    
   206  104  225 1    
   207  105  106 1    
   208  105  107 1    
   209  105  226 1    
   210  106  227 1    
   211  106  228 1    
   212  106  229 1    
   213  107  108 2    
   214  107  109 am   BACKBONE|DICT|INTERRES
   215  109  110 1    
   216  109  230 1    
   217  110  111 1    
   218  110  112 1    
   219  110  231 1    
   220  111  232 1    
   221  111  233 1    
   222  111  234 1    
   223  112  113 2    
   224  112  114 am   BACKBONE|DICT|INTERRES
   225  114  115 1    
   226  114  235 1    
   227  115  116 1    
   228  115  117 1    
   229  115  236 1    
   230  116  237 1    
   231  116  238 1    
   232  116  239 1    
   233  117  118 2    
   234  117  119 am   BACKBONE|DICT|INTERRES
   235  119  120 1    
   236  119  240 1    
   237  120  121 1    
   238  120  124 1    
   239  120  241 1    
   240  121  122 am   BACKBONE|DICT|INTERRES
   241  121  123 2    
   242  122  242 1    
   243  122  243 1    
   244  124  125 1    
   245  124  244 1    
   246  124  245 1    
   247  125  126 1    
   248  126  246 1    
   249  126  247 1    
@<TRIPOS>SUBSTRUCTURE
     1 UNK         1 GROUP             0       ****    0 ROOT    
