@<TRIPOS>MOLECULE
3R540
247   249    1
SMALL
USER_CHARGES


@<TRIPOS>ATOM
      1 CA          4.3044  -18.4300  -43.2767 C.3       0 UNK        -0.1800 
      2 C           3.0544  -17.5668  -43.3592 C.2       0 UNK         0.5000 
      3 O           2.1498  -17.7266  -42.5434 O.2       0 UNK        -0.5000 
      4 N           2.9921  -16.6554  -44.3357 N.am      1 UNK        -0.5000 
      5 CA          1.8550  -15.7578  -44.5435 C.3       1 UNK         0.1400 
      6 C6          1.7956  -15.2715  -46.0155 C.3       23 UNK        -0.0398 
      7 S7          0.1928  -14.5243  -46.4828 S.3       23 UNK        -0.2404 
      8 C8         -0.8858  -15.9869  -46.5930 C.3       23 UNK        -0.0205 
      9 C9         -1.0855  -16.4709  -48.0214 C.ar      23 UNK        -0.0193 
     10 C10        -2.3133  -16.2753  -48.6589 C.ar      23 UNK        -0.1150 
     11 C11        -2.5312  -16.7634  -49.9502 C.ar      23 UNK        -0.0193 
     12 C12        -1.5059  -17.4446  -50.6111 C.ar      23 UNK        -0.1150 
     13 C13        -0.2733  -17.6473  -49.9838 C.ar      23 UNK        -0.0193 
     14 C14        -0.0713  -17.1636  -48.6881 C.ar      23 UNK        -0.1150 
     15 C15         0.8473  -18.3792  -50.7055 C.3       23 UNK        -0.0205 
     16 S16         1.1684  -20.0218  -49.9906 S.3       23 UNK        -0.2404 
     17 C17        -0.3424  -20.9388  -50.4429 C.3       23 UNK        -0.0398 
     18 CA         -1.0729  -21.5075  -49.2052 C.3       11 UNK         0.1400 
     19 N          -1.5275  -20.4640  -48.2740 N.am      11 UNK        -0.5000 
     20 C          -1.9916  -20.7055  -47.0404 C.2       10 UNK         0.5000 
     21 O          -2.1417  -21.8394  -46.5784 O.2       10 UNK        -0.5000 
     22 CA         -2.4230  -19.4880  -46.2098 C.3       10 UNK         0.1400 
     23 CB         -3.9328  -19.2463  -46.3547 C.3       10 UNK        -0.1800 
     24 N          -2.0941  -19.6783  -44.7983 N.am      10 UNK        -0.5000 
     25 C          -0.8600  -19.5544  -44.2965 C.2       9 UNK         0.5000 
     26 O           0.1042  -19.1445  -44.9456 O.2       9 UNK        -0.5000 
     27 CA         -0.6731  -19.9415  -42.8220 C.3       9 UNK         0.1400 
     28 CB          0.4983  -20.9228  -42.6483 C.3       9 UNK        -0.1800 
     29 N          -0.4069  -18.7422  -42.0348 N.am      9 UNK        -0.5000 
     30 C          -1.3415  -18.0071  -41.4201 C.2       8 UNK         0.5000 
     31 O          -2.5407  -18.2895  -41.4375 O.2       8 UNK        -0.5000 
     32 CA         -0.8514  -16.7699  -40.6426 C.3       8 UNK         0.1400 
     33 CB         -1.8526  -16.2904  -39.5720 C.3       8 UNK        -0.1800 
     34 N           0.4576  -17.0218  -40.0388 N.am      8 UNK        -0.5000 
     35 C           1.3622  -16.0817  -39.7441 C.2       7 UNK         0.5000 
     36 O           1.1525  -14.8751  -39.8728 O.2       7 UNK        -0.5000 
     37 CA          2.7437  -16.5381  -39.2441 C.3       7 UNK         0.1400 
     38 CB          2.9547  -18.0719  -39.2372 C.3       7 UNK        -0.1800 
     39 N           3.7402  -15.8509  -40.0623 N.am      7 UNK        -0.5000 
     40 C           5.0552  -15.7770  -39.8314 C.2       6 UNK         0.5000 
     41 O           5.6256  -16.3401  -38.8966 O.2       6 UNK        -0.5000 
     42 CA          5.8698  -14.8955  -40.7931 C.3       6 UNK         0.1400 
     43 CB          6.2341  -15.6518  -42.0785 C.3       6 UNK        -0.1800 
     44 N           5.1565  -13.6720  -41.1523 N.am      6 UNK        -0.5000 
     45 C           5.1713  -12.5459  -40.4267 C.2       5 UNK         0.5000 
     46 O           5.7522  -12.4436  -39.3446 O.2       5 UNK        -0.5000 
     47 CA          4.4222  -11.3313  -41.0184 C.3       5 UNK         0.1400 
     48 CB          4.9693   -9.9802  -40.5136 C.3       5 UNK        -0.1800 
     49 N           4.3567  -11.3518  -42.4841 N.am      5 UNK        -0.5000 
     50 C           5.3729  -11.3352  -43.3623 C.2       4 UNK         0.5000 
     51 O           6.5553  -11.2066  -43.0434 O.2       4 UNK        -0.5000 
     52 CA          5.0138  -11.5337  -44.8498 C.3       4 UNK         0.1400 
     53 CB          5.5348  -12.8929  -45.3472 C.3       4 UNK        -0.1800 
     54 N           3.5701  -11.4807  -45.0854 N.am      4 UNK        -0.5000 
     55 C           2.8686  -10.3654  -45.3299 C.2       3 UNK         0.5000 
     56 O           3.3760   -9.2542  -45.4824 O.2       3 UNK        -0.5000 
     57 CA          1.3347  -10.5187  -45.3777 C.3       3 UNK         0.1400 
     58 CB          0.8648  -10.7768  -46.8171 C.3       3 UNK        -0.1800 
     59 N           0.8448  -11.5949  -44.5099 N.am      3 UNK        -0.5000 
     60 C           0.9040  -11.5789  -43.1693 C.2       2 UNK         0.5000 
     61 O           1.3330  -10.6265  -42.5198 O.2       2 UNK        -0.5000 
     62 CA          0.4748  -12.8579  -42.4288 C.3       2 UNK         0.1400 
     63 CB         -1.0000  -12.7719  -42.0089 C.3       2 UNK        -0.1800 
     64 N           0.6827  -14.0690  -43.2242 N.am      2 UNK        -0.5000 
     65 C           1.8779  -14.5827  -43.5442 C.2       1 UNK         0.5000 
     66 O           2.9523  -14.1332  -43.1327 O.2       1 UNK        -0.5000 
     67 C          -2.1996  -22.4733  -49.6308 C.2       11 UNK         0.5000 
     68 O          -1.9047  -23.6063  -50.0075 O.2       11 UNK        -0.5000 
     69 N          -3.4657  -22.0524  -49.4932 N.am      12 UNK        -0.5000 
     70 CA         -4.6524  -22.8907  -49.6754 C.3       12 UNK         0.1400 
     71 CB         -5.9088  -22.0316  -49.4687 C.3       12 UNK        -0.1800 
     72 C          -4.7022  -24.1218  -48.7461 C.2       12 UNK         0.5000 
     73 O          -5.2878  -25.1375  -49.1202 O.2       12 UNK        -0.5000 
     74 N          -4.0792  -24.0203  -47.5627 N.am      13 UNK        -0.5000 
     75 CA         -3.9290  -25.1291  -46.6208 C.3       13 UNK         0.1400 
     76 CB         -3.7513  -24.5597  -45.2044 C.3       13 UNK        -0.1800 
     77 C          -2.7492  -26.0535  -46.9814 C.2       13 UNK         0.5000 
     78 O          -2.7199  -27.1942  -46.5177 O.2       13 UNK        -0.5000 
     79 N          -1.7945  -25.5537  -47.7788 N.am      14 UNK        -0.5000 
     80 CA         -0.5967  -26.2806  -48.1921 C.3       14 UNK         0.1400 
     81 CB          0.5577  -25.2902  -48.4170 C.3       14 UNK        -0.1800 
     82 C          -0.8393  -27.1305  -49.4499 C.2       14 UNK         0.5000 
     83 O          -0.3074  -28.2392  -49.5276 O.2       14 UNK        -0.5000 
     84 N          -1.6275  -26.6189  -50.4064 N.am      15 UNK        -0.5000 
     85 CA         -1.9265  -27.3029  -51.6615 C.3       15 UNK         0.1400 
     86 CB         -0.8030  -27.0360  -52.6801 C.3       15 UNK        -0.1800 
     87 C          -3.2745  -26.8461  -52.2296 C.2       15 UNK         0.5000 
     88 O          -3.5844  -25.6533  -52.2033 O.2       15 UNK        -0.5000 
     89 N          -4.0135  -27.7946  -52.8205 N.am      16 UNK        -0.5000 
     90 CA         -5.2618  -27.5473  -53.5486 C.3       16 UNK         0.1400 
     91 CB         -5.9496  -28.8876  -53.8466 C.3       16 UNK        -0.1800 
     92 C          -5.0467  -26.7492  -54.8499 C.2       16 UNK         0.5000 
     93 O          -5.9291  -25.9937  -55.2556 O.2       16 UNK        -0.5000 
     94 N          -3.8603  -26.8970  -55.4576 N.am      17 UNK        -0.5000 
     95 CA         -3.4174  -26.1235  -56.6187 C.3       17 UNK         0.1400 
     96 CB         -2.1233  -26.7387  -57.1720 C.3       17 UNK        -0.1800 
     97 C          -3.2110  -24.6327  -56.2904 C.2       17 UNK         0.5000 
     98 O          -3.4797  -23.7818  -57.1377 O.2       17 UNK        -0.5000 
     99 N          -2.7697  -24.3417  -55.0585 N.am      18 UNK        -0.5000 
    100 CA        -2.6475  -22.9833  -54.5353 C.3       18 UNK         0.1400 
    101 CB        -1.6372  -22.9590  -53.3837 C.3       18 UNK        -0.1800 
    102 C         -4.0081  -22.4220  -54.0918 C.2       18 UNK         0.5000 
    103 O         -4.2595  -21.2359  -54.2973 O.2       18 UNK        -0.5000 
    104 N         -4.8854  -23.2806  -53.5488 N.am      19 UNK        -0.5000 
    105 CA        -6.2623  -22.9470  -53.1593 C.3       19 UNK         0.1400 
    106 CB        -6.9032  -24.1475  -52.4445 C.3       19 UNK        -0.1800 
    107 C         -7.1550  -22.5000  -54.3349 C.2       19 UNK         0.5000 
    108 O         -8.1348  -21.7901  -54.1137 O.2       19 UNK        -0.5000 
    109 N         -6.7999  -22.9034  -55.5626 N.am      20 UNK        -0.5000 
    110 CA        -7.4419  -22.4573  -56.7993 C.3       20 UNK         0.1400 
    111 CB        -6.9665  -23.3423  -57.9610 C.3       20 UNK        -0.1800 
    112 C         -7.1851  -20.9670  -57.1077 C.2       20 UNK         0.5000 
    113 O         -8.0276  -20.3322  -57.7434 O.2       20 UNK        -0.5000 
    114 N         -6.0425  -20.4364  -56.6491 N.am      21 UNK        -0.5000 
    115 CA        -5.6857  -19.0214  -56.7400 C.3       21 UNK         0.1400 
    116 CB        -4.1788  -18.8917  -57.0157 C.3       21 UNK        -0.1800 
    117 C         -6.0753  -18.2868  -55.4468 C.2       21 UNK         0.5000 
    118 O         -6.7448  -17.2540  -55.5047 O.2       21 UNK        -0.5000 
    119 N         -5.6682  -18.8469  -54.3015 N.am      22 UNK        -0.5000 
    120 CA        -5.9849  -18.3798  -52.9475 C.3       22 UNK         0.1400 
    121 C         -7.4390  -18.7581  -52.5357 C.2       22 UNK         0.5000 
    122 N         -8.4407  -18.1763  -53.1815 N.am      22 UNK        -0.7600 
    123 O         -7.6694  -19.5738  -51.6475 O.2       22 UNK        -0.5000 
    124 C124       -4.8894  -18.8384  -51.9460 C.3       23 UNK        -0.0398 
    125 S125       -4.9831  -17.9677  -50.3428 S.3       23 UNK        -0.2404 
    126 C126       -3.8766  -16.5508  -50.6227 C.3       23 UNK        -0.0205 
    127 H127        4.7337  -18.3711  -42.2766 H         1 UNK         0.0600 
    128 H128        5.0629  -18.1162  -43.9941 H         1 UNK         0.0600 
    129 H129        4.0514  -19.4708  -43.4782 H         1 UNK         0.0600 
    130 H130        3.7763  -16.5364  -44.9600 H         1 UNK         0.3000 
    131 H131        0.9534  -16.3378  -44.3391 H         1 UNK         0.0600 
    132 H132        2.5894  -14.5503  -46.2182 H         1 UNK         0.0800 
    133 H133        1.9841  -16.1074  -46.6884 H         1 UNK         0.0800 
    134 H134       -0.4833  -16.8024  -45.9954 H         1 UNK         0.0800 
    135 H135       -1.8480  -15.7368  -46.1433 H         1 UNK         0.0800 
    136 H136       -3.1084  -15.7532  -48.1450 H         1 UNK         0.1150 
    137 H137       -1.6694  -17.8166  -51.6127 H         1 UNK         0.1150 
    138 H138        0.8756  -17.3390  -48.1996 H         1 UNK         0.1150 
    139 H139        0.6276  -18.4826  -51.7694 H         1 UNK         0.0800 
    140 H140        1.7592  -17.7840  -50.6404 H         1 UNK         0.0800 
    141 H141       -0.0284  -21.7500  -51.1021 H         1 UNK         0.0800 
    142 H142       -1.0107  -20.3083  -51.0308 H         1 UNK         0.0800 
    143 H143       -0.3518  -22.1193  -48.6582 H         1 UNK         0.0600 
    144 H144       -1.4215  -19.5096  -48.5896 H         1 UNK         0.3000 
    145 H145       -1.8978  -18.6102  -46.5793 H         1 UNK         0.0600 
    146 H146       -4.2478  -18.3723  -45.7843 H         1 UNK         0.0600 
    147 H147       -4.2011  -19.0649  -47.3965 H         1 UNK         0.0600 
    148 H148       -4.5146  -20.1019  -46.0090 H         1 UNK         0.0600 
    149 H149       -2.8319  -20.0352  -44.2088 H         1 UNK         0.3000 
    150 H150       -1.5771  -20.4370  -42.4609 H         1 UNK         0.0600 
    151 H151        1.4452  -20.4854  -42.9675 H         1 UNK         0.0600 
    152 H152        0.3388  -21.8274  -43.2366 H         1 UNK         0.0600 
    153 H153        0.6061  -21.2253  -41.6067 H         1 UNK         0.0600 
    154 H154        0.5473  -18.3851  -42.0895 H         1 UNK         0.3000 
    155 H155       -0.7414  -15.9801  -41.3875 H         1 UNK         0.0600 
    156 H156       -2.0079  -17.0489  -38.8041 H         1 UNK         0.0600 
    157 H157       -2.8233  -16.0619  -40.0136 H         1 UNK         0.0600 
    158 H158       -1.5051  -15.3819  -39.0802 H         1 UNK         0.0600 
    159 H159        0.7127  -17.9938  -39.9321 H         1 UNK         0.3000 
    160 H160        2.8387  -16.1744  -38.2194 H         1 UNK         0.0600 
    161 H161        2.9253  -18.4983  -40.2385 H         1 UNK         0.0600 
    162 H162        2.1955  -18.5735  -38.6362 H         1 UNK         0.0600 
    163 H163        3.9159  -18.3396  -38.8000 H         1 UNK         0.0600 
    164 H164        3.3526  -15.3107  -40.8256 H         1 UNK         0.3000 
    165 H165        6.8028  -14.6338  -40.2890 H         1 UNK         0.0600 
    166 H166        6.6865  -16.6188  -41.8554 H         1 UNK         0.0600 
    167 H167        5.3578  -15.8258  -42.7008 H         1 UNK         0.0600 
    168 H168        6.9513  -15.0854  -42.6730 H         1 UNK         0.0600 
    169 H169        4.6022  -13.6942  -42.0020 H         1 UNK         0.3000 
    170 H170        3.3923  -11.4189  -40.6698 H         1 UNK         0.0600 
    171 H171        4.8785   -9.9012  -39.4297 H         1 UNK         0.0600 
    172 H172        6.0225   -9.8499  -40.7635 H         1 UNK         0.0600 
    173 H173        4.4156   -9.1464  -40.9453 H         1 UNK         0.0600 
    174 H174        3.4231  -11.4319  -42.8616 H         1 UNK         0.3000 
    175 H175        5.5096  -10.7456  -45.4203 H         1 UNK         0.0600 
    176 H176        5.3092  -13.0394  -46.4036 H         1 UNK         0.0600 
    177 H177        6.6177  -12.9615  -45.2353 H         1 UNK         0.0600 
    178 H178        5.0965  -13.7228  -44.7918 H         1 UNK         0.0600 
    179 H179        3.0669  -12.3459  -44.9588 H         1 UNK         0.3000 
    180 H180        0.8948   -9.5794  -45.0358 H         1 UNK         0.0600 
    181 H181        1.2855  -11.6989  -47.2200 H         1 UNK         0.0600 
    182 H182        1.1678   -9.9632  -47.4775 H         1 UNK         0.0600 
    183 H183       -0.2215  -10.8513  -46.8716 H         1 UNK         0.0600 
    184 H184        0.4691  -12.4118  -44.9707 H         1 UNK         0.3000 
    185 H185        1.0873  -12.9245  -41.5285 H         1 UNK         0.0600 
    186 H186       -1.1870  -11.8704  -41.4240 H         1 UNK         0.0600 
    187 H187       -1.6660  -12.7479  -42.8722 H         1 UNK         0.0600 
    188 H188       -1.2825  -13.6208  -41.3867 H         1 UNK         0.0600 
    189 H189       -0.1476  -14.4846  -43.6200 H         1 UNK         0.3000 
    190 H190       -3.6238  -21.1099  -49.1696 H         1 UNK         0.3000 
    191 H191       -4.6315  -23.2545  -50.7027 H         1 UNK         0.0600 
    192 H192       -5.9349  -21.1860  -50.1529 H         1 UNK         0.0600 
    193 H193       -6.8140  -22.6143  -49.6441 H         1 UNK         0.0600 
    194 H194       -5.9633  -21.6379  -48.4529 H         1 UNK         0.0600 
    195 H195       -3.5992  -23.1599  -47.3219 H         1 UNK         0.3000 
    196 H196       -4.8392  -25.7326  -46.6291 H         1 UNK         0.0600 
    197 H197       -3.7082  -25.3608  -44.4654 H         1 UNK         0.0600 
    198 H198       -4.5834  -23.9105  -44.9316 H         1 UNK         0.0600 
    199 H199       -2.8307  -23.9824  -45.1135 H         1 UNK         0.0600 
    200 H200       -1.9261  -24.6375  -48.1864 H         1 UNK         0.3000 
    201 H201       -0.2963  -26.9546  -47.3868 H         1 UNK         0.0600 
    202 H202        1.4871  -25.8222  -48.6235 H         1 UNK         0.0600 
    203 H203        0.3716  -24.6275  -49.2618 H         1 UNK         0.0600 
    204 H204        0.7263  -24.6719  -47.5351 H         1 UNK         0.0600 
    205 H205       -2.0254  -25.6902  -50.2999 H         1 UNK         0.3000 
    206 H206       -1.9886  -28.3777  -51.4771 H         1 UNK         0.0600 
    207 H207        0.1517  -27.4261  -52.3272 H         1 UNK         0.0600 
    208 H208       -1.0131  -27.5165  -53.6363 H         1 UNK         0.0600 
    209 H209       -0.6773  -25.9687  -52.8667 H         1 UNK         0.0600 
    210 H210       -3.6880  -28.7507  -52.8051 H         1 UNK         0.3000 
    211 H211       -5.9190  -26.9636  -52.9020 H         1 UNK         0.0600 
    212 H212       -5.3305  -29.5284  -54.4757 H         1 UNK         0.0600 
    213 H213       -6.8961  -28.7328  -54.3665 H         1 UNK         0.0600 
    214 H214       -6.1707  -29.4304  -52.9275 H         1 UNK         0.0600 
    215 H215       -3.2018  -27.5565  -55.0713 H         1 UNK         0.3000 
    216 H216       -4.1887  -26.1916  -57.3891 H         1 UNK         0.0600 
    217 H217       -1.7783  -26.1945  -58.0522 H         1 UNK         0.0600 
    218 H218       -2.2763  -27.7755  -57.4719 H         1 UNK         0.0600 
    219 H219       -1.3186  -26.7165  -56.4359 H         1 UNK         0.0600 
    220 H220       -2.6044  -25.0948  -54.4075 H         1 UNK         0.3000 
    221 H221       -2.2650  -22.3324  -55.3248 H         1 UNK         0.0600 
    222 H222       -1.9293  -23.6328  -52.5804 H         1 UNK         0.0600 
    223 H223       -0.6443  -23.2543  -53.7227 H         1 UNK         0.0600 
    224 H224       -1.5559  -21.9560  -52.9652 H         1 UNK         0.0600 
    225 H225       -4.5750  -24.2256  -53.3540 H         1 UNK         0.3000 
    226 H226       -6.2082  -22.1145  -52.4558 H         1 UNK         0.0600 
    227 H227       -7.8241  -23.8479  -51.9432 H         1 UNK         0.0600 
    228 H228       -7.1633  -24.9399  -53.1455 H         1 UNK         0.0600 
    229 H229       -6.2464  -24.5760  -51.6890 H         1 UNK         0.0600 
    230 H230       -6.0234  -23.5444  -55.6523 H         1 UNK         0.3000 
    231 H231       -8.5197  -22.5926  -56.6879 H         1 UNK         0.0600 
    232 H232       -5.8990  -23.2235  -58.1465 H         1 UNK         0.0600 
    233 H233       -7.4888  -23.0866  -58.8837 H         1 UNK         0.0600 
    234 H234       -7.1574  -24.3967  -57.7595 H         1 UNK         0.0600 
    235 H235       -5.4266  -21.0197  -56.0975 H         1 UNK         0.3000 
    236 H236       -6.2181  -18.5512  -57.5695 H         1 UNK         0.0600 
    237 H237       -3.9119  -19.3653  -57.9606 H         1 UNK         0.0600 
    238 H238       -3.8837  -17.8438  -57.0824 H         1 UNK         0.0600 
    239 H239       -3.5777  -19.3531  -56.2313 H         1 UNK         0.0600 
    240 H240       -5.1380  -19.7152  -54.3478 H         1 UNK         0.3000 
    241 H241       -5.9492  -17.2887  -52.9658 H         1 UNK         0.0600 
    242 H242       -8.2463  -17.5540  -53.9554 H         1 UNK         0.3800 
    243 H243       -9.3913  -18.4111  -52.9440 H         1 UNK         0.3800 
    244 H244       -3.8993  -18.6724  -52.3720 H         1 UNK         0.0800 
    245 H245       -4.9519  -19.9131  -51.7758 H         1 UNK         0.0800 
    246 H246       -4.3529  -15.6544  -50.2226 H         1 UNK         0.0800 
    247 H247       -3.7443  -16.3665  -51.6899 H         1 UNK         0.0800 
@<TRIPOS>BOND
     1    1    2 1    
     2    1  127 1    
     3    1  128 1    
     4    1  129 1    
     5    2    3 2    
     6    2    4 am   BACKBONE|DICT|INTERRES
     7    4    5 1    
     8    4  130 1    
     9    5    6 1    
    10    5   65 1    
    11    5  131 1    
    12    6    7 1    
    13    6  132 1    
    14    6  133 1    
    15    7    8 1    
    16    8    9 1    
    17    8  134 1    
    18    8  135 1    
    19    9   10 ar   
    20    9   14 ar   
    21   10   11 ar   
    22   10  136 1    
    23   11   12 ar   
    24   11  126 1    
    25   12   13 ar   
    26   12  137 1    
    27   13   14 ar   
    28   13   15 1    
    29   14  138 1    
    30   15   16 1    
    31   15  139 1    
    32   15  140 1    
    33   16   17 1    
    34   17   18 1    
    35   17  141 1    
    36   17  142 1    
    37   18   19 1    
    38   18   67 1    
    39   18  143 1    
    40   19   20 am   BACKBONE|DICT|INTERRES
    41   19  144 1    
    42   20   21 2    
    43   20   22 1    
    44   22   23 1    
    45   22   24 1    
    46   22  145 1    
    47   23  146 1    
    48   23  147 1    
    49   23  148 1    
    50   24   25 am   BACKBONE|DICT|INTERRES
    51   24  149 1    
    52   25   26 2    
    53   25   27 1    
    54   27   28 1    
    55   27   29 1    
    56   27  150 1    
    57   28  151 1    
    58   28  152 1    
    59   28  153 1    
    60   29   30 am   BACKBONE|DICT|INTERRES
    61   29  154 1    
    62   30   31 2    
    63   30   32 1    
    64   32   33 1    
    65   32   34 1    
    66   32  155 1    
    67   33  156 1    
    68   33  157 1    
    69   33  158 1    
    70   34   35 am   BACKBONE|DICT|INTERRES
    71   34  159 1    
    72   35   36 2    
    73   35   37 1    
    74   37   38 1    
    75   37   39 1    
    76   37  160 1    
    77   38  161 1    
    78   38  162 1    
    79   38  163 1    
    80   39   40 am   BACKBONE|DICT|INTERRES
    81   39  164 1    
    82   40   41 2    
    83   40   42 1    
    84   42   43 1    
    85   42   44 1    
    86   42  165 1    
    87   43  166 1    
    88   43  167 1    
    89   43  168 1    
    90   44   45 am   BACKBONE|DICT|INTERRES
    91   44  169 1    
    92   45   46 2    
    93   45   47 1    
    94   47   48 1    
    95   47   49 1    
    96   47  170 1    
    97   48  171 1    
    98   48  172 1    
    99   48  173 1    
   100   49   50 am   BACKBONE|DICT|INTERRES
   101   49  174 1    
   102   50   51 2    
   103   50   52 1    
   104   52   53 1    
   105   52   54 1    
   106   52  175 1    
   107   53  176 1    
   108   53  177 1    
   109   53  178 1    
   110   54   55 am   BACKBONE|DICT|INTERRES
   111   54  179 1    
   112   55   56 2    
   113   55   57 1    
   114   57   58 1    
   115   57   59 1    
   116   57  180 1    
   117   58  181 1    
   118   58  182 1    
   119   58  183 1    
   120   59   60 am   BACKBONE|DICT|INTERRES
   121   59  184 1    
   122   60   61 2    
   123   60   62 1    
   124   62   63 1    
   125   62   64 1    
   126   62  185 1    
   127   63  186 1    
   128   63  187 1    
   129   63  188 1    
   130   64   65 am   BACKBONE|DICT|INTERRES
   131   64  189 1    
   132   65   66 2    
   133   67   68 2    
   134   67   69 am   BACKBONE|DICT|INTERRES
   135   69   70 1    
   136   69  190 1    
   137   70   71 1    
   138   70   72 1    
   139   70  191 1    
   140   71  192 1    
   141   71  193 1    
   142   71  194 1    
   143   72   73 2    
   144   72   74 am   BACKBONE|DICT|INTERRES
   145   74   75 1    
   146   74  195 1    
   147   75   76 1    
   148   75   77 1    
   149   75  196 1    
   150   76  197 1    
   151   76  198 1    
   152   76  199 1    
   153   77   78 2    
   154   77   79 am   BACKBONE|DICT|INTERRES
   155   79   80 1    
   156   79  200 1    
   157   80   81 1    
   158   80   82 1    
   159   80  201 1    
   160   81  202 1    
   161   81  203 1    
   162   81  204 1    
   163   82   83 2    
   164   82   84 am   BACKBONE|DICT|INTERRES
   165   84   85 1    
   166   84  205 1    
   167   85   86 1    
   168   85   87 1    
   169   85  206 1    
   170   86  207 1    
   171   86  208 1    
   172   86  209 1    
   173   87   88 2    
   174   87   89 am   BACKBONE|DICT|INTERRES
   175   89   90 1    
   176   89  210 1    
   177   90   91 1    
   178   90   92 1    
   179   90  211 1    
   180   91  212 1    
   181   91  213 1    
   182   91  214 1    
   183   92   93 2    
   184   92   94 am   BACKBONE|DICT|INTERRES
   185   94   95 1    
   186   94  215 1    
   187   95   96 1    
   188   95   97 1    
   189   95  216 1    
   190   96  217 1    
   191   96  218 1    
   192   96  219 1    
   193   97   98 2    
   194   97   99 am   BACKBONE|DICT|INTERRES
   195   99  100 1    
   196   99  220 1    
   197  100  101 1    
   198  100  102 1    
   199  100  221 1    
   200  101  222 1    
   201  101  223 1    
   202  101  224 1    
   203  102  103 2    
   204  102  104 am   BACKBONE|DICT|INTERRES
   205  104  105 1    
   206  104  225 1    
   207  105  106 1    
   208  105  107 1    
   209  105  226 1    
   210  106  227 1    
   211  106  228 1    
   212  106  229 1    
   213  107  108 2    
   214  107  109 am   BACKBONE|DICT|INTERRES
   215  109  110 1    
   216  109  230 1    
   217  110  111 1    
   218  110  112 1    
   219  110  231 1    
   220  111  232 1    
   221  111  233 1    
   222  111  234 1    
   223  112  113 2    
   224  112  114 am   BACKBONE|DICT|INTERRES
   225  114  115 1    
   226  114  235 1    
   227  115  116 1    
   228  115  117 1    
   229  115  236 1    
   230  116  237 1    
   231  116  238 1    
   232  116  239 1    
   233  117  118 2    
   234  117  119 am   BACKBONE|DICT|INTERRES
   235  119  120 1    
   236  119  240 1    
   237  120  121 1    
   238  120  124 1    
   239  120  241 1    
   240  121  122 am   BACKBONE|DICT|INTERRES
   241  121  123 2    
   242  122  242 1    
   243  122  243 1    
   244  124  125 1    
   245  124  244 1    
   246  124  245 1    
   247  125  126 1    
   248  126  246 1    
   249  126  247 1    
@<TRIPOS>SUBSTRUCTURE
     1 UNK         1 GROUP             0       ****    0 ROOT    
