@<TRIPOS>MOLECULE
3R540
247   249    1
SMALL
USER_CHARGES


@<TRIPOS>ATOM
      1 CA          1.9569  -13.1943  -43.7445 C.3       0 UNK        -0.1800 
      2 C           1.5654  -13.8404  -45.0628 C.2       0 UNK         0.5000 
      3 O           0.6270  -13.3819  -45.7129 O.2       0 UNK        -0.5000 
      4 N           2.2968  -14.8952  -45.4492 N.am      1 UNK        -0.5000 
      5 CA          2.1562  -15.6764  -46.6872 C.3       1 UNK         0.1400 
      6 C6          3.3606  -16.6448  -46.8281 C.3       23 UNK        -0.0398 
      7 S7          2.9671  -18.1392  -47.7841 S.3       23 UNK        -0.2404 
      8 C8          3.9194  -17.8499  -49.3058 C.3       23 UNK        -0.0205 
      9 C9          3.5311  -18.8532  -50.3786 C.ar      23 UNK        -0.0193 
     10 C10         2.7461  -18.4591  -51.4647 C.ar      23 UNK        -0.1150 
     11 C11         2.3495  -19.3889  -52.4299 C.ar      23 UNK        -0.0193 
     12 C12         2.7507  -20.7227  -52.3073 C.ar      23 UNK        -0.1150 
     13 C13         3.5245  -21.1311  -51.2159 C.ar      23 UNK        -0.0193 
     14 C14         3.9294  -20.1871  -50.2676 C.ar      23 UNK        -0.1150 
     15 C15         3.8577  -22.6032  -51.0054 C.3       23 UNK        -0.0205 
     16 S16         2.3802  -23.6512  -50.7355 S.3       23 UNK        -0.2404 
     17 C17         1.2149  -22.5524  -49.8537 C.3       23 UNK        -0.0398 
     18 CA          0.4835  -23.2290  -48.6756 C.3       11 UNK         0.1400 
     19 N           1.4106  -23.6473  -47.6190 N.am      11 UNK        -0.5000 
     20 C           1.0701  -24.3638  -46.5388 C.2       10 UNK         0.5000 
     21 O          -0.0628  -24.7987  -46.3376 O.2       10 UNK        -0.5000 
     22 CA          2.1673  -24.5815  -45.4768 C.3       10 UNK         0.1400 
     23 CB          3.0063  -25.8220  -45.8172 C.3       10 UNK        -0.1800 
     24 N           3.0569  -23.4271  -45.2969 N.am      10 UNK        -0.5000 
     25 C           2.6514  -22.1951  -44.9595 C.2       9 UNK         0.5000 
     26 O           1.4670  -21.9040  -44.7719 O.2       9 UNK        -0.5000 
     27 CA          3.7391  -21.1047  -44.8735 C.3       9 UNK         0.1400 
     28 CB          4.4668  -20.9553  -46.2211 C.3       9 UNK        -0.1800 
     29 N           3.1320  -19.8201  -44.5190 N.am      9 UNK        -0.5000 
     30 C           2.9130  -19.4076  -43.2651 C.2       8 UNK         0.5000 
     31 O           3.3925  -19.9519  -42.2673 O.2       8 UNK        -0.5000 
     32 CA          1.9435  -18.2235  -43.0932 C.3       8 UNK         0.1400 
     33 CB          0.5513  -18.7401  -42.6953 C.3       8 UNK        -0.1800 
     34 N           2.4096  -17.3040  -42.0590 N.am      8 UNK        -0.5000 
     35 C           3.4120  -16.4301  -42.2045 C.2       7 UNK         0.5000 
     36 O           3.9512  -16.1972  -43.2885 O.2       7 UNK        -0.5000 
     37 CA          3.8596  -15.6789  -40.9333 C.3       7 UNK         0.1400 
     38 CB          4.6349  -14.3844  -41.2394 C.3       7 UNK        -0.1800 
     39 N           2.7155  -15.3603  -40.0752 N.am      7 UNK        -0.5000 
     40 C           2.4236  -15.9593  -38.9132 C.2       6 UNK         0.5000 
     41 O           3.1107  -16.8484  -38.4098 O.2       6 UNK        -0.5000 
     42 CA          1.1364  -15.5020  -38.1944 C.3       6 UNK         0.1400 
     43 CB          1.4667  -14.4473  -37.1271 C.3       6 UNK        -0.1800 
     44 N           0.1037  -14.9666  -39.0895 N.am      6 UNK        -0.5000 
     45 C          -0.5419  -15.6767  -40.0248 C.2       5 UNK         0.5000 
     46 O          -0.3152  -16.8700  -40.2332 O.2       5 UNK        -0.5000 
     47 CA         -1.6038  -14.9241  -40.8550 C.3       5 UNK         0.1400 
     48 CB         -1.0867  -13.5704  -41.3728 C.3       5 UNK        -0.1800 
     49 N          -2.0288  -15.7134  -42.0087 N.am      5 UNK        -0.5000 
     50 C          -3.0526  -16.5716  -42.0419 C.2       4 UNK         0.5000 
     51 O          -3.8133  -16.7564  -41.0897 O.2       4 UNK        -0.5000 
     52 CA         -3.2720  -17.3256  -43.3758 C.3       4 UNK         0.1400 
     53 CB         -4.5741  -18.1472  -43.3827 C.3       4 UNK        -0.1800 
     54 N          -3.2767  -16.4365  -44.5433 N.am      4 UNK        -0.5000 
     55 C          -2.1978  -15.8938  -45.1210 C.2       3 UNK         0.5000 
     56 O          -1.0508  -16.0419  -44.6920 O.2       3 UNK        -0.5000 
     57 CA         -2.4536  -15.0108  -46.3558 C.3       3 UNK         0.1400 
     58 CB         -2.7099  -13.5543  -45.9384 C.3       3 UNK        -0.1800 
     59 N          -1.3273  -15.0705  -47.2917 N.am      3 UNK        -0.5000 
     60 C          -1.1201  -16.1075  -48.1154 C.2       2 UNK         0.5000 
     61 O          -1.8972  -17.0595  -48.1975 O.2       2 UNK        -0.5000 
     62 CA          0.1385  -16.1162  -49.0083 C.3       2 UNK         0.1400 
     63 CB         -0.2672  -16.1937  -50.4899 C.3       2 UNK        -0.1800 
     64 N           1.0474  -14.9762  -48.8518 N.am      2 UNK        -0.5000 
     65 C           2.0114  -14.7679  -47.9405 C.2       1 UNK         0.5000 
     66 O           2.8034  -13.8343  -48.0769 O.2       1 UNK        -0.5000 
     67 C          -0.5958  -22.2670  -48.1390 C.2       11 UNK         0.5000 
     68 O          -1.7743  -22.4294  -48.4502 O.2       11 UNK        -0.5000 
     69 N          -0.1753  -21.2845  -47.3332 N.am      12 UNK        -0.5000 
     70 CA         -1.0565  -20.2931  -46.7210 C.3       12 UNK         0.1400 
     71 CB         -0.2156  -19.1387  -46.1734 C.3       12 UNK        -0.1800 
     72 C          -1.9536  -20.9026  -45.6327 C.2       12 UNK         0.5000 
     73 O          -3.1299  -20.5532  -45.5577 O.2       12 UNK        -0.5000 
     74 N          -1.4105  -21.8528  -44.8592 N.am      13 UNK        -0.5000 
     75 CA         -2.1548  -22.6663  -43.8945 C.3       13 UNK         0.1400 
     76 CB         -1.1682  -23.5088  -43.0733 C.3       13 UNK        -0.1800 
     77 C          -3.2213  -23.5597  -44.5635 C.2       13 UNK         0.5000 
     78 O          -4.2989  -23.7475  -43.9988 O.2       13 UNK        -0.5000 
     79 N          -2.9207  -24.0511  -45.7740 N.am      14 UNK        -0.5000 
     80 CA         -3.8421  -24.7805  -46.6497 C.3       14 UNK         0.1400 
     81 CB         -3.0210  -25.6526  -47.6140 C.3       14 UNK        -0.1800 
     82 C          -4.8110  -23.8627  -47.4300 C.2       14 UNK         0.5000 
     83 O          -5.6722  -24.3770  -48.1446 O.2       14 UNK        -0.5000 
     84 N          -4.6612  -22.5375  -47.2826 N.am      15 UNK        -0.5000 
     85 CA         -5.4431  -21.4664  -47.9036 C.3       15 UNK         0.1400 
     86 CB         -6.9080  -21.5037  -47.4223 C.3       15 UNK        -0.1800 
     87 C          -5.3053  -21.4192  -49.4391 C.2       15 UNK         0.5000 
     88 O          -6.2919  -21.1857  -50.1400 O.2       15 UNK        -0.5000 
     89 N          -4.0739  -21.5998  -49.9409 N.am      16 UNK        -0.5000 
     90 CA         -3.7206  -21.5750  -51.3659 C.3       16 UNK         0.1400 
     91 CB         -2.2187  -21.8456  -51.5251 C.3       16 UNK        -0.1800 
     92 C          -4.0990  -20.2766  -52.1050 C.2       16 UNK         0.5000 
     93 O          -4.3788  -20.3284  -53.3028 O.2       16 UNK        -0.5000 
     94 N          -4.1275  -19.1462  -51.3862 N.am      17 UNK        -0.5000 
     95 CA         -4.5804  -17.8540  -51.9010 C.3       17 UNK         0.1400 
     96 CB         -4.1899  -16.7470  -50.9110 C.3       17 UNK        -0.1800 
     97 C          -6.0965  -17.8211  -52.1717 C.2       17 UNK         0.5000 
     98 O          -6.5192  -17.2620  -53.1834 O.2       17 UNK        -0.5000 
     99 N          -6.8832  -18.4345  -51.2761 N.am      18 UNK        -0.5000 
    100 CA        -8.3413  -18.5279  -51.3790 C.3       18 UNK         0.1400 
    101 CB        -8.9366  -18.8073  -49.9910 C.3       18 UNK        -0.1800 
    102 C         -8.7737  -19.6100  -52.3821 C.2       18 UNK         0.5000 
    103 O         -9.7448  -19.4127  -53.1128 O.2       18 UNK        -0.5000 
    104 N         -8.0214  -20.7185  -52.4216 N.am      19 UNK        -0.5000 
    105 CA        -8.1881  -21.8168  -53.3762 C.3       19 UNK         0.1400 
    106 CB        -7.3978  -23.0319  -52.8662 C.3       19 UNK        -0.1800 
    107 C         -7.7459  -21.4563  -54.8104 C.2       19 UNK         0.5000 
    108 O         -8.0679  -22.1955  -55.7409 O.2       19 UNK        -0.5000 
    109 N         -7.0025  -20.3483  -54.9534 N.am      20 UNK        -0.5000 
    110 CA        -6.3951  -19.8145  -56.1770 C.3       20 UNK         0.1400 
    111 CB        -7.4637  -19.4646  -57.2330 C.3       20 UNK        -0.1800 
    112 C         -5.2626  -20.7000  -56.7385 C.2       20 UNK         0.5000 
    113 O         -4.8918  -20.5589  -57.9048 O.2       20 UNK        -0.5000 
    114 N         -4.6846  -21.5563  -55.8855 N.am      21 UNK        -0.5000 
    115 CA        -3.5185  -22.3897  -56.1809 C.3       21 UNK         0.1400 
    116 CB        -3.3622  -23.4465  -55.0779 C.3       21 UNK        -0.1800 
    117 C         -2.2316  -21.5576  -56.3448 C.2       21 UNK         0.5000 
    118 O         -1.3425  -21.9592  -57.0961 O.2       21 UNK        -0.5000 
    119 N         -2.1825  -20.3923  -55.6847 N.am      22 UNK        -0.5000 
    120 CA        -1.1787  -19.3406  -55.9154 C.3       22 UNK         0.1400 
    121 C         -1.3972  -18.5203  -57.2254 C.2       22 UNK         0.5000 
    122 N         -2.4553  -18.7333  -58.0002 N.am      22 UNK        -0.7600 
    123 O         -0.5745  -17.6715  -57.5576 O.2       22 UNK        -0.5000 
    124 C124       -1.0362  -18.4015  -54.6885 C.3       23 UNK        -0.0398 
    125 S125       -0.2905  -19.2300  -53.2456 S.3       23 UNK        -0.2404 
    126 C126        1.4758  -18.9514  -53.5937 C.3       23 UNK        -0.0205 
    127 H127        1.2751  -12.3816  -43.4929 H         1 UNK         0.0600 
    128 H128        1.9275  -13.9277  -42.9405 H         1 UNK         0.0600 
    129 H129        2.9648  -12.7845  -43.8089 H         1 UNK         0.0600 
    130 H130        3.0359  -15.2089  -44.8286 H         1 UNK         0.3000 
    131 H131        1.2484  -16.2615  -46.5452 H         1 UNK         0.0600 
    132 H132        4.2377  -16.1415  -47.2399 H         1 UNK         0.0800 
    133 H133        3.6739  -17.0017  -45.8464 H         1 UNK         0.0800 
    134 H134        4.9858  -17.9329  -49.0907 H         1 UNK         0.0800 
    135 H135        3.7478  -16.8314  -49.6577 H         1 UNK         0.0800 
    136 H136        2.4343  -17.4293  -51.5542 H         1 UNK         0.1150 
    137 H137        2.4250  -21.4513  -53.0365 H         1 UNK         0.1150 
    138 H138        4.5184  -20.4948  -49.4151 H         1 UNK         0.1150 
    139 H139        4.5260  -22.7252  -50.1517 H         1 UNK         0.0800 
    140 H140        4.4029  -22.9755  -51.8736 H         1 UNK         0.0800 
    141 H141        0.5051  -22.1886  -50.5978 H         1 UNK         0.0800 
    142 H142        1.7338  -21.6713  -49.4781 H         1 UNK         0.0800 
    143 H143       -0.0261  -24.1198  -49.0491 H         1 UNK         0.0600 
    144 H144        2.3700  -23.3513  -47.7166 H         1 UNK         0.3000 
    145 H145        1.6672  -24.7607  -44.5230 H         1 UNK         0.0600 
    146 H146        2.3719  -26.7015  -45.9367 H         1 UNK         0.0600 
    147 H147        3.7214  -26.0447  -45.0251 H         1 UNK         0.0600 
    148 H148        3.5628  -25.6900  -46.7460 H         1 UNK         0.0600 
    149 H149        4.0421  -23.5957  -45.4397 H         1 UNK         0.3000 
    150 H150        4.4652  -21.3965  -44.1120 H         1 UNK         0.0600 
    151 H151        3.7654  -20.8527  -47.0493 H         1 UNK         0.0600 
    152 H152        5.0916  -21.8238  -46.4313 H         1 UNK         0.0600 
    153 H153        5.1211  -20.0831  -46.2250 H         1 UNK         0.0600 
    154 H154        2.6896  -19.3271  -45.2795 H         1 UNK         0.3000 
    155 H155        1.8570  -17.6850  -44.0394 H         1 UNK         0.0600 
    156 H156        0.5463  -19.1381  -41.6800 H         1 UNK         0.0600 
    157 H157        0.2082  -19.5413  -43.3489 H         1 UNK         0.0600 
    158 H158       -0.1839  -17.9388  -42.7441 H         1 UNK         0.0600 
    159 H159        2.0041  -17.4256  -41.1415 H         1 UNK         0.3000 
    160 H160        4.5462  -16.3507  -40.4146 H         1 UNK         0.0600 
    161 H161        4.0179  -13.6522  -41.7577 H         1 UNK         0.0600 
    162 H162        5.5073  -14.5834  -41.8631 H         1 UNK         0.0600 
    163 H163        4.9966  -13.9214  -40.3212 H         1 UNK         0.0600 
    164 H164        2.0769  -14.6585  -40.4192 H         1 UNK         0.3000 
    165 H165        0.7190  -16.3763  -37.6904 H         1 UNK         0.0600 
    166 H166        2.2123  -14.8220  -36.4244 H         1 UNK         0.0600 
    167 H167        1.8652  -13.5350  -37.5727 H         1 UNK         0.0600 
    168 H168        0.5825  -14.1810  -36.5477 H         1 UNK         0.0600 
    169 H169       -0.1355  -13.9937  -38.9639 H         1 UNK         0.3000 
    170 H170       -2.4595  -14.7375  -40.2032 H         1 UNK         0.0600 
    171 H171       -1.8332  -13.0787  -41.9972 H         1 UNK         0.0600 
    172 H172       -0.1866  -13.6939  -41.9714 H         1 UNK         0.0600 
    173 H173       -0.8550  -12.8849  -40.5573 H         1 UNK         0.0600 
    174 H174       -1.4399  -15.6674  -42.8350 H         1 UNK         0.3000 
    175 H175       -2.4454  -18.0299  -43.4852 H         1 UNK         0.0600 
    176 H176       -4.5749  -18.8868  -42.5810 H         1 UNK         0.0600 
    177 H177       -5.4514  -17.5132  -43.2491 H         1 UNK         0.0600 
    178 H178       -4.6938  -18.6909  -44.3198 H         1 UNK         0.0600 
    179 H179       -4.1863  -16.2296  -44.9294 H         1 UNK         0.3000 
    180 H180       -3.3484  -15.3738  -46.8665 H         1 UNK         0.0600 
    181 H181       -1.8991  -13.1541  -45.3304 H         1 UNK         0.0600 
    182 H182       -3.6227  -13.4762  -45.3468 H         1 UNK         0.0600 
    183 H183       -2.8302  -12.9078  -46.8078 H         1 UNK         0.0600 
    184 H184       -0.6166  -14.3563  -47.1833 H         1 UNK         0.3000 
    185 H185        0.6799  -17.0314  -48.7844 H         1 UNK         0.0600 
    186 H186        0.5996  -16.1503  -51.1476 H         1 UNK         0.0600 
    187 H187       -0.7812  -17.1314  -50.7056 H         1 UNK         0.0600 
    188 H188       -0.9339  -15.3766  -50.7684 H         1 UNK         0.0600 
    189 H189        0.9812  -14.2979  -49.5960 H         1 UNK         0.3000 
    190 H190        0.7966  -21.2535  -47.0653 H         1 UNK         0.3000 
    191 H191       -1.7141  -19.8894  -47.4945 H         1 UNK         0.0600 
    192 H192        0.1980  -18.5480  -46.9865 H         1 UNK         0.0600 
    193 H193       -0.8176  -18.4729  -45.5580 H         1 UNK         0.0600 
    194 H194        0.6131  -19.4963  -45.5697 H         1 UNK         0.0600 
    195 H195       -0.4145  -22.0396  -44.9461 H         1 UNK         0.3000 
    196 H196       -2.6708  -21.9854  -43.2143 H         1 UNK         0.0600 
    197 H197       -1.6895  -24.0802  -42.3043 H         1 UNK         0.0600 
    198 H198       -0.4337  -22.8785  -42.5712 H         1 UNK         0.0600 
    199 H199       -0.6276  -24.2184  -43.6994 H         1 UNK         0.0600 
    200 H200       -1.9853  -23.9051  -46.1362 H         1 UNK         0.3000 
    201 H201       -4.4538  -25.4440  -46.0353 H         1 UNK         0.0600 
    202 H202       -3.6702  -26.2585  -48.2471 H         1 UNK         0.0600 
    203 H203       -2.3705  -26.3370  -47.0691 H         1 UNK         0.0600 
    204 H204       -2.3949  -25.0481  -48.2702 H         1 UNK         0.0600 
    205 H205       -3.9165  -22.2182  -46.6761 H         1 UNK         0.3000 
    206 H206       -5.0103  -20.5336  -47.5405 H         1 UNK         0.0600 
    207 H207       -6.9644  -21.5575  -46.3351 H         1 UNK         0.0600 
    208 H208       -7.4402  -20.6028  -47.7270 H         1 UNK         0.0600 
    209 H209       -7.4490  -22.3580  -47.8304 H         1 UNK         0.0600 
    210 H210       -3.3172  -21.8338  -49.3011 H         1 UNK         0.3000 
    211 H211       -4.2624  -22.3902  -51.8464 H         1 UNK         0.0600 
    212 H212       -1.9124  -21.8014  -52.5707 H         1 UNK         0.0600 
    213 H213       -1.9551  -22.8357  -51.1534 H         1 UNK         0.0600 
    214 H214       -1.6253  -21.1079  -50.9838 H         1 UNK         0.0600 
    215 H215       -3.8590  -19.1858  -50.4143 H         1 UNK         0.3000 
    216 H216       -4.0672  -17.6632  -52.8460 H         1 UNK         0.0600 
    217 H217       -3.1111  -16.7070  -50.7747 H         1 UNK         0.0600 
    218 H218       -4.6435  -16.8997  -49.9309 H         1 UNK         0.0600 
    219 H219       -4.5068  -15.7679  -51.2724 H         1 UNK         0.0600 
    220 H220       -6.4530  -18.9422  -50.5158 H         1 UNK         0.3000 
    221 H221       -8.7300  -17.5685  -51.7274 H         1 UNK         0.0600 
    222 H222       -8.6264  -19.7797  -49.6084 H         1 UNK         0.0600 
    223 H223       -8.6345  -18.0482  -49.2694 H         1 UNK         0.0600 
    224 H224      -10.0266  -18.8053  -50.0290 H         1 UNK         0.0600 
    225 H225       -7.2870  -20.8270  -51.7263 H         1 UNK         0.3000 
    226 H226       -9.2462  -22.0836  -53.4128 H         1 UNK         0.0600 
    227 H227       -7.7048  -23.3101  -51.8577 H         1 UNK         0.0600 
    228 H228       -7.5574  -23.9001  -53.5067 H         1 UNK         0.0600 
    229 H229       -6.3269  -22.8319  -52.8471 H         1 UNK         0.0600 
    230 H230       -6.7741  -19.8416  -54.1093 H         1 UNK         0.3000 
    231 H231       -5.9161  -18.8805  -55.8795 H         1 UNK         0.0600 
    232 H232       -7.9289  -20.3565  -57.6530 H         1 UNK         0.0600 
    233 H233       -7.0256  -18.9069  -58.0614 H         1 UNK         0.0600 
    234 H234       -8.2509  -18.8433  -56.8058 H         1 UNK         0.0600 
    235 H235       -4.9766  -21.5138  -54.9169 H         1 UNK         0.3000 
    236 H236       -3.6998  -22.9064  -57.1256 H         1 UNK         0.0600 
    237 H237       -2.4974  -24.0841  -55.2656 H         1 UNK         0.0600 
    238 H238       -3.2282  -22.9890  -54.0992 H         1 UNK         0.0600 
    239 H239       -4.2386  -24.0929  -55.0264 H         1 UNK         0.0600 
    240 H240       -2.9453  -20.1620  -55.0609 H         1 UNK         0.3000 
    241 H241       -0.2157  -19.8343  -56.0575 H         1 UNK         0.0600 
    242 H242       -3.1414  -19.4469  -57.7906 H         1 UNK         0.3800 
    243 H243       -2.5574  -18.1880  -58.8417 H         1 UNK         0.3800 
    244 H244       -0.4287  -17.5260  -54.9238 H         1 UNK         0.0800 
    245 H245       -2.0126  -18.0124  -54.3966 H         1 UNK         0.0800 
    246 H246        1.7593  -19.4963  -54.4953 H         1 UNK         0.0800 
    247 H247        1.6462  -17.8946  -53.8050 H         1 UNK         0.0800 
@<TRIPOS>BOND
     1    1    2 1    
     2    1  127 1    
     3    1  128 1    
     4    1  129 1    
     5    2    3 2    
     6    2    4 am   BACKBONE|DICT|INTERRES
     7    4    5 1    
     8    4  130 1    
     9    5    6 1    
    10    5   65 1    
    11    5  131 1    
    12    6    7 1    
    13    6  132 1    
    14    6  133 1    
    15    7    8 1    
    16    8    9 1    
    17    8  134 1    
    18    8  135 1    
    19    9   10 ar   
    20    9   14 ar   
    21   10   11 ar   
    22   10  136 1    
    23   11   12 ar   
    24   11  126 1    
    25   12   13 ar   
    26   12  137 1    
    27   13   14 ar   
    28   13   15 1    
    29   14  138 1    
    30   15   16 1    
    31   15  139 1    
    32   15  140 1    
    33   16   17 1    
    34   17   18 1    
    35   17  141 1    
    36   17  142 1    
    37   18   19 1    
    38   18   67 1    
    39   18  143 1    
    40   19   20 am   BACKBONE|DICT|INTERRES
    41   19  144 1    
    42   20   21 2    
    43   20   22 1    
    44   22   23 1    
    45   22   24 1    
    46   22  145 1    
    47   23  146 1    
    48   23  147 1    
    49   23  148 1    
    50   24   25 am   BACKBONE|DICT|INTERRES
    51   24  149 1    
    52   25   26 2    
    53   25   27 1    
    54   27   28 1    
    55   27   29 1    
    56   27  150 1    
    57   28  151 1    
    58   28  152 1    
    59   28  153 1    
    60   29   30 am   BACKBONE|DICT|INTERRES
    61   29  154 1    
    62   30   31 2    
    63   30   32 1    
    64   32   33 1    
    65   32   34 1    
    66   32  155 1    
    67   33  156 1    
    68   33  157 1    
    69   33  158 1    
    70   34   35 am   BACKBONE|DICT|INTERRES
    71   34  159 1    
    72   35   36 2    
    73   35   37 1    
    74   37   38 1    
    75   37   39 1    
    76   37  160 1    
    77   38  161 1    
    78   38  162 1    
    79   38  163 1    
    80   39   40 am   BACKBONE|DICT|INTERRES
    81   39  164 1    
    82   40   41 2    
    83   40   42 1    
    84   42   43 1    
    85   42   44 1    
    86   42  165 1    
    87   43  166 1    
    88   43  167 1    
    89   43  168 1    
    90   44   45 am   BACKBONE|DICT|INTERRES
    91   44  169 1    
    92   45   46 2    
    93   45   47 1    
    94   47   48 1    
    95   47   49 1    
    96   47  170 1    
    97   48  171 1    
    98   48  172 1    
    99   48  173 1    
   100   49   50 am   BACKBONE|DICT|INTERRES
   101   49  174 1    
   102   50   51 2    
   103   50   52 1    
   104   52   53 1    
   105   52   54 1    
   106   52  175 1    
   107   53  176 1    
   108   53  177 1    
   109   53  178 1    
   110   54   55 am   BACKBONE|DICT|INTERRES
   111   54  179 1    
   112   55   56 2    
   113   55   57 1    
   114   57   58 1    
   115   57   59 1    
   116   57  180 1    
   117   58  181 1    
   118   58  182 1    
   119   58  183 1    
   120   59   60 am   BACKBONE|DICT|INTERRES
   121   59  184 1    
   122   60   61 2    
   123   60   62 1    
   124   62   63 1    
   125   62   64 1    
   126   62  185 1    
   127   63  186 1    
   128   63  187 1    
   129   63  188 1    
   130   64   65 am   BACKBONE|DICT|INTERRES
   131   64  189 1    
   132   65   66 2    
   133   67   68 2    
   134   67   69 am   BACKBONE|DICT|INTERRES
   135   69   70 1    
   136   69  190 1    
   137   70   71 1    
   138   70   72 1    
   139   70  191 1    
   140   71  192 1    
   141   71  193 1    
   142   71  194 1    
   143   72   73 2    
   144   72   74 am   BACKBONE|DICT|INTERRES
   145   74   75 1    
   146   74  195 1    
   147   75   76 1    
   148   75   77 1    
   149   75  196 1    
   150   76  197 1    
   151   76  198 1    
   152   76  199 1    
   153   77   78 2    
   154   77   79 am   BACKBONE|DICT|INTERRES
   155   79   80 1    
   156   79  200 1    
   157   80   81 1    
   158   80   82 1    
   159   80  201 1    
   160   81  202 1    
   161   81  203 1    
   162   81  204 1    
   163   82   83 2    
   164   82   84 am   BACKBONE|DICT|INTERRES
   165   84   85 1    
   166   84  205 1    
   167   85   86 1    
   168   85   87 1    
   169   85  206 1    
   170   86  207 1    
   171   86  208 1    
   172   86  209 1    
   173   87   88 2    
   174   87   89 am   BACKBONE|DICT|INTERRES
   175   89   90 1    
   176   89  210 1    
   177   90   91 1    
   178   90   92 1    
   179   90  211 1    
   180   91  212 1    
   181   91  213 1    
   182   91  214 1    
   183   92   93 2    
   184   92   94 am   BACKBONE|DICT|INTERRES
   185   94   95 1    
   186   94  215 1    
   187   95   96 1    
   188   95   97 1    
   189   95  216 1    
   190   96  217 1    
   191   96  218 1    
   192   96  219 1    
   193   97   98 2    
   194   97   99 am   BACKBONE|DICT|INTERRES
   195   99  100 1    
   196   99  220 1    
   197  100  101 1    
   198  100  102 1    
   199  100  221 1    
   200  101  222 1    
   201  101  223 1    
   202  101  224 1    
   203  102  103 2    
   204  102  104 am   BACKBONE|DICT|INTERRES
   205  104  105 1    
   206  104  225 1    
   207  105  106 1    
   208  105  107 1    
   209  105  226 1    
   210  106  227 1    
   211  106  228 1    
   212  106  229 1    
   213  107  108 2    
   214  107  109 am   BACKBONE|DICT|INTERRES
   215  109  110 1    
   216  109  230 1    
   217  110  111 1    
   218  110  112 1    
   219  110  231 1    
   220  111  232 1    
   221  111  233 1    
   222  111  234 1    
   223  112  113 2    
   224  112  114 am   BACKBONE|DICT|INTERRES
   225  114  115 1    
   226  114  235 1    
   227  115  116 1    
   228  115  117 1    
   229  115  236 1    
   230  116  237 1    
   231  116  238 1    
   232  116  239 1    
   233  117  118 2    
   234  117  119 am   BACKBONE|DICT|INTERRES
   235  119  120 1    
   236  119  240 1    
   237  120  121 1    
   238  120  124 1    
   239  120  241 1    
   240  121  122 am   BACKBONE|DICT|INTERRES
   241  121  123 2    
   242  122  242 1    
   243  122  243 1    
   244  124  125 1    
   245  124  244 1    
   246  124  245 1    
   247  125  126 1    
   248  126  246 1    
   249  126  247 1    
@<TRIPOS>SUBSTRUCTURE
     1 UNK         1 GROUP             0       ****    0 ROOT    
