@<TRIPOS>MOLECULE
3R540
247   249    1
SMALL
USER_CHARGES


@<TRIPOS>ATOM
      1 CA         -1.1495  -15.2452  -47.1411 C.3       0 UNK        -0.1800 
      2 C          -0.1768  -14.5685  -48.0967 C.2       0 UNK         0.5000 
      3 O          -0.3381  -13.3870  -48.3984 O.2       0 UNK        -0.5000 
      4 N           0.8530  -15.3020  -48.5387 N.am      1 UNK        -0.5000 
      5 CA          1.9281  -14.8759  -49.4516 C.3       1 UNK         0.1400 
      6 C6          2.8854  -16.0467  -49.8217 C.3       23 UNK        -0.0398 
      7 S7          3.2694  -17.1757  -48.4241 S.3       23 UNK        -0.2404 
      8 C8          3.0536  -18.8477  -49.1391 C.3       23 UNK        -0.0205 
      9 C9          1.7801  -19.0259  -49.9597 C.ar      23 UNK        -0.0193 
     10 C10         1.8552  -19.5817  -51.2413 C.ar      23 UNK        -0.1150 
     11 C11         0.7101  -19.7020  -52.0327 C.ar      23 UNK        -0.0193 
     12 C12        -0.5173  -19.2603  -51.5334 C.ar      23 UNK        -0.1150 
     13 C13        -0.6100  -18.7114  -50.2534 C.ar      23 UNK        -0.0193 
     14 C14         0.5390  -18.6144  -49.4629 C.ar      23 UNK        -0.1150 
     15 C15        -1.9478  -18.1949  -49.7488 C.3       23 UNK        -0.0205 
     16 S16        -2.9175  -19.4979  -48.9357 S.3       23 UNK        -0.2404 
     17 C17        -2.0021  -19.7167  -47.3767 C.3       23 UNK        -0.0398 
     18 CA         -1.1357  -20.9997  -47.3699 C.3       11 UNK         0.1400 
     19 N          -0.0109  -20.8922  -46.4297 N.am      11 UNK        -0.5000 
     20 C           0.9338  -21.8218  -46.2238 C.2       10 UNK         0.5000 
     21 O           0.9831  -22.8852  -46.8372 O.2       10 UNK        -0.5000 
     22 CA          1.9487  -21.5635  -45.0953 C.3       10 UNK         0.1400 
     23 CB          3.0736  -20.6253  -45.5551 C.3       10 UNK        -0.1800 
     24 N           1.3032  -21.0345  -43.8937 N.am      10 UNK        -0.5000 
     25 C           0.4546  -21.7378  -43.1292 C.2       9 UNK         0.5000 
     26 O           0.2223  -22.9346  -43.2968 O.2       9 UNK        -0.5000 
     27 CA         -0.2976  -20.9717  -42.0237 C.3       9 UNK         0.1400 
     28 CB          0.5224  -20.9350  -40.7259 C.3       9 UNK        -0.1800 
     29 N          -0.6554  -19.6088  -42.4223 N.am      9 UNK        -0.5000 
     30 C          -1.5055  -19.3065  -43.4144 C.2       8 UNK         0.5000 
     31 O          -2.1348  -20.1519  -44.0506 O.2       8 UNK        -0.5000 
     32 CA         -1.6189  -17.8200  -43.8061 C.3       8 UNK         0.1400 
     33 CB         -2.5846  -17.0710  -42.8774 C.3       8 UNK        -0.1800 
     34 N          -0.3159  -17.1530  -43.8078 N.am      8 UNK        -0.5000 
     35 C           0.6797  -17.4450  -44.6554 C.2       7 UNK         0.5000 
     36 O           0.5598  -18.2261  -45.5970 O.2       7 UNK        -0.5000 
     37 CA          2.0455  -16.7944  -44.3851 C.3       7 UNK         0.1400 
     38 CB          2.1492  -15.4273  -45.0692 C.3       7 UNK        -0.1800 
     39 N           2.3022  -16.6496  -42.9543 N.am      7 UNK        -0.5000 
     40 C           2.6593  -17.6600  -42.1502 C.2       6 UNK         0.5000 
     41 O           2.8461  -18.8095  -42.5470 O.2       6 UNK        -0.5000 
     42 CA          2.7957  -17.3405  -40.6489 C.3       6 UNK         0.1400 
     43 CB          4.2169  -16.8538  -40.3298 C.3       6 UNK        -0.1800 
     44 N           1.8301  -16.3385  -40.1937 N.am      6 UNK        -0.5000 
     45 C           0.5047  -16.5325  -40.1413 C.2       5 UNK         0.5000 
     46 O          -0.0367  -17.6033  -40.4128 O.2       5 UNK        -0.5000 
     47 CA         -0.3637  -15.3080  -39.7894 C.3       5 UNK         0.1400 
     48 CB         -0.5551  -15.2022  -38.2694 C.3       5 UNK        -0.1800 
     49 N           0.1745  -14.0424  -40.3021 N.am      5 UNK        -0.5000 
     50 C           0.3906  -13.7742  -41.5971 C.2       4 UNK         0.5000 
     51 O           0.1606  -14.5796  -42.5015 O.2       4 UNK        -0.5000 
     52 CA          1.0489  -12.4169  -41.9107 C.3       4 UNK         0.1400 
     53 CB          2.5457  -12.4671  -41.5613 C.3       4 UNK        -0.1800 
     54 N           0.9276  -12.0181  -43.3129 N.am      4 UNK        -0.5000 
     55 C          -0.2036  -11.7363  -43.9679 C.2       3 UNK         0.5000 
     56 O          -1.3172  -11.7734  -43.4425 O.2       3 UNK        -0.5000 
     57 CA         -0.0938  -11.3250  -45.4548 C.3       3 UNK         0.1400 
     58 CB         -0.2037   -9.7955  -45.6024 C.3       3 UNK        -0.1800 
     59 N           1.0696  -11.8329  -46.2037 N.am      3 UNK        -0.5000 
     60 C           2.3779  -11.5823  -46.0261 C.2       2 UNK         0.5000 
     61 O           2.8191  -10.9021  -45.0999 O.2       2 UNK        -0.5000 
     62 CA          3.3579  -12.2153  -47.0347 C.3       2 UNK         0.1400 
     63 CB          4.7056  -12.5938  -46.3935 C.3       2 UNK        -0.1800 
     64 N           2.7726  -13.3987  -47.6657 N.am      2 UNK        -0.5000 
     65 C           2.7188  -13.6314  -48.9824 C.2       1 UNK         0.5000 
     66 O           3.2388  -12.8992  -49.8257 O.2       1 UNK        -0.5000 
     67 C          -2.0114  -22.2444  -47.1124 C.2       11 UNK         0.5000 
     68 O          -2.4183  -22.9201  -48.0599 O.2       11 UNK        -0.5000 
     69 N          -2.2431  -22.5566  -45.8307 N.am      12 UNK        -0.5000 
     70 CA         -2.9686  -23.7410  -45.3686 C.3       12 UNK         0.1400 
     71 CB         -3.2177  -23.6216  -43.8578 C.3       12 UNK        -0.1800 
     72 C          -2.2841  -25.0822  -45.7134 C.2       12 UNK         0.5000 
     73 O          -2.9537  -26.1140  -45.6683 O.2       12 UNK        -0.5000 
     74 N          -0.9920  -25.0536  -46.0673 N.am      13 UNK        -0.5000 
     75 CA         -0.2309  -26.2057  -46.5459 C.3       13 UNK         0.1400 
     76 CB          1.1105  -26.2712  -45.7975 C.3       13 UNK        -0.1800 
     77 C          -0.0032  -26.1306  -48.0665 C.2       13 UNK         0.5000 
     78 O          -0.2096  -27.1290  -48.7563 O.2       13 UNK        -0.5000 
     79 N           0.4302  -24.9613  -48.5590 N.am      14 UNK        -0.5000 
     80 CA          0.8237  -24.7203  -49.9477 C.3       14 UNK         0.1400 
     81 CB          1.5683  -23.3766  -50.0432 C.3       14 UNK        -0.1800 
     82 C          -0.3612  -24.7571  -50.9251 C.2       14 UNK         0.5000 
     83 O          -0.3264  -25.5119  -51.8979 O.2       14 UNK        -0.5000 
     84 N          -1.3848  -23.9433  -50.6435 N.am      15 UNK        -0.5000 
     85 CA         -2.5921  -23.8298  -51.4609 C.3       15 UNK         0.1400 
     86 CB         -3.0711  -22.3699  -51.4286 C.3       15 UNK        -0.1800 
     87 C          -3.7140  -24.7538  -50.9592 C.2       15 UNK         0.5000 
     88 O          -4.6374  -25.0413  -51.7205 O.2       15 UNK        -0.5000 
     89 N          -3.6216  -25.1674  -49.6847 N.am      16 UNK        -0.5000 
     90 CA         -4.6916  -25.7397  -48.8605 C.3       16 UNK         0.1400 
     91 CB         -5.2168  -27.0738  -49.4318 C.3       16 UNK        -0.1800 
     92 C          -5.7921  -24.6882  -48.6012 C.2       16 UNK         0.5000 
     93 O          -6.9807  -24.9923  -48.7148 O.2       16 UNK        -0.5000 
     94 N          -5.3368  -23.4659  -48.2771 N.am      17 UNK        -0.5000 
     95 CA         -6.0550  -22.1878  -48.2210 C.3       17 UNK         0.1400 
     96 CB         -7.3546  -22.2620  -47.3966 C.3       17 UNK        -0.1800 
     97 C          -6.2879  -21.6136  -49.6321 C.2       17 UNK         0.5000 
     98 O          -6.4442  -22.3648  -50.5959 O.2       17 UNK        -0.5000 
     99 N          -6.2549  -20.2788  -49.7298 N.am      18 UNK        -0.5000 
    100 CA        -6.2275  -19.5343  -50.9887 C.3       18 UNK         0.1400 
    101 CB        -6.0519  -18.0369  -50.6887 C.3       18 UNK        -0.1800 
    102 C         -7.4682  -19.7603  -51.8727 C.2       18 UNK         0.5000 
    103 O         -8.5976  -19.6404  -51.3922 O.2       18 UNK        -0.5000 
    104 N         -7.2221  -20.0301  -53.1563 N.am      19 UNK        -0.5000 
    105 CA        -8.2185  -20.1649  -54.2121 C.3       19 UNK         0.1400 
    106 CB        -8.6170  -21.6447  -54.3628 C.3       19 UNK        -0.1800 
    107 C         -7.5838  -19.5689  -55.4750 C.2       19 UNK         0.5000 
    108 O         -7.1328  -20.3111  -56.3482 O.2       19 UNK        -0.5000 
    109 N         -7.4737  -18.2300  -55.4817 N.am      20 UNK        -0.5000 
    110 CA        -6.5993  -17.4220  -56.3444 C.3       20 UNK         0.1400 
    111 CB        -6.9765  -17.5515  -57.8356 C.3       20 UNK        -0.1800 
    112 C         -5.1238  -17.7572  -56.0449 C.2       20 UNK         0.5000 
    113 O         -4.3801  -18.1933  -56.9269 O.2       20 UNK        -0.5000 
    114 N         -4.7674  -17.6209  -54.7569 N.am      21 UNK        -0.5000 
    115 CA        -3.5462  -18.1271  -54.1248 C.3       21 UNK         0.1400 
    116 CB        -2.3029  -17.3506  -54.6152 C.3       21 UNK        -0.1800 
    117 C         -3.4646  -19.6590  -54.2926 C.2       21 UNK         0.5000 
    118 O         -4.4277  -20.3414  -53.9384 O.2       21 UNK        -0.5000 
    119 N         -2.3555  -20.1589  -54.8458 N.am      22 UNK        -0.5000 
    120 CA        -2.1606  -21.5689  -55.2210 C.3       22 UNK         0.1400 
    121 C         -2.8241  -21.9578  -56.5782 C.2       22 UNK         0.5000 
    122 N         -3.4658  -21.0523  -57.3084 N.am      22 UNK        -0.7600 
    123 O         -2.7632  -23.1171  -56.9786 O.2       22 UNK        -0.5000 
    124 C124       -0.6574  -21.9615  -55.1943 C.3       23 UNK        -0.0398 
    125 S125        0.0450  -21.9332  -53.5104 S.3       23 UNK        -0.2404 
    126 C126        0.7932  -20.2776  -53.4375 C.3       23 UNK        -0.0205 
    127 H127       -1.1085  -14.7674  -46.1619 H         1 UNK         0.0600 
    128 H128       -0.9213  -16.3026  -47.0116 H         1 UNK         0.0600 
    129 H129       -2.1680  -15.1625  -47.5200 H         1 UNK         0.0600 
    130 H130        0.9442  -16.2580  -48.2265 H         1 UNK         0.3000 
    131 H131        1.4299  -14.5664  -50.3728 H         1 UNK         0.0600 
    132 H132        3.8259  -15.6816  -50.2389 H         1 UNK         0.0800 
    133 H133        2.4327  -16.6122  -50.6348 H         1 UNK         0.0800 
    134 H134        3.9317  -19.0684  -49.7477 H         1 UNK         0.0800 
    135 H135        3.0502  -19.5796  -48.3321 H         1 UNK         0.0800 
    136 H136        2.8090  -19.9080  -51.6312 H         1 UNK         0.1150 
    137 H137       -1.4037  -19.3467  -52.1435 H         1 UNK         0.1150 
    138 H138        0.4769  -18.1976  -48.4687 H         1 UNK         0.1150 
    139 H139       -1.8048  -17.3563  -49.0679 H         1 UNK         0.0800 
    140 H140       -2.5268  -17.8028  -50.5859 H         1 UNK         0.0800 
    141 H141       -2.7196  -19.7124  -46.5553 H         1 UNK         0.0800 
    142 H142       -1.3829  -18.8360  -47.2166 H         1 UNK         0.0800 
    143 H143       -0.6874  -21.1204  -48.3582 H         1 UNK         0.0600 
    144 H144        0.0663  -20.0156  -45.9212 H         1 UNK         0.3000 
    145 H145        2.4035  -22.5216  -44.8345 H         1 UNK         0.0600 
    146 H146        3.7929  -20.4500  -44.7550 H         1 UNK         0.0600 
    147 H147        3.6196  -21.0602  -46.3929 H         1 UNK         0.0600 
    148 H148        2.6940  -19.6582  -45.8803 H         1 UNK         0.0600 
    149 H149        1.5047  -20.0734  -43.6466 H         1 UNK         0.3000 
    150 H150       -1.2250  -21.5119  -41.8219 H         1 UNK         0.0600 
    151 H151        0.7616  -21.9439  -40.3877 H         1 UNK         0.0600 
    152 H152       -0.0302  -20.4452  -39.9240 H         1 UNK         0.0600 
    153 H153        1.4636  -20.4021  -40.8576 H         1 UNK         0.0600 
    154 H154       -0.2347  -18.8523  -41.8909 H         1 UNK         0.3000 
    155 H155       -2.0211  -17.7709  -44.8200 H         1 UNK         0.0600 
    156 H156       -2.6687  -16.0212  -43.1596 H         1 UNK         0.0600 
    157 H157       -2.2621  -17.1134  -41.8376 H         1 UNK         0.0600 
    158 H158       -3.5843  -17.5041  -42.9270 H         1 UNK         0.0600 
    159 H159       -0.1607  -16.4321  -43.1102 H         1 UNK         0.3000 
    160 H160        2.8171  -17.4392  -44.8113 H         1 UNK         0.0600 
    161 H161        3.0852  -14.9320  -44.8148 H         1 UNK         0.0600 
    162 H162        1.3288  -14.7621  -44.8003 H         1 UNK         0.0600 
    163 H163        2.1300  -15.5587  -46.1476 H         1 UNK         0.0600 
    164 H164        2.0849  -15.7515  -42.5467 H         1 UNK         0.3000 
    165 H165        2.6168  -18.2637  -40.0938 H         1 UNK         0.0600 
    166 H166        4.3480  -16.6941  -39.2594 H         1 UNK         0.0600 
    167 H167        4.9599  -17.5895  -40.6408 H         1 UNK         0.0600 
    168 H168        4.4474  -15.9179  -40.8404 H         1 UNK         0.0600 
    169 H169        2.1942  -15.4301  -39.9477 H         1 UNK         0.3000 
    170 H170       -1.3436  -15.4584  -40.2464 H         1 UNK         0.0600 
    171 H171       -0.9748  -16.1239  -37.8639 H         1 UNK         0.0600 
    172 H172        0.3892  -15.0175  -37.7557 H         1 UNK         0.0600 
    173 H173       -1.2412  -14.3947  -38.0132 H         1 UNK         0.0600 
    174 H174        0.3993  -13.3396  -39.6125 H         1 UNK         0.3000 
    175 H175        0.5649  -11.6522  -41.3002 H         1 UNK         0.0600 
    176 H176        3.0713  -13.2175  -42.1538 H         1 UNK         0.0600 
    177 H177        3.0244  -11.5046  -41.7437 H         1 UNK         0.0600 
    178 H178        2.7025  -12.7085  -40.5094 H         1 UNK         0.0600 
    179 H179        1.7933  -11.8760  -43.8219 H         1 UNK         0.3000 
    180 H180       -0.9632  -11.7620  -45.9487 H         1 UNK         0.0600 
    181 H181       -0.2240   -9.5013  -46.6518 H         1 UNK         0.0600 
    182 H182        0.6300   -9.2803  -45.1246 H         1 UNK         0.0600 
    183 H183       -1.1211   -9.4238  -45.1441 H         1 UNK         0.0600 
    184 H184        0.8158  -12.3868  -47.0151 H         1 UNK         0.3000 
    185 H185        3.5466  -11.4451  -47.7850 H         1 UNK         0.0600 
    186 H186        5.3777  -13.0403  -47.1265 H         1 UNK         0.0600 
    187 H187        5.2092  -11.7150  -45.9891 H         1 UNK         0.0600 
    188 H188        4.5813  -13.3046  -45.5772 H         1 UNK         0.0600 
    189 H189        2.3296  -14.0610  -47.0466 H         1 UNK         0.3000 
    190 H190       -1.9159  -21.9165  -45.1145 H         1 UNK         0.3000 
    191 H191       -3.9410  -23.7424  -45.8631 H         1 UNK         0.0600 
    192 H192       -3.8403  -24.4423  -43.4994 H         1 UNK         0.0600 
    193 H193       -3.7331  -22.6923  -43.6138 H         1 UNK         0.0600 
    194 H194       -2.2876  -23.6478  -43.2916 H         1 UNK         0.0600 
    195 H195       -0.5124  -24.1618  -46.0844 H         1 UNK         0.3000 
    196 H196       -0.7697  -27.1325  -46.3384 H         1 UNK         0.0600 
    197 H197        1.7101  -25.3740  -45.9544 H         1 UNK         0.0600 
    198 H198        0.9544  -26.3822  -44.7244 H         1 UNK         0.0600 
    199 H199        1.7022  -27.1247  -46.1308 H         1 UNK         0.0600 
    200 H200        0.6031  -24.1932  -47.9118 H         1 UNK         0.3000 
    201 H201        1.5194  -25.5098  -50.2395 H         1 UNK         0.0600 
    202 H202        0.9432  -22.5401  -49.7282 H         1 UNK         0.0600 
    203 H203        1.8860  -23.1768  -51.0675 H         1 UNK         0.0600 
    204 H204        2.4620  -23.3758  -49.4191 H         1 UNK         0.0600 
    205 H205       -1.3608  -23.3859  -49.7983 H         1 UNK         0.3000 
    206 H206       -2.3713  -24.0920  -52.4978 H         1 UNK         0.0600 
    207 H207       -2.3036  -21.6847  -51.7840 H         1 UNK         0.0600 
    208 H208       -3.9471  -22.2356  -52.0637 H         1 UNK         0.0600 
    209 H209       -3.3513  -22.0605  -50.4227 H         1 UNK         0.0600 
    210 H210       -2.8093  -24.8480  -49.1739 H         1 UNK         0.3000 
    211 H211       -4.2464  -25.9616  -47.8926 H         1 UNK         0.0600 
    212 H212       -5.8860  -27.5596  -48.7211 H         1 UNK         0.0600 
    213 H213       -4.3987  -27.7653  -49.6330 H         1 UNK         0.0600 
    214 H214       -5.7761  -26.9345  -50.3569 H         1 UNK         0.0600 
    215 H215       -4.3274  -23.3584  -48.2558 H         1 UNK         0.3000 
    216 H216       -5.3757  -21.5096  -47.7013 H         1 UNK         0.0600 
    217 H217       -7.7488  -21.2628  -47.2090 H         1 UNK         0.0600 
    218 H218       -8.1355  -22.8210  -47.9124 H         1 UNK         0.0600 
    219 H219       -7.1837  -22.7320  -46.4281 H         1 UNK         0.0600 
    220 H220       -6.1475  -19.7293  -48.8904 H         1 UNK         0.3000 
    221 H221       -5.3426  -19.8723  -51.5302 H         1 UNK         0.0600 
    222 H222       -5.1345  -17.8451  -50.1334 H         1 UNK         0.0600 
    223 H223       -6.8850  -17.6450  -50.1039 H         1 UNK         0.0600 
    224 H224       -5.9974  -17.4570  -51.6106 H         1 UNK         0.0600 
    225 H225       -6.2555  -20.1339  -53.4629 H         1 UNK         0.3000 
    226 H226       -9.1108  -19.5818  -53.9743 H         1 UNK         0.0600 
    227 H227       -7.7522  -22.2760  -54.5716 H         1 UNK         0.0600 
    228 H228       -9.0885  -22.0181  -53.4536 H         1 UNK         0.0600 
    229 H229       -9.3287  -21.7761  -55.1785 H         1 UNK         0.0600 
    230 H230       -7.8961  -17.7282  -54.7129 H         1 UNK         0.3000 
    231 H231       -6.7498  -16.3797  -56.0591 H         1 UNK         0.0600 
    232 H232       -6.7839  -18.5504  -58.2270 H         1 UNK         0.0600 
    233 H233       -6.3981  -16.8524  -58.4404 H         1 UNK         0.0600 
    234 H234       -8.0306  -17.3259  -57.9960 H         1 UNK         0.0600 
    235 H235       -5.4642  -17.2664  -54.1188 H         1 UNK         0.3000 
    236 H236       -3.6490  -17.9439  -53.0543 H         1 UNK         0.0600 
    237 H237       -2.1073  -17.5043  -55.6768 H         1 UNK         0.0600 
    238 H238       -2.4312  -16.2795  -54.4590 H         1 UNK         0.0600 
    239 H239       -1.4094  -17.6446  -54.0635 H         1 UNK         0.0600 
    240 H240       -1.6403  -19.5174  -55.1517 H         1 UNK         0.3000 
    241 H241       -2.6671  -22.1851  -54.4758 H         1 UNK         0.0600 
    242 H242       -3.8932  -21.3391  -58.1743 H         1 UNK         0.3800 
    243 H243       -3.5824  -20.0949  -56.9968 H         1 UNK         0.3800 
    244 H244       -0.0731  -21.3211  -55.8567 H         1 UNK         0.0800 
    245 H245       -0.5205  -22.9788  -55.5649 H         1 UNK         0.0800 
    246 H246        1.8290  -20.3408  -53.7738 H         1 UNK         0.0800 
    247 H247        0.2904  -19.5982  -54.1250 H         1 UNK         0.0800 
@<TRIPOS>BOND
     1    1    2 1    
     2    1  127 1    
     3    1  128 1    
     4    1  129 1    
     5    2    3 2    
     6    2    4 am   BACKBONE|DICT|INTERRES
     7    4    5 1    
     8    4  130 1    
     9    5    6 1    
    10    5   65 1    
    11    5  131 1    
    12    6    7 1    
    13    6  132 1    
    14    6  133 1    
    15    7    8 1    
    16    8    9 1    
    17    8  134 1    
    18    8  135 1    
    19    9   10 ar   
    20    9   14 ar   
    21   10   11 ar   
    22   10  136 1    
    23   11   12 ar   
    24   11  126 1    
    25   12   13 ar   
    26   12  137 1    
    27   13   14 ar   
    28   13   15 1    
    29   14  138 1    
    30   15   16 1    
    31   15  139 1    
    32   15  140 1    
    33   16   17 1    
    34   17   18 1    
    35   17  141 1    
    36   17  142 1    
    37   18   19 1    
    38   18   67 1    
    39   18  143 1    
    40   19   20 am   BACKBONE|DICT|INTERRES
    41   19  144 1    
    42   20   21 2    
    43   20   22 1    
    44   22   23 1    
    45   22   24 1    
    46   22  145 1    
    47   23  146 1    
    48   23  147 1    
    49   23  148 1    
    50   24   25 am   BACKBONE|DICT|INTERRES
    51   24  149 1    
    52   25   26 2    
    53   25   27 1    
    54   27   28 1    
    55   27   29 1    
    56   27  150 1    
    57   28  151 1    
    58   28  152 1    
    59   28  153 1    
    60   29   30 am   BACKBONE|DICT|INTERRES
    61   29  154 1    
    62   30   31 2    
    63   30   32 1    
    64   32   33 1    
    65   32   34 1    
    66   32  155 1    
    67   33  156 1    
    68   33  157 1    
    69   33  158 1    
    70   34   35 am   BACKBONE|DICT|INTERRES
    71   34  159 1    
    72   35   36 2    
    73   35   37 1    
    74   37   38 1    
    75   37   39 1    
    76   37  160 1    
    77   38  161 1    
    78   38  162 1    
    79   38  163 1    
    80   39   40 am   BACKBONE|DICT|INTERRES
    81   39  164 1    
    82   40   41 2    
    83   40   42 1    
    84   42   43 1    
    85   42   44 1    
    86   42  165 1    
    87   43  166 1    
    88   43  167 1    
    89   43  168 1    
    90   44   45 am   BACKBONE|DICT|INTERRES
    91   44  169 1    
    92   45   46 2    
    93   45   47 1    
    94   47   48 1    
    95   47   49 1    
    96   47  170 1    
    97   48  171 1    
    98   48  172 1    
    99   48  173 1    
   100   49   50 am   BACKBONE|DICT|INTERRES
   101   49  174 1    
   102   50   51 2    
   103   50   52 1    
   104   52   53 1    
   105   52   54 1    
   106   52  175 1    
   107   53  176 1    
   108   53  177 1    
   109   53  178 1    
   110   54   55 am   BACKBONE|DICT|INTERRES
   111   54  179 1    
   112   55   56 2    
   113   55   57 1    
   114   57   58 1    
   115   57   59 1    
   116   57  180 1    
   117   58  181 1    
   118   58  182 1    
   119   58  183 1    
   120   59   60 am   BACKBONE|DICT|INTERRES
   121   59  184 1    
   122   60   61 2    
   123   60   62 1    
   124   62   63 1    
   125   62   64 1    
   126   62  185 1    
   127   63  186 1    
   128   63  187 1    
   129   63  188 1    
   130   64   65 am   BACKBONE|DICT|INTERRES
   131   64  189 1    
   132   65   66 2    
   133   67   68 2    
   134   67   69 am   BACKBONE|DICT|INTERRES
   135   69   70 1    
   136   69  190 1    
   137   70   71 1    
   138   70   72 1    
   139   70  191 1    
   140   71  192 1    
   141   71  193 1    
   142   71  194 1    
   143   72   73 2    
   144   72   74 am   BACKBONE|DICT|INTERRES
   145   74   75 1    
   146   74  195 1    
   147   75   76 1    
   148   75   77 1    
   149   75  196 1    
   150   76  197 1    
   151   76  198 1    
   152   76  199 1    
   153   77   78 2    
   154   77   79 am   BACKBONE|DICT|INTERRES
   155   79   80 1    
   156   79  200 1    
   157   80   81 1    
   158   80   82 1    
   159   80  201 1    
   160   81  202 1    
   161   81  203 1    
   162   81  204 1    
   163   82   83 2    
   164   82   84 am   BACKBONE|DICT|INTERRES
   165   84   85 1    
   166   84  205 1    
   167   85   86 1    
   168   85   87 1    
   169   85  206 1    
   170   86  207 1    
   171   86  208 1    
   172   86  209 1    
   173   87   88 2    
   174   87   89 am   BACKBONE|DICT|INTERRES
   175   89   90 1    
   176   89  210 1    
   177   90   91 1    
   178   90   92 1    
   179   90  211 1    
   180   91  212 1    
   181   91  213 1    
   182   91  214 1    
   183   92   93 2    
   184   92   94 am   BACKBONE|DICT|INTERRES
   185   94   95 1    
   186   94  215 1    
   187   95   96 1    
   188   95   97 1    
   189   95  216 1    
   190   96  217 1    
   191   96  218 1    
   192   96  219 1    
   193   97   98 2    
   194   97   99 am   BACKBONE|DICT|INTERRES
   195   99  100 1    
   196   99  220 1    
   197  100  101 1    
   198  100  102 1    
   199  100  221 1    
   200  101  222 1    
   201  101  223 1    
   202  101  224 1    
   203  102  103 2    
   204  102  104 am   BACKBONE|DICT|INTERRES
   205  104  105 1    
   206  104  225 1    
   207  105  106 1    
   208  105  107 1    
   209  105  226 1    
   210  106  227 1    
   211  106  228 1    
   212  106  229 1    
   213  107  108 2    
   214  107  109 am   BACKBONE|DICT|INTERRES
   215  109  110 1    
   216  109  230 1    
   217  110  111 1    
   218  110  112 1    
   219  110  231 1    
   220  111  232 1    
   221  111  233 1    
   222  111  234 1    
   223  112  113 2    
   224  112  114 am   BACKBONE|DICT|INTERRES
   225  114  115 1    
   226  114  235 1    
   227  115  116 1    
   228  115  117 1    
   229  115  236 1    
   230  116  237 1    
   231  116  238 1    
   232  116  239 1    
   233  117  118 2    
   234  117  119 am   BACKBONE|DICT|INTERRES
   235  119  120 1    
   236  119  240 1    
   237  120  121 1    
   238  120  124 1    
   239  120  241 1    
   240  121  122 am   BACKBONE|DICT|INTERRES
   241  121  123 2    
   242  122  242 1    
   243  122  243 1    
   244  124  125 1    
   245  124  244 1    
   246  124  245 1    
   247  125  126 1    
   248  126  246 1    
   249  126  247 1    
@<TRIPOS>SUBSTRUCTURE
     1 UNK         1 GROUP             0       ****    0 ROOT    
