@<TRIPOS>MOLECULE
3R540
247   249    1
SMALL
USER_CHARGES


@<TRIPOS>ATOM
      1 CA         -3.9961  -17.5089  -43.9418 C.3       0 UNK        -0.1800 
      2 C          -3.7738  -16.0078  -44.0684 C.2       0 UNK         0.5000 
      3 O          -4.0521  -15.2590  -43.1322 O.2       0 UNK        -0.5000 
      4 N          -3.2564  -15.5685  -45.2213 N.am      1 UNK        -0.5000 
      5 CA         -2.9928  -14.1726  -45.5928 C.3       1 UNK         0.1400 
      6 C6         -2.9735  -13.9910  -47.1354 C.3       23 UNK        -0.0398 
      7 S7         -4.6061  -14.2471  -47.9225 S.3       23 UNK        -0.2404 
      8 C8         -4.6990  -16.0424  -48.2375 C.3       23 UNK        -0.0205 
      9 C9         -3.7063  -16.5241  -49.2853 C.ar      23 UNK        -0.0193 
     10 C10        -4.0635  -16.5680  -50.6354 C.ar      23 UNK        -0.1150 
     11 C11        -3.1665  -17.0555  -51.5914 C.ar      23 UNK        -0.0193 
     12 C12        -1.9007  -17.4964  -51.1911 C.ar      23 UNK        -0.1150 
     13 C13        -1.5316  -17.4493  -49.8441 C.ar      23 UNK        -0.0193 
     14 C14        -2.4405  -16.9678  -48.9000 C.ar      23 UNK        -0.1150 
     15 C15        -0.1516  -17.9065  -49.3977 C.3       23 UNK        -0.0205 
     16 S16        -0.0930  -19.6913  -49.0471 S.3       23 UNK        -0.2404 
     17 C17        -1.3398  -19.8604  -47.7310 C.3       23 UNK        -0.0398 
     18 CA         -1.2387  -21.2234  -47.0159 C.3       11 UNK         0.1400 
     19 N          -0.0507  -21.3298  -46.1631 N.am      11 UNK        -0.5000 
     20 C           0.4506  -22.4929  -45.7288 C.2       10 UNK         0.5000 
     21 O          -0.0467  -23.5893  -45.9850 O.2       10 UNK        -0.5000 
     22 CA          1.6713  -22.4015  -44.8030 C.3       10 UNK         0.1400 
     23 CB          2.8767  -21.7723  -45.5211 C.3       10 UNK        -0.1800 
     24 N           1.3822  -21.6562  -43.5767 N.am      10 UNK        -0.5000 
     25 C           0.5406  -22.0628  -42.6165 C.2       9 UNK         0.5000 
     26 O          -0.1894  -23.0479  -42.7223 O.2       9 UNK        -0.5000 
     27 CA          0.4995  -21.2326  -41.3268 C.3       9 UNK         0.1400 
     28 CB          1.8454  -21.2924  -40.5856 C.3       9 UNK        -0.1800 
     29 N           0.1584  -19.8382  -41.5993 N.am      9 UNK        -0.5000 
     30 C          -0.8096  -19.1587  -40.9716 C.2       8 UNK         0.5000 
     31 O          -1.5638  -19.6562  -40.1333 O.2       8 UNK        -0.5000 
     32 CA         -0.9392  -17.6657  -41.3389 C.3       8 UNK         0.1400 
     33 CB         -2.0334  -16.9311  -40.5367 C.3       8 UNK        -0.1800 
     34 N           0.3317  -16.9389  -41.2456 N.am      8 UNK        -0.5000 
     35 C           1.1231  -16.8131  -40.1679 C.2       7 UNK         0.5000 
     36 O           0.8920  -17.3215  -39.0696 O.2       7 UNK        -0.5000 
     37 CA          2.3846  -15.9522  -40.3774 C.3       7 UNK         0.1400 
     38 CB          3.3263  -15.9120  -39.1548 C.3       7 UNK        -0.1800 
     39 N           3.0926  -16.3313  -41.6043 N.am      7 UNK        -0.5000 
     40 C           3.7521  -17.4740  -41.8447 C.2       6 UNK         0.5000 
     41 O           3.9385  -18.3575  -41.0074 O.2       6 UNK        -0.5000 
     42 CA          4.2654  -17.6499  -43.2889 C.3       6 UNK         0.1400 
     43 CB          4.8307  -19.0602  -43.5634 C.3       6 UNK        -0.1800 
     44 N           3.2501  -17.2912  -44.2861 N.am      6 UNK        -0.5000 
     45 C           2.0583  -17.8808  -44.4651 C.2       5 UNK         0.5000 
     46 O           1.6633  -18.8307  -43.7880 O.2       5 UNK        -0.5000 
     47 CA          1.1366  -17.3178  -45.5632 C.3       5 UNK         0.1400 
     48 CB         -0.3325  -17.3087  -45.1144 C.3       5 UNK        -0.1800 
     49 N           1.4997  -15.9556  -45.9363 N.am      5 UNK        -0.5000 
     50 C           2.2280  -15.5950  -46.9998 C.2       4 UNK         0.5000 
     51 O           2.6429  -16.3843  -47.8475 O.2       4 UNK        -0.5000 
     52 CA          2.5805  -14.0988  -47.1143 C.3       4 UNK         0.1400 
     53 CB          1.6438  -13.3998  -48.1113 C.3       4 UNK        -0.1800 
     54 N           2.5321  -13.4005  -45.8245 N.am      4 UNK        -0.5000 
     55 C           3.3935  -13.6131  -44.8181 C.2       3 UNK         0.5000 
     56 O           4.3334  -14.4060  -44.8827 O.2       3 UNK        -0.5000 
     57 CA          3.1307  -12.8687  -43.4960 C.3       3 UNK         0.1400 
     58 CB          3.8577  -11.5162  -43.4877 C.3       3 UNK        -0.1800 
     59 N           1.7118  -12.6533  -43.2018 N.am      3 UNK        -0.5000 
     60 C           0.7880  -13.6112  -43.0435 C.2       2 UNK         0.5000 
     61 O           1.0329  -14.8141  -43.1640 O.2       2 UNK        -0.5000 
     62 CA         -0.6452  -13.1661  -42.6788 C.3       2 UNK         0.1400 
     63 CB         -0.8199  -11.6351  -42.5686 C.3       2 UNK        -0.1800 
     64 N          -1.6636  -13.7135  -43.5792 N.am      2 UNK        -0.5000 
     65 C          -1.7085  -13.6310  -44.9162 C.2       1 UNK         0.5000 
     66 O          -0.8014  -13.1515  -45.5987 O.2       1 UNK        -0.5000 
     67 C          -2.5425  -21.5368  -46.2588 C.2       11 UNK         0.5000 
     68 O          -3.5336  -21.8590  -46.9126 O.2       11 UNK        -0.5000 
     69 N          -2.5257  -21.4651  -44.9202 N.am      12 UNK        -0.5000 
     70 CA         -3.6372  -21.8925  -44.0715 C.3       12 UNK         0.1400 
     71 CB         -3.4362  -21.3642  -42.6432 C.3       12 UNK        -0.1800 
     72 C          -3.7977  -23.4240  -44.0844 C.2       12 UNK         0.5000 
     73 O          -4.9157  -23.9146  -44.2416 O.2       12 UNK        -0.5000 
     74 N          -2.6758  -24.1477  -43.9586 N.am      13 UNK        -0.5000 
     75 CA         -2.6236  -25.6076  -44.0268 C.3       13 UNK         0.1400 
     76 CB         -1.2841  -26.0976  -43.4558 C.3       13 UNK        -0.1800 
     77 C          -2.8304  -26.1385  -45.4565 C.2       13 UNK         0.5000 
     78 O          -3.5715  -27.1041  -45.6439 O.2       13 UNK        -0.5000 
     79 N          -2.1758  -25.5012  -46.4374 N.am      14 UNK        -0.5000 
     80 CA         -2.2170  -25.8956  -47.8482 C.3       14 UNK         0.1400 
     81 CB         -1.0098  -25.2825  -48.5718 C.3       14 UNK        -0.1800 
     82 C          -3.5179  -25.5016  -48.5739 C.2       14 UNK         0.5000 
     83 O          -3.7837  -26.0485  -49.6443 O.2       14 UNK        -0.5000 
     84 N          -4.2810  -24.5596  -47.9980 N.am      15 UNK        -0.5000 
     85 CA         -5.4832  -23.9250  -48.5483 C.3       15 UNK         0.1400 
     86 CB         -6.6281  -24.9461  -48.7179 C.3       15 UNK        -0.1800 
     87 C          -5.1563  -23.1429  -49.8372 C.2       15 UNK         0.5000 
     88 O          -5.6302  -23.5002  -50.9167 O.2       15 UNK        -0.5000 
     89 N          -4.3242  -22.1023  -49.6723 N.am      16 UNK        -0.5000 
     90 CA         -3.7249  -21.2473  -50.7044 C.3       16 UNK         0.1400 
     91 CB         -4.7929  -20.5108  -51.5385 C.3       16 UNK        -0.1800 
     92 C          -2.7220  -22.0381  -51.5652 C.2       16 UNK         0.5000 
     93 O          -3.0752  -22.5464  -52.6307 O.2       16 UNK        -0.5000 
     94 N          -1.4785  -22.1286  -51.0677 N.am      17 UNK        -0.5000 
     95 CA         -0.3758  -22.9204  -51.6286 C.3       17 UNK         0.1400 
     96 CB          0.8519  -22.7969  -50.7114 C.3       17 UNK        -0.1800 
     97 C           0.0183  -22.5571  -53.0736 C.2       17 UNK         0.5000 
     98 O           0.5644  -23.4049  -53.7811 O.2       17 UNK        -0.5000 
     99 N          -0.2890  -21.3257  -53.5031 N.am      18 UNK        -0.5000 
    100 CA        -0.1148  -20.8128  -54.8640 C.3       18 UNK         0.1400 
    101 CB        -0.1293  -19.2762  -54.8061 C.3       18 UNK        -0.1800 
    102 C         -1.1651  -21.3851  -55.8450 C.2       18 UNK         0.5000 
    103 O         -1.9039  -20.6277  -56.4820 O.2       18 UNK        -0.5000 
    104 N         -1.2342  -22.7235  -55.9084 N.am      19 UNK        -0.5000 
    105 CA        -2.0794  -23.5715  -56.7606 C.3       19 UNK         0.1400 
    106 CB        -1.6153  -23.4525  -58.2270 C.3       19 UNK        -0.1800 
    107 C         -3.5993  -23.3293  -56.6203 C.2       19 UNK         0.5000 
    108 O         -4.3548  -23.6965  -57.5216 O.2       19 UNK        -0.5000 
    109 N         -4.0164  -22.6724  -55.5261 N.am      20 UNK        -0.5000 
    110 CA        -5.3410  -22.0841  -55.2894 C.3       20 UNK         0.1400 
    111 CB        -6.4037  -23.1846  -55.0970 C.3       20 UNK        -0.1800 
    112 C         -5.7551  -21.0270  -56.3438 C.2       20 UNK         0.5000 
    113 O         -6.9404  -20.7102  -56.4570 O.2       20 UNK        -0.5000 
    114 N         -4.7767  -20.5005  -57.0928 N.am      21 UNK        -0.5000 
    115 CA        -4.9533  -19.5488  -58.1873 C.3       21 UNK         0.1400 
    116 CB        -4.2110  -20.0784  -59.4245 C.3       21 UNK        -0.1800 
    117 C         -4.4254  -18.1584  -57.8055 C.2       21 UNK         0.5000 
    118 O         -5.0001  -17.1577  -58.2352 O.2       21 UNK        -0.5000 
    119 N         -3.3592  -18.1172  -56.9931 N.am      22 UNK        -0.5000 
    120 CA        -2.7186  -16.8955  -56.4763 C.3       22 UNK         0.1400 
    121 C         -1.9166  -16.0696  -57.5292 C.2       22 UNK         0.5000 
    122 N         -1.6076  -16.6161  -58.6990 N.am      22 UNK        -0.7600 
    123 O         -1.5392  -14.9285  -57.2771 O.2       22 UNK        -0.5000 
    124 C124       -3.6891  -16.0333  -55.6105 C.3       23 UNK        -0.0398 
    125 S125       -3.0039  -15.6522  -53.9654 S.3       23 UNK        -0.2404 
    126 C126       -3.5733  -17.1181  -53.0530 C.3       23 UNK        -0.0205 
    127 H127       -3.4643  -18.0663  -44.7134 H         1 UNK         0.0600 
    128 H128       -5.0585  -17.7369  -44.0261 H         1 UNK         0.0600 
    129 H129       -3.6511  -17.8619  -42.9715 H         1 UNK         0.0600 
    130 H130       -3.0401  -16.2432  -45.9361 H         1 UNK         0.3000 
    131 H131       -3.8116  -13.5616  -45.2068 H         1 UNK         0.0600 
    132 H132       -2.2148  -14.6188  -47.5997 H         1 UNK         0.0800 
    133 H133       -2.6880  -12.9671  -47.3835 H         1 UNK         0.0800 
    134 H134       -5.7114  -16.2727  -48.5727 H         1 UNK         0.0800 
    135 H135       -4.5722  -16.5982  -47.3095 H         1 UNK         0.0800 
    136 H136       -5.0435  -16.2292  -50.9412 H         1 UNK         0.1150 
    137 H137       -1.2024  -17.8689  -51.9272 H         1 UNK         0.1150 
    138 H138       -2.1612  -16.9427  -47.8595 H         1 UNK         0.1150 
    139 H139        0.1567  -17.3521  -48.5117 H         1 UNK         0.0800 
    140 H140        0.5837  -17.6732  -50.1691 H         1 UNK         0.0800 
    141 H141       -2.3204  -19.7297  -48.1900 H         1 UNK         0.0800 
    142 H142       -1.2315  -19.0473  -47.0183 H         1 UNK         0.0800 
    143 H143       -1.1593  -21.9911  -47.7877 H         1 UNK         0.0600 
    144 H144        0.4116  -20.4728  -45.9013 H         1 UNK         0.3000 
    145 H145        1.9438  -23.4207  -44.5208 H         1 UNK         0.0600 
    146 H146        2.7111  -20.7213  -45.7592 H         1 UNK         0.0600 
    147 H147        3.0896  -22.2917  -46.4565 H         1 UNK         0.0600 
    148 H148        3.7743  -21.8360  -44.9059 H         1 UNK         0.0600 
    149 H149        1.8626  -20.7708  -43.4620 H         1 UNK         0.3000 
    150 H150       -0.2533  -21.6930  -40.6836 H         1 UNK         0.0600 
    151 H151        2.6484  -20.8337  -41.1639 H         1 UNK         0.0600 
    152 H152        2.1343  -22.3235  -40.3784 H         1 UNK         0.0600 
    153 H153        1.7884  -20.7706  -39.6301 H         1 UNK         0.0600 
    154 H154        0.7229  -19.3631  -42.3003 H         1 UNK         0.3000 
    155 H155       -1.2391  -17.6436  -42.3849 H         1 UNK         0.0600 
    156 H156       -1.8088  -16.9087  -39.4700 H         1 UNK         0.0600 
    157 H157       -3.0023  -17.4173  -40.6547 H         1 UNK         0.0600 
    158 H158       -2.1458  -15.9020  -40.8778 H         1 UNK         0.0600 
    159 H159        0.6211  -16.4489  -42.0854 H         1 UNK         0.3000 
    160 H160        2.0305  -14.9328  -40.5349 H         1 UNK         0.0600 
    161 H161        3.6642  -16.9062  -38.8620 H         1 UNK         0.0600 
    162 H162        2.8204  -15.4771  -38.2922 H         1 UNK         0.0600 
    163 H163        4.2073  -15.3025  -39.3554 H         1 UNK         0.0600 
    164 H164        2.9292  -15.7195  -42.3926 H         1 UNK         0.3000 
    165 H165        5.0825  -16.9377  -43.4135 H         1 UNK         0.0600 
    166 H166        5.6908  -19.2643  -42.9248 H         1 UNK         0.0600 
    167 H167        4.0935  -19.8396  -43.3710 H         1 UNK         0.0600 
    168 H168        5.1627  -19.1594  -44.5967 H         1 UNK         0.0600 
    169 H169        3.4787  -16.4938  -44.8664 H         1 UNK         0.3000 
    170 H170        1.2298  -17.9844  -46.4222 H         1 UNK         0.0600 
    171 H171       -0.9725  -16.9753  -45.9270 H         1 UNK         0.0600 
    172 H172       -0.6745  -18.2978  -44.8082 H         1 UNK         0.0600 
    173 H173       -0.4910  -16.6274  -44.2802 H         1 UNK         0.0600 
    174 H174        1.2398  -15.2383  -45.2695 H         1 UNK         0.3000 
    175 H175        3.6001  -14.0293  -47.4990 H         1 UNK         0.0600 
    176 H176        1.7179  -13.8560  -49.0994 H         1 UNK         0.0600 
    177 H177        0.6008  -13.4650  -47.8016 H         1 UNK         0.0600 
    178 H178        1.8975  -12.3453  -48.2209 H         1 UNK         0.0600 
    179 H179        1.7494  -12.7775  -45.6749 H         1 UNK         0.3000 
    180 H180        3.5437  -13.4789  -42.6904 H         1 UNK         0.0600 
    181 H181        3.4644  -10.8429  -44.2504 H         1 UNK         0.0600 
    182 H182        4.9239  -11.6440  -43.6805 H         1 UNK         0.0600 
    183 H183        3.7616  -11.0221  -42.5207 H         1 UNK         0.0600 
    184 H184        1.4196  -11.6924  -43.0988 H         1 UNK         0.3000 
    185 H185       -0.8464  -13.5937  -41.6956 H         1 UNK         0.0600 
    186 H186       -0.1501  -11.2087  -41.8207 H         1 UNK         0.0600 
    187 H187       -0.6320  -11.1321  -43.5183 H         1 UNK         0.0600 
    188 H188       -1.8350  -11.3830  -42.2612 H         1 UNK         0.0600 
    189 H189       -2.4513  -14.1734  -43.1308 H         1 UNK         0.3000 
    190 H190       -1.6641  -21.2180  -44.4584 H         1 UNK         0.3000 
    191 H191       -4.5574  -21.4542  -44.4646 H         1 UNK         0.0600 
    192 H192       -3.3504  -20.2783  -42.6316 H         1 UNK         0.0600 
    193 H193       -4.2832  -21.6287  -42.0092 H         1 UNK         0.0600 
    194 H194       -2.5413  -21.7753  -42.1770 H         1 UNK         0.0600 
    195 H195       -1.7930  -23.6760  -43.7899 H         1 UNK         0.3000 
    196 H196       -3.4234  -26.0099  -43.4014 H         1 UNK         0.0600 
    197 H197       -0.4372  -25.6996  -44.0166 H         1 UNK         0.0600 
    198 H198       -1.2189  -27.1859  -43.4871 H         1 UNK         0.0600 
    199 H199       -1.1660  -25.7938  -42.4155 H         1 UNK         0.0600 
    200 H200       -1.5331  -24.7511  -46.1939 H         1 UNK         0.3000 
    201 H201       -2.1269  -26.9825  -47.9043 H         1 UNK         0.0600 
    202 H202       -1.0672  -24.1953  -48.5760 H         1 UNK         0.0600 
    203 H203       -0.0719  -25.5695  -48.0961 H         1 UNK         0.0600 
    204 H204       -0.9633  -25.6133  -49.6101 H         1 UNK         0.0600 
    205 H205       -3.9458  -24.1561  -47.1339 H         1 UNK         0.3000 
    206 H206       -5.8124  -23.1925  -47.8095 H         1 UNK         0.0600 
    207 H207       -6.8405  -25.4570  -47.7788 H         1 UNK         0.0600 
    208 H208       -7.5458  -24.4481  -49.0325 H         1 UNK         0.0600 
    209 H209       -6.3981  -25.7042  -49.4668 H         1 UNK         0.0600 
    210 H210       -4.0116  -21.9277  -48.7202 H         1 UNK         0.3000 
    211 H211       -3.1593  -20.4747  -50.1842 H         1 UNK         0.0600 
    212 H212       -5.3921  -19.8516  -50.9105 H         1 UNK         0.0600 
    213 H213       -4.3263  -19.8927  -52.3051 H         1 UNK         0.0600 
    214 H214       -5.4715  -21.1950  -52.0453 H         1 UNK         0.0600 
    215 H215       -1.2609  -21.6313  -50.2166 H         1 UNK         0.3000 
    216 H216       -0.6992  -23.9631  -51.6325 H         1 UNK         0.0600 
    217 H217        1.2666  -21.7885  -50.7307 H         1 UNK         0.0600 
    218 H218        1.6426  -23.4781  -51.0282 H         1 UNK         0.0600 
    219 H219        0.6150  -23.0380  -49.6761 H         1 UNK         0.0600 
    220 H220       -0.7529  -20.7111  -52.8520 H         1 UNK         0.3000 
    221 H221        0.8658  -21.1224  -55.2311 H         1 UNK         0.0600 
    222 H222       -1.0697  -18.9031  -54.4017 H         1 UNK         0.0600 
    223 H223        0.6766  -18.8986  -54.1766 H         1 UNK         0.0600 
    224 H224        0.0064  -18.8428  -55.7979 H         1 UNK         0.0600 
    225 H225       -0.6017  -23.2271  -55.2920 H         1 UNK         0.3000 
    226 H226       -1.9062  -24.5985  -56.4366 H         1 UNK         0.0600 
    227 H227       -0.5461  -23.6431  -58.3191 H         1 UNK         0.0600 
    228 H228       -2.1259  -24.1757  -58.8639 H         1 UNK         0.0600 
    229 H229       -1.8151  -22.4601  -58.6326 H         1 UNK         0.0600 
    230 H230       -3.3337  -22.4789  -54.8023 H         1 UNK         0.3000 
    231 H231       -5.2578  -21.5412  -54.3487 H         1 UNK         0.0600 
    232 H232       -6.5861  -23.7391  -56.0177 H         1 UNK         0.0600 
    233 H233       -7.3556  -22.7593  -54.7772 H         1 UNK         0.0600 
    234 H234       -6.0960  -23.8955  -54.3297 H         1 UNK         0.0600 
    235 H235       -3.8224  -20.7886  -56.9025 H         1 UNK         0.3000 
    236 H236       -6.0106  -19.4478  -58.4406 H         1 UNK         0.0600 
    237 H237       -3.1433  -20.1979  -59.2347 H         1 UNK         0.0600 
    238 H238       -4.6041  -21.0478  -59.7316 H         1 UNK         0.0600 
    239 H239       -4.3229  -19.3983  -60.2699 H         1 UNK         0.0600 
    240 H240       -2.9115  -18.9908  -56.7328 H         1 UNK         0.3000 
    241 H241       -1.9382  -17.2791  -55.8223 H         1 UNK         0.0600 
    242 H242       -1.0805  -16.0825  -59.3726 H         1 UNK         0.3800 
    243 H243       -1.8960  -17.5559  -58.9179 H         1 UNK         0.3800 
    244 H244       -4.6442  -16.5386  -55.4625 H         1 UNK         0.0800 
    245 H245       -3.9477  -15.0966  -56.1071 H         1 UNK         0.0800 
    246 H246       -3.1624  -18.0164  -53.5153 H         1 UNK         0.0800 
    247 H247       -4.6584  -17.2003  -53.1339 H         1 UNK         0.0800 
@<TRIPOS>BOND
     1    1    2 1    
     2    1  127 1    
     3    1  128 1    
     4    1  129 1    
     5    2    3 2    
     6    2    4 am   BACKBONE|DICT|INTERRES
     7    4    5 1    
     8    4  130 1    
     9    5    6 1    
    10    5   65 1    
    11    5  131 1    
    12    6    7 1    
    13    6  132 1    
    14    6  133 1    
    15    7    8 1    
    16    8    9 1    
    17    8  134 1    
    18    8  135 1    
    19    9   10 ar   
    20    9   14 ar   
    21   10   11 ar   
    22   10  136 1    
    23   11   12 ar   
    24   11  126 1    
    25   12   13 ar   
    26   12  137 1    
    27   13   14 ar   
    28   13   15 1    
    29   14  138 1    
    30   15   16 1    
    31   15  139 1    
    32   15  140 1    
    33   16   17 1    
    34   17   18 1    
    35   17  141 1    
    36   17  142 1    
    37   18   19 1    
    38   18   67 1    
    39   18  143 1    
    40   19   20 am   BACKBONE|DICT|INTERRES
    41   19  144 1    
    42   20   21 2    
    43   20   22 1    
    44   22   23 1    
    45   22   24 1    
    46   22  145 1    
    47   23  146 1    
    48   23  147 1    
    49   23  148 1    
    50   24   25 am   BACKBONE|DICT|INTERRES
    51   24  149 1    
    52   25   26 2    
    53   25   27 1    
    54   27   28 1    
    55   27   29 1    
    56   27  150 1    
    57   28  151 1    
    58   28  152 1    
    59   28  153 1    
    60   29   30 am   BACKBONE|DICT|INTERRES
    61   29  154 1    
    62   30   31 2    
    63   30   32 1    
    64   32   33 1    
    65   32   34 1    
    66   32  155 1    
    67   33  156 1    
    68   33  157 1    
    69   33  158 1    
    70   34   35 am   BACKBONE|DICT|INTERRES
    71   34  159 1    
    72   35   36 2    
    73   35   37 1    
    74   37   38 1    
    75   37   39 1    
    76   37  160 1    
    77   38  161 1    
    78   38  162 1    
    79   38  163 1    
    80   39   40 am   BACKBONE|DICT|INTERRES
    81   39  164 1    
    82   40   41 2    
    83   40   42 1    
    84   42   43 1    
    85   42   44 1    
    86   42  165 1    
    87   43  166 1    
    88   43  167 1    
    89   43  168 1    
    90   44   45 am   BACKBONE|DICT|INTERRES
    91   44  169 1    
    92   45   46 2    
    93   45   47 1    
    94   47   48 1    
    95   47   49 1    
    96   47  170 1    
    97   48  171 1    
    98   48  172 1    
    99   48  173 1    
   100   49   50 am   BACKBONE|DICT|INTERRES
   101   49  174 1    
   102   50   51 2    
   103   50   52 1    
   104   52   53 1    
   105   52   54 1    
   106   52  175 1    
   107   53  176 1    
   108   53  177 1    
   109   53  178 1    
   110   54   55 am   BACKBONE|DICT|INTERRES
   111   54  179 1    
   112   55   56 2    
   113   55   57 1    
   114   57   58 1    
   115   57   59 1    
   116   57  180 1    
   117   58  181 1    
   118   58  182 1    
   119   58  183 1    
   120   59   60 am   BACKBONE|DICT|INTERRES
   121   59  184 1    
   122   60   61 2    
   123   60   62 1    
   124   62   63 1    
   125   62   64 1    
   126   62  185 1    
   127   63  186 1    
   128   63  187 1    
   129   63  188 1    
   130   64   65 am   BACKBONE|DICT|INTERRES
   131   64  189 1    
   132   65   66 2    
   133   67   68 2    
   134   67   69 am   BACKBONE|DICT|INTERRES
   135   69   70 1    
   136   69  190 1    
   137   70   71 1    
   138   70   72 1    
   139   70  191 1    
   140   71  192 1    
   141   71  193 1    
   142   71  194 1    
   143   72   73 2    
   144   72   74 am   BACKBONE|DICT|INTERRES
   145   74   75 1    
   146   74  195 1    
   147   75   76 1    
   148   75   77 1    
   149   75  196 1    
   150   76  197 1    
   151   76  198 1    
   152   76  199 1    
   153   77   78 2    
   154   77   79 am   BACKBONE|DICT|INTERRES
   155   79   80 1    
   156   79  200 1    
   157   80   81 1    
   158   80   82 1    
   159   80  201 1    
   160   81  202 1    
   161   81  203 1    
   162   81  204 1    
   163   82   83 2    
   164   82   84 am   BACKBONE|DICT|INTERRES
   165   84   85 1    
   166   84  205 1    
   167   85   86 1    
   168   85   87 1    
   169   85  206 1    
   170   86  207 1    
   171   86  208 1    
   172   86  209 1    
   173   87   88 2    
   174   87   89 am   BACKBONE|DICT|INTERRES
   175   89   90 1    
   176   89  210 1    
   177   90   91 1    
   178   90   92 1    
   179   90  211 1    
   180   91  212 1    
   181   91  213 1    
   182   91  214 1    
   183   92   93 2    
   184   92   94 am   BACKBONE|DICT|INTERRES
   185   94   95 1    
   186   94  215 1    
   187   95   96 1    
   188   95   97 1    
   189   95  216 1    
   190   96  217 1    
   191   96  218 1    
   192   96  219 1    
   193   97   98 2    
   194   97   99 am   BACKBONE|DICT|INTERRES
   195   99  100 1    
   196   99  220 1    
   197  100  101 1    
   198  100  102 1    
   199  100  221 1    
   200  101  222 1    
   201  101  223 1    
   202  101  224 1    
   203  102  103 2    
   204  102  104 am   BACKBONE|DICT|INTERRES
   205  104  105 1    
   206  104  225 1    
   207  105  106 1    
   208  105  107 1    
   209  105  226 1    
   210  106  227 1    
   211  106  228 1    
   212  106  229 1    
   213  107  108 2    
   214  107  109 am   BACKBONE|DICT|INTERRES
   215  109  110 1    
   216  109  230 1    
   217  110  111 1    
   218  110  112 1    
   219  110  231 1    
   220  111  232 1    
   221  111  233 1    
   222  111  234 1    
   223  112  113 2    
   224  112  114 am   BACKBONE|DICT|INTERRES
   225  114  115 1    
   226  114  235 1    
   227  115  116 1    
   228  115  117 1    
   229  115  236 1    
   230  116  237 1    
   231  116  238 1    
   232  116  239 1    
   233  117  118 2    
   234  117  119 am   BACKBONE|DICT|INTERRES
   235  119  120 1    
   236  119  240 1    
   237  120  121 1    
   238  120  124 1    
   239  120  241 1    
   240  121  122 am   BACKBONE|DICT|INTERRES
   241  121  123 2    
   242  122  242 1    
   243  122  243 1    
   244  124  125 1    
   245  124  244 1    
   246  124  245 1    
   247  125  126 1    
   248  126  246 1    
   249  126  247 1    
@<TRIPOS>SUBSTRUCTURE
     1 UNK         1 GROUP             0       ****    0 ROOT    
