@<TRIPOS>MOLECULE
3R540
247   249    1
SMALL
USER_CHARGES


@<TRIPOS>ATOM
      1 CA         -0.4278  -12.0278  -48.5491 C.3       0 UNK        -0.1800 
      2 C          -0.5554  -13.5425  -48.4977 C.2       0 UNK         0.5000 
      3 O          -1.6685  -14.0594  -48.3988 O.2       0 UNK        -0.5000 
      4 N           0.5785  -14.2568  -48.5555 N.am      1 UNK        -0.5000 
      5 CA          0.6743  -15.7210  -48.5206 C.3       1 UNK         0.1400 
      6 C6          0.1350  -16.3622  -49.8365 C.3       23 UNK        -0.0398 
      7 S7          0.2567  -18.1823  -49.9356 S.3       23 UNK        -0.2404 
      8 C8          1.8008  -18.4333  -50.8602 C.3       23 UNK        -0.0205 
      9 C9          2.0386  -19.9210  -51.0610 C.ar      23 UNK        -0.0193 
     10 C10         1.2750  -20.6212  -51.9960 C.ar      23 UNK        -0.1150 
     11 C11         1.4245  -22.0021  -52.1530 C.ar      23 UNK        -0.0193 
     12 C12         2.3364  -22.6856  -51.3450 C.ar      23 UNK        -0.1150 
     13 C13         3.0941  -21.9993  -50.3894 C.ar      23 UNK        -0.0193 
     14 C14         2.9653  -20.6115  -50.2764 C.ar      23 UNK        -0.1150 
     15 C15         3.9877  -22.7733  -49.4260 C.3       23 UNK        -0.0205 
     16 S16         3.4497  -22.6403  -47.6790 S.3       23 UNK        -0.2404 
     17 C17         1.6252  -22.6486  -47.8076 C.3       23 UNK        -0.0398 
     18 CA          0.8911  -23.4150  -46.6796 C.3       11 UNK         0.1400 
     19 N           1.2599  -22.9373  -45.3448 N.am      11 UNK        -0.5000 
     20 C           1.3930  -23.7095  -44.2571 C.2       10 UNK         0.5000 
     21 O           1.2003  -24.9255  -44.2611 O.2       10 UNK        -0.5000 
     22 CA          1.7971  -23.0172  -42.9365 C.3       10 UNK         0.1400 
     23 CB          3.3008  -23.1975  -42.6787 C.3       10 UNK        -0.1800 
     24 N           1.4824  -21.5877  -42.9030 N.am      10 UNK        -0.5000 
     25 C           0.2444  -21.0748  -42.9077 C.2       9 UNK         0.5000 
     26 O          -0.7712  -21.7647  -42.8321 O.2       9 UNK        -0.5000 
     27 CA          0.1150  -19.5477  -43.0903 C.3       9 UNK         0.1400 
     28 CB         -0.1349  -18.8592  -41.7413 C.3       9 UNK        -0.1800 
     29 N           1.2666  -18.9216  -43.7585 N.am      9 UNK        -0.5000 
     30 C           1.6905  -19.2310  -44.9947 C.2       8 UNK         0.5000 
     31 O           1.1134  -20.0507  -45.7087 O.2       8 UNK        -0.5000 
     32 CA          2.9820  -18.5620  -45.4964 C.3       8 UNK         0.1400 
     33 CB          3.1089  -18.5894  -47.0280 C.3       8 UNK        -0.1800 
     34 N           3.0863  -17.1876  -45.0146 N.am      8 UNK        -0.5000 
     35 C           4.1415  -16.6874  -44.3580 C.2       7 UNK         0.5000 
     36 O           5.1777  -17.3184  -44.1418 O.2       7 UNK        -0.5000 
     37 CA          4.0273  -15.2465  -43.8169 C.3       7 UNK         0.1400 
     38 CB          2.9020  -14.4169  -44.4684 C.3       7 UNK        -0.1800 
     39 N           3.8817  -15.1955  -42.3580 N.am      7 UNK        -0.5000 
     40 C           2.9945  -15.8665  -41.6074 C.2       6 UNK         0.5000 
     41 O           2.2581  -16.7568  -42.0337 O.2       6 UNK        -0.5000 
     42 CA          2.8487  -15.4434  -40.1317 C.3       6 UNK         0.1400 
     43 CB          4.0430  -14.6389  -39.5691 C.3       6 UNK        -0.1800 
     44 N           1.5802  -14.7284  -39.9461 N.am      6 UNK        -0.5000 
     45 C           1.2102  -13.5901  -40.5519 C.2       5 UNK         0.5000 
     46 O           1.9672  -12.8748  -41.2134 O.2       5 UNK        -0.5000 
     47 CA         -0.2649  -13.1774  -40.3976 C.3       5 UNK         0.1400 
     48 CB         -0.4203  -12.1062  -39.3074 C.3       5 UNK        -0.1800 
     49 N          -0.7828  -12.6562  -41.6635 N.am      5 UNK        -0.5000 
     50 C          -1.0143  -13.4075  -42.7477 C.2       4 UNK         0.5000 
     51 O          -0.9385  -14.6384  -42.7565 O.2       4 UNK        -0.5000 
     52 CA         -1.3524  -12.6455  -44.0420 C.3       4 UNK         0.1400 
     53 CB         -0.0693  -12.2306  -44.7789 C.3       4 UNK        -0.1800 
     54 N          -2.1628  -13.4637  -44.9393 N.am      4 UNK        -0.5000 
     55 C          -3.4797  -13.6663  -44.8068 C.2       3 UNK         0.5000 
     56 O          -4.1797  -13.0853  -43.9761 O.2       3 UNK        -0.5000 
     57 CA         -4.1249  -14.6948  -45.7544 C.3       3 UNK         0.1400 
     58 CB         -4.8046  -13.9937  -46.9401 C.3       3 UNK        -0.1800 
     59 N          -3.1540  -15.6762  -46.2475 N.am      3 UNK        -0.5000 
     60 C          -2.7755  -16.7560  -45.5462 C.2       2 UNK         0.5000 
     61 O          -3.2689  -17.0644  -44.4611 O.2       2 UNK        -0.5000 
     62 CA         -1.6742  -17.6564  -46.1355 C.3       2 UNK         0.1400 
     63 CB         -2.2397  -19.0173  -46.5647 C.3       2 UNK        -0.1800 
     64 N          -0.9838  -17.0666  -47.2758 N.am      2 UNK        -0.5000 
     65 C           0.0705  -16.2506  -47.1951 C.2       1 UNK         0.5000 
     66 O           0.5722  -15.8972  -46.1275 O.2       1 UNK        -0.5000 
     67 C          -0.6317  -23.3303  -46.9232 C.2       11 UNK         0.5000 
     68 O          -1.0617  -23.6178  -48.0404 O.2       11 UNK        -0.5000 
     69 N          -1.4301  -22.9259  -45.9208 N.am      12 UNK        -0.5000 
     70 CA         -2.8618  -22.6218  -46.0478 C.3       12 UNK         0.1400 
     71 CB         -3.4278  -22.2011  -44.6844 C.3       12 UNK        -0.1800 
     72 C          -3.7304  -23.7363  -46.6584 C.2       12 UNK         0.5000 
     73 O          -4.6974  -23.4208  -47.3509 O.2       12 UNK        -0.5000 
     74 N          -3.3601  -25.0019  -46.4254 N.am      13 UNK        -0.5000 
     75 CA         -4.0225  -26.1744  -46.9993 C.3       13 UNK         0.1400 
     76 CB         -3.5829  -27.4257  -46.2241 C.3       13 UNK        -0.1800 
     77 C          -3.7514  -26.3530  -48.5072 C.2       13 UNK         0.5000 
     78 O          -4.6123  -26.8758  -49.2152 O.2       13 UNK        -0.5000 
     79 N          -2.5714  -25.9204  -48.9714 N.am      14 UNK        -0.5000 
     80 CA         -2.1547  -25.9800  -50.3732 C.3       14 UNK         0.1400 
     81 CB         -0.6263  -26.1357  -50.4446 C.3       14 UNK        -0.1800 
     82 C          -2.6020  -24.7255  -51.1390 C.2       14 UNK         0.5000 
     83 O          -3.0683  -24.8340  -52.2724 O.2       14 UNK        -0.5000 
     84 N          -2.4613  -23.5603  -50.4943 N.am      15 UNK        -0.5000 
     85 CA         -2.8150  -22.2486  -51.0336 C.3       15 UNK         0.1400 
     86 CB         -2.0225  -21.1819  -50.2599 C.3       15 UNK        -0.1800 
     87 C          -4.3240  -21.9439  -50.9717 C.2       15 UNK         0.5000 
     88 O          -4.7449  -20.9243  -51.5177 O.2       15 UNK        -0.5000 
     89 N          -5.1008  -22.7828  -50.2692 N.am      16 UNK        -0.5000 
     90 CA         -6.5380  -22.6511  -49.9969 C.3       16 UNK         0.1400 
     91 CB         -7.3548  -22.8481  -51.2905 C.3       16 UNK        -0.1800 
     92 C          -6.8628  -21.3247  -49.2802 C.2       16 UNK         0.5000 
     93 O          -7.7191  -20.5655  -49.7319 O.2       16 UNK        -0.5000 
     94 N          -6.1003  -21.0323  -48.2162 N.am      17 UNK        -0.5000 
     95 CA         -6.0925  -19.7677  -47.4643 C.3       17 UNK         0.1400 
     96 CB         -7.3952  -19.6078  -46.6549 C.3       17 UNK        -0.1800 
     97 C          -5.7782  -18.5375  -48.3512 C.2       17 UNK         0.5000 
     98 O          -6.3118  -17.4521  -48.1227 O.2       17 UNK        -0.5000 
     99 N          -4.9179  -18.7587  -49.3562 N.am      18 UNK        -0.5000 
    100 CA        -4.4672  -17.8404  -50.4068 C.3       18 UNK         0.1400 
    101 CB        -3.8865  -16.5353  -49.8281 C.3       18 UNK        -0.1800 
    102 C         -5.5020  -17.5824  -51.5220 C.2       18 UNK         0.5000 
    103 O         -5.2372  -16.7538  -52.3942 O.2       18 UNK        -0.5000 
    104 N         -6.6317  -18.3073  -51.5290 N.am      19 UNK        -0.5000 
    105 CA        -7.6346  -18.2394  -52.5976 C.3       19 UNK         0.1400 
    106 CB        -8.9634  -18.8281  -52.1010 C.3       19 UNK        -0.1800 
    107 C         -7.1858  -18.9486  -53.8915 C.2       19 UNK         0.5000 
    108 O         -7.7091  -18.6340  -54.9612 O.2       19 UNK        -0.5000 
    109 N         -6.2296  -19.8782  -53.7791 N.am      20 UNK        -0.5000 
    110 CA        -5.6305  -20.6255  -54.8807 C.3       20 UNK         0.1400 
    111 CB        -6.2535  -22.0325  -54.9426 C.3       20 UNK        -0.1800 
    112 C         -4.1044  -20.6488  -54.6929 C.2       20 UNK         0.5000 
    113 O         -3.4846  -21.7118  -54.7599 O.2       20 UNK        -0.5000 
    114 N         -3.5288  -19.4706  -54.4121 N.am      21 UNK        -0.5000 
    115 CA        -2.1002  -19.2776  -54.1721 C.3       21 UNK         0.1400 
    116 CB        -1.8466  -17.8286  -53.7288 C.3       21 UNK        -0.1800 
    117 C         -1.2364  -19.6349  -55.3987 C.2       21 UNK         0.5000 
    118 O         -1.6135  -19.3392  -56.5351 O.2       21 UNK        -0.5000 
    119 N         -0.0917  -20.2621  -55.1203 N.am      22 UNK        -0.5000 
    120 CA         0.9371  -20.6944  -56.0696 C.3       22 UNK         0.1400 
    121 C          1.5985  -19.5011  -56.8147 C.2       22 UNK         0.5000 
    122 N          1.8934  -19.6502  -58.0988 N.am      22 UNK        -0.7600 
    123 O          1.8871  -18.4600  -56.2283 O.2       22 UNK        -0.5000 
    124 C124        2.0148  -21.5366  -55.3374 C.3       23 UNK        -0.0398 
    125 S125        1.4083  -23.1484  -54.7146 S.3       23 UNK        -0.2404 
    126 C126        0.5568  -22.7647  -53.1443 C.3       23 UNK        -0.0205 
    127 H127        0.5743  -11.6990  -48.2731 H         1 UNK         0.0600 
    128 H128       -1.1383  -11.5663  -47.8634 H         1 UNK         0.0600 
    129 H129       -0.6450  -11.6689  -49.5550 H         1 UNK         0.0600 
    130 H130        1.4614  -13.7680  -48.6021 H         1 UNK         0.3000 
    131 H131        1.7401  -15.9472  -48.4680 H         1 UNK         0.0600 
    132 H132        0.6651  -15.9357  -50.6891 H         1 UNK         0.0800 
    133 H133       -0.9104  -16.0948  -49.9900 H         1 UNK         0.0800 
    134 H134        1.7392  -17.9346  -51.8287 H         1 UNK         0.0800 
    135 H135        2.6311  -17.9774  -50.3189 H         1 UNK         0.0800 
    136 H136        0.5392  -20.0786  -52.5657 H         1 UNK         0.1150 
    137 H137        2.4270  -23.7589  -51.4369 H         1 UNK         0.1150 
    138 H138        3.5479  -20.0806  -49.5390 H         1 UNK         0.1150 
    139 H139        4.0170  -23.8295  -49.6979 H         1 UNK         0.0800 
    140 H140        5.0114  -22.4071  -49.5118 H         1 UNK         0.0800 
    141 H141        1.3538  -23.0980  -48.7631 H         1 UNK         0.0800 
    142 H142        1.2898  -21.6108  -47.8570 H         1 UNK         0.0800 
    143 H143        1.1628  -24.4684  -46.7724 H         1 UNK         0.0600 
    144 H144        1.3912  -21.9332  -45.2704 H         1 UNK         0.3000 
    145 H145        1.2482  -23.5046  -42.1281 H         1 UNK         0.0600 
    146 H146        3.5904  -22.7755  -41.7161 H         1 UNK         0.0600 
    147 H147        3.5708  -24.2543  -42.6630 H         1 UNK         0.0600 
    148 H148        3.9015  -22.7171  -43.4522 H         1 UNK         0.0600 
    149 H149        2.2619  -20.9494  -42.9581 H         1 UNK         0.3000 
    150 H150       -0.7642  -19.3862  -43.7149 H         1 UNK         0.0600 
    151 H151       -0.9953  -19.2943  -41.2313 H         1 UNK         0.0600 
    152 H152       -0.3418  -17.7968  -41.8759 H         1 UNK         0.0600 
    153 H153        0.7251  -18.9529  -41.0772 H         1 UNK         0.0600 
    154 H154        1.7592  -18.2067  -43.2274 H         1 UNK         0.3000 
    155 H155        3.7954  -19.1665  -45.0907 H         1 UNK         0.0600 
    156 H156        2.2599  -18.1143  -47.5148 H         1 UNK         0.0600 
    157 H157        3.1509  -19.6180  -47.3828 H         1 UNK         0.0600 
    158 H158        4.0183  -18.0912  -47.3638 H         1 UNK         0.0600 
    159 H159        2.2555  -16.6143  -45.1313 H         1 UNK         0.3000 
    160 H160        4.9733  -14.7583  -44.0551 H         1 UNK         0.0600 
    161 H161        2.9577  -14.4483  -45.5573 H         1 UNK         0.0600 
    162 H162        2.9725  -13.3700  -44.1730 H         1 UNK         0.0600 
    163 H163        1.9148  -14.7699  -44.1681 H         1 UNK         0.0600 
    164 H164        4.4383  -14.4920  -41.8945 H         1 UNK         0.3000 
    165 H165        2.7750  -16.3662  -39.5542 H         1 UNK         0.0600 
    166 H166        3.9070  -14.4395  -38.5062 H         1 UNK         0.0600 
    167 H167        4.9728  -15.1994  -39.6731 H         1 UNK         0.0600 
    168 H168        4.1791  -13.6785  -40.0661 H         1 UNK         0.0600 
    169 H169        0.8752  -15.2433  -39.4376 H         1 UNK         0.3000 
    170 H170       -0.8558  -14.0512  -40.1143 H         1 UNK         0.0600 
    171 H171       -0.0614  -12.4746  -38.3455 H         1 UNK         0.0600 
    172 H172        0.1455  -11.2043  -39.5448 H         1 UNK         0.0600 
    173 H173       -1.4651  -11.8235  -39.1775 H         1 UNK         0.0600 
    174 H174       -0.8248  -11.6510  -41.7461 H         1 UNK         0.3000 
    175 H175       -1.9083  -11.7430  -43.7789 H         1 UNK         0.0600 
    176 H176        0.4475  -13.0924  -45.2017 H         1 UNK         0.0600 
    177 H177       -0.2918  -11.5419  -45.5928 H         1 UNK         0.0600 
    178 H178        0.6277  -11.7238  -44.1100 H         1 UNK         0.0600 
    179 H179       -1.6610  -14.0295  -45.6078 H         1 UNK         0.3000 
    180 H180       -4.9040  -15.2138  -45.1917 H         1 UNK         0.0600 
    181 H181       -4.0866  -13.4758  -47.5755 H         1 UNK         0.0600 
    182 H182       -5.5262  -13.2533  -46.5929 H         1 UNK         0.0600 
    183 H183       -5.3505  -14.7081  -47.5552 H         1 UNK         0.0600 
    184 H184       -2.6863  -15.4521  -47.1187 H         1 UNK         0.3000 
    185 H185       -0.9520  -17.8240  -45.3371 H         1 UNK         0.0600 
    186 H186       -1.4372  -19.7110  -46.8181 H         1 UNK         0.0600 
    187 H187       -2.8207  -19.4684  -45.7613 H         1 UNK         0.0600 
    188 H188       -2.8893  -18.9270  -47.4336 H         1 UNK         0.0600 
    189 H189       -1.2993  -17.3495  -48.1921 H         1 UNK         0.3000 
    190 H190       -1.0060  -22.7146  -45.0274 H         1 UNK         0.3000 
    191 H191       -2.9421  -21.7700  -46.7242 H         1 UNK         0.0600 
    192 H192       -3.3098  -22.9904  -43.9410 H         1 UNK         0.0600 
    193 H193       -4.4916  -21.9689  -44.7532 H         1 UNK         0.0600 
    194 H194       -2.9302  -21.3096  -44.3051 H         1 UNK         0.0600 
    195 H195       -2.5509  -25.1685  -45.8452 H         1 UNK         0.3000 
    196 H196       -5.1006  -26.0561  -46.8699 H         1 UNK         0.0600 
    197 H197       -4.0778  -28.3181  -46.6097 H         1 UNK         0.0600 
    198 H198       -3.8383  -27.3451  -45.1674 H         1 UNK         0.0600 
    199 H199       -2.5069  -27.5887  -46.2989 H         1 UNK         0.0600 
    200 H200       -1.9525  -25.4236  -48.3421 H         1 UNK         0.3000 
    201 H201       -2.6055  -26.8514  -50.8531 H         1 UNK         0.0600 
    202 H202       -0.2991  -27.0411  -49.9335 H         1 UNK         0.0600 
    203 H203       -0.1079  -25.2899  -49.9912 H         1 UNK         0.0600 
    204 H204       -0.2905  -26.2072  -51.4799 H         1 UNK         0.0600 
    205 H205       -2.0266  -23.5676  -49.5736 H         1 UNK         0.3000 
    206 H206       -2.5165  -22.2084  -52.0827 H         1 UNK         0.0600 
    207 H207       -0.9542  -21.3987  -50.2678 H         1 UNK         0.0600 
    208 H208       -2.1519  -20.1954  -50.7043 H         1 UNK         0.0600 
    209 H209       -2.3368  -21.1212  -49.2173 H         1 UNK         0.0600 
    210 H210       -4.6434  -23.5538  -49.8031 H         1 UNK         0.3000 
    211 H211       -6.8025  -23.4543  -49.3077 H         1 UNK         0.0600 
    212 H212       -7.1950  -22.0351  -51.9985 H         1 UNK         0.0600 
    213 H213       -8.4230  -22.8834  -51.0740 H         1 UNK         0.0600 
    214 H214       -7.0912  -23.7822  -51.7862 H         1 UNK         0.0600 
    215 H215       -5.4575  -21.7544  -47.9010 H         1 UNK         0.3000 
    216 H216       -5.2719  -19.8429  -46.7498 H         1 UNK         0.0600 
    217 H217       -7.3402  -18.7438  -45.9916 H         1 UNK         0.0600 
    218 H218       -7.5812  -20.4824  -46.0316 H         1 UNK         0.0600 
    219 H219       -8.2604  -19.4674  -47.3035 H         1 UNK         0.0600 
    220 H220       -4.6177  -19.7137  -49.4898 H         1 UNK         0.3000 
    221 H221       -3.6445  -18.3599  -50.8975 H         1 UNK         0.0600 
    222 H222       -4.6697  -15.8773  -49.4546 H         1 UNK         0.0600 
    223 H223       -3.1953  -16.7345  -49.0120 H         1 UNK         0.0600 
    224 H224       -3.3399  -15.9795  -50.5905 H         1 UNK         0.0600 
    225 H225       -6.7930  -18.9924  -50.7991 H         1 UNK         0.3000 
    226 H226       -7.8057  -17.1882  -52.8387 H         1 UNK         0.0600 
    227 H227       -9.2700  -18.3794  -51.1559 H         1 UNK         0.0600 
    228 H228       -9.7607  -18.6466  -52.8226 H         1 UNK         0.0600 
    229 H229       -8.8974  -19.9069  -51.9578 H         1 UNK         0.0600 
    230 H230       -5.8298  -20.0722  -52.8633 H         1 UNK         0.3000 
    231 H231       -5.8207  -20.1208  -55.8300 H         1 UNK         0.0600 
    232 H232       -7.3379  -21.9811  -55.0409 H         1 UNK         0.0600 
    233 H233       -6.0237  -22.6116  -54.0476 H         1 UNK         0.0600 
    234 H234       -5.8745  -22.5894  -55.8001 H         1 UNK         0.0600 
    235 H235       -4.1097  -18.6454  -54.3799 H         1 UNK         0.3000 
    236 H236       -1.8256  -19.9364  -53.3456 H         1 UNK         0.0600 
    237 H237       -2.1355  -17.1163  -54.5025 H         1 UNK         0.0600 
    238 H238       -2.4031  -17.5849  -52.8245 H         1 UNK         0.0600 
    239 H239       -0.7902  -17.6659  -53.5100 H         1 UNK         0.0600 
    240 H240        0.1340  -20.4449  -54.1574 H         1 UNK         0.3000 
    241 H241        0.4469  -21.3271  -56.8120 H         1 UNK         0.0600 
    242 H242        2.3368  -18.8895  -58.5905 H         1 UNK         0.3800 
    243 H243        1.6741  -20.4985  -58.5987 H         1 UNK         0.3800 
    244 H244        2.8307  -21.7679  -56.0248 H         1 UNK         0.0800 
    245 H245        2.4742  -20.9703  -54.5263 H         1 UNK         0.0800 
    246 H246       -0.3701  -22.2285  -53.3449 H         1 UNK         0.0800 
    247 H247        0.2446  -23.7059  -52.6889 H         1 UNK         0.0800 
@<TRIPOS>BOND
     1    1    2 1    
     2    1  127 1    
     3    1  128 1    
     4    1  129 1    
     5    2    3 2    
     6    2    4 am   BACKBONE|DICT|INTERRES
     7    4    5 1    
     8    4  130 1    
     9    5    6 1    
    10    5   65 1    
    11    5  131 1    
    12    6    7 1    
    13    6  132 1    
    14    6  133 1    
    15    7    8 1    
    16    8    9 1    
    17    8  134 1    
    18    8  135 1    
    19    9   10 ar   
    20    9   14 ar   
    21   10   11 ar   
    22   10  136 1    
    23   11   12 ar   
    24   11  126 1    
    25   12   13 ar   
    26   12  137 1    
    27   13   14 ar   
    28   13   15 1    
    29   14  138 1    
    30   15   16 1    
    31   15  139 1    
    32   15  140 1    
    33   16   17 1    
    34   17   18 1    
    35   17  141 1    
    36   17  142 1    
    37   18   19 1    
    38   18   67 1    
    39   18  143 1    
    40   19   20 am   BACKBONE|DICT|INTERRES
    41   19  144 1    
    42   20   21 2    
    43   20   22 1    
    44   22   23 1    
    45   22   24 1    
    46   22  145 1    
    47   23  146 1    
    48   23  147 1    
    49   23  148 1    
    50   24   25 am   BACKBONE|DICT|INTERRES
    51   24  149 1    
    52   25   26 2    
    53   25   27 1    
    54   27   28 1    
    55   27   29 1    
    56   27  150 1    
    57   28  151 1    
    58   28  152 1    
    59   28  153 1    
    60   29   30 am   BACKBONE|DICT|INTERRES
    61   29  154 1    
    62   30   31 2    
    63   30   32 1    
    64   32   33 1    
    65   32   34 1    
    66   32  155 1    
    67   33  156 1    
    68   33  157 1    
    69   33  158 1    
    70   34   35 am   BACKBONE|DICT|INTERRES
    71   34  159 1    
    72   35   36 2    
    73   35   37 1    
    74   37   38 1    
    75   37   39 1    
    76   37  160 1    
    77   38  161 1    
    78   38  162 1    
    79   38  163 1    
    80   39   40 am   BACKBONE|DICT|INTERRES
    81   39  164 1    
    82   40   41 2    
    83   40   42 1    
    84   42   43 1    
    85   42   44 1    
    86   42  165 1    
    87   43  166 1    
    88   43  167 1    
    89   43  168 1    
    90   44   45 am   BACKBONE|DICT|INTERRES
    91   44  169 1    
    92   45   46 2    
    93   45   47 1    
    94   47   48 1    
    95   47   49 1    
    96   47  170 1    
    97   48  171 1    
    98   48  172 1    
    99   48  173 1    
   100   49   50 am   BACKBONE|DICT|INTERRES
   101   49  174 1    
   102   50   51 2    
   103   50   52 1    
   104   52   53 1    
   105   52   54 1    
   106   52  175 1    
   107   53  176 1    
   108   53  177 1    
   109   53  178 1    
   110   54   55 am   BACKBONE|DICT|INTERRES
   111   54  179 1    
   112   55   56 2    
   113   55   57 1    
   114   57   58 1    
   115   57   59 1    
   116   57  180 1    
   117   58  181 1    
   118   58  182 1    
   119   58  183 1    
   120   59   60 am   BACKBONE|DICT|INTERRES
   121   59  184 1    
   122   60   61 2    
   123   60   62 1    
   124   62   63 1    
   125   62   64 1    
   126   62  185 1    
   127   63  186 1    
   128   63  187 1    
   129   63  188 1    
   130   64   65 am   BACKBONE|DICT|INTERRES
   131   64  189 1    
   132   65   66 2    
   133   67   68 2    
   134   67   69 am   BACKBONE|DICT|INTERRES
   135   69   70 1    
   136   69  190 1    
   137   70   71 1    
   138   70   72 1    
   139   70  191 1    
   140   71  192 1    
   141   71  193 1    
   142   71  194 1    
   143   72   73 2    
   144   72   74 am   BACKBONE|DICT|INTERRES
   145   74   75 1    
   146   74  195 1    
   147   75   76 1    
   148   75   77 1    
   149   75  196 1    
   150   76  197 1    
   151   76  198 1    
   152   76  199 1    
   153   77   78 2    
   154   77   79 am   BACKBONE|DICT|INTERRES
   155   79   80 1    
   156   79  200 1    
   157   80   81 1    
   158   80   82 1    
   159   80  201 1    
   160   81  202 1    
   161   81  203 1    
   162   81  204 1    
   163   82   83 2    
   164   82   84 am   BACKBONE|DICT|INTERRES
   165   84   85 1    
   166   84  205 1    
   167   85   86 1    
   168   85   87 1    
   169   85  206 1    
   170   86  207 1    
   171   86  208 1    
   172   86  209 1    
   173   87   88 2    
   174   87   89 am   BACKBONE|DICT|INTERRES
   175   89   90 1    
   176   89  210 1    
   177   90   91 1    
   178   90   92 1    
   179   90  211 1    
   180   91  212 1    
   181   91  213 1    
   182   91  214 1    
   183   92   93 2    
   184   92   94 am   BACKBONE|DICT|INTERRES
   185   94   95 1    
   186   94  215 1    
   187   95   96 1    
   188   95   97 1    
   189   95  216 1    
   190   96  217 1    
   191   96  218 1    
   192   96  219 1    
   193   97   98 2    
   194   97   99 am   BACKBONE|DICT|INTERRES
   195   99  100 1    
   196   99  220 1    
   197  100  101 1    
   198  100  102 1    
   199  100  221 1    
   200  101  222 1    
   201  101  223 1    
   202  101  224 1    
   203  102  103 2    
   204  102  104 am   BACKBONE|DICT|INTERRES
   205  104  105 1    
   206  104  225 1    
   207  105  106 1    
   208  105  107 1    
   209  105  226 1    
   210  106  227 1    
   211  106  228 1    
   212  106  229 1    
   213  107  108 2    
   214  107  109 am   BACKBONE|DICT|INTERRES
   215  109  110 1    
   216  109  230 1    
   217  110  111 1    
   218  110  112 1    
   219  110  231 1    
   220  111  232 1    
   221  111  233 1    
   222  111  234 1    
   223  112  113 2    
   224  112  114 am   BACKBONE|DICT|INTERRES
   225  114  115 1    
   226  114  235 1    
   227  115  116 1    
   228  115  117 1    
   229  115  236 1    
   230  116  237 1    
   231  116  238 1    
   232  116  239 1    
   233  117  118 2    
   234  117  119 am   BACKBONE|DICT|INTERRES
   235  119  120 1    
   236  119  240 1    
   237  120  121 1    
   238  120  124 1    
   239  120  241 1    
   240  121  122 am   BACKBONE|DICT|INTERRES
   241  121  123 2    
   242  122  242 1    
   243  122  243 1    
   244  124  125 1    
   245  124  244 1    
   246  124  245 1    
   247  125  126 1    
   248  126  246 1    
   249  126  247 1    
@<TRIPOS>SUBSTRUCTURE
     1 UNK         1 GROUP             0       ****    0 ROOT    
