@<TRIPOS>MOLECULE
3R540
247   249    1
SMALL
USER_CHARGES


@<TRIPOS>ATOM
      1 CA         -3.8751  -13.6460  -47.5871 C.3       0 UNK        -0.1800 
      2 C          -2.5227  -13.5395  -46.8990 C.2       0 UNK         0.5000 
      3 O          -2.4488  -13.0722  -45.7637 O.2       0 UNK        -0.5000 
      4 N          -1.4550  -13.9897  -47.5698 N.am      1 UNK        -0.5000 
      5 CA         -0.0678  -13.9852  -47.0833 C.3       1 UNK         0.1400 
      6 C6          0.9279  -14.4605  -48.1725 C.3       23 UNK        -0.0398 
      7 S7          0.5005  -16.0880  -48.8849 S.3       23 UNK        -0.2404 
      8 C8          1.9070  -16.3679  -49.9990 C.3       23 UNK        -0.0205 
      9 C9          1.8350  -17.7623  -50.5968 C.ar      23 UNK        -0.0193 
     10 C10         1.3983  -17.9436  -51.9093 C.ar      23 UNK        -0.1150 
     11 C11         1.2974  -19.2263  -52.4540 C.ar      23 UNK        -0.0193 
     12 C12         1.6392  -20.3331  -51.6684 C.ar      23 UNK        -0.1150 
     13 C13         2.0926  -20.1700  -50.3536 C.ar      23 UNK        -0.0193 
     14 C14         2.1954  -18.8744  -49.8316 C.ar      23 UNK        -0.1150 
     15 C15         2.4941  -21.4100  -49.5482 C.3       23 UNK        -0.0205 
     16 S16         2.4440  -21.2349  -47.7261 S.3       23 UNK        -0.2404 
     17 C17         0.6639  -20.9790  -47.4283 C.3       23 UNK        -0.0398 
     18 CA         -0.0431  -22.2398  -46.8818 C.3       11 UNK         0.1400 
     19 N           0.4744  -22.6652  -45.5773 N.am      11 UNK        -0.5000 
     20 C           0.2467  -23.8744  -45.0415 C.2       10 UNK         0.5000 
     21 O          -0.4254  -24.7446  -45.5924 O.2       10 UNK        -0.5000 
     22 CA          0.8099  -24.1455  -43.6332 C.3       10 UNK         0.1400 
     23 CB          2.2456  -24.6822  -43.7276 C.3       10 UNK        -0.1800 
     24 N           0.7949  -22.9714  -42.7625 N.am      10 UNK        -0.5000 
     25 C          -0.2777  -22.2227  -42.4674 C.2       9 UNK         0.5000 
     26 O          -1.4202  -22.4943  -42.8367 O.2       9 UNK        -0.5000 
     27 CA         -0.0205  -20.9196  -41.6836 C.3       9 UNK         0.1400 
     28 CB         -0.3744  -21.1077  -40.2016 C.3       9 UNK        -0.1800 
     29 N           1.3587  -20.4274  -41.7921 N.am      9 UNK        -0.5000 
     30 C           1.9625  -20.0661  -42.9331 C.2       8 UNK         0.5000 
     31 O           1.4159  -20.0995  -44.0394 O.2       8 UNK        -0.5000 
     32 CA          3.4537  -19.7025  -42.8187 C.3       8 UNK         0.1400 
     33 CB          4.3125  -20.9750  -42.8972 C.3       8 UNK        -0.1800 
     34 N           3.8722  -18.7917  -43.8804 N.am      8 UNK        -0.5000 
     35 C           3.5127  -17.5067  -43.9541 C.2       7 UNK         0.5000 
     36 O           2.8598  -16.9263  -43.0819 O.2       7 UNK        -0.5000 
     37 CA          3.9530  -16.7595  -45.2216 C.3       7 UNK         0.1400 
     38 CB          3.1588  -17.2528  -46.4392 C.3       7 UNK        -0.1800 
     39 N           3.7030  -15.3356  -45.0418 N.am      7 UNK        -0.5000 
     40 C           4.6169  -14.3597  -45.0758 C.2       6 UNK         0.5000 
     41 O           5.7838  -14.5162  -45.4366 O.2       6 UNK        -0.5000 
     42 CA          4.1455  -12.9767  -44.5873 C.3       6 UNK         0.1400 
     43 CB          3.6128  -12.1366  -45.7582 C.3       6 UNK        -0.1800 
     44 N           3.0945  -13.1083  -43.5789 N.am      6 UNK        -0.5000 
     45 C           3.2984  -13.4122  -42.2901 C.2       5 UNK         0.5000 
     46 O           4.4152  -13.4547  -41.7709 O.2       5 UNK        -0.5000 
     47 CA          2.0429  -13.7560  -41.4591 C.3       5 UNK         0.1400 
     48 CB          2.2088  -13.4545  -39.9550 C.3       5 UNK        -0.1800 
     49 N           0.8151  -13.1582  -41.9945 N.am      5 UNK        -0.5000 
     50 C           0.4918  -11.8576  -42.0600 C.2       4 UNK         0.5000 
     51 O           1.1915  -10.9507  -41.6081 O.2       4 UNK        -0.5000 
     52 CA         -0.8258  -11.4998  -42.7790 C.3       4 UNK         0.1400 
     53 CB         -0.5258  -10.8329  -44.1311 C.3       4 UNK        -0.1800 
     54 N          -1.6980  -12.6525  -43.0138 N.am      4 UNK        -0.5000 
     55 C          -2.3974  -13.3019  -42.0733 C.2       3 UNK         0.5000 
     56 O          -2.4362  -12.9625  -40.8904 O.2       3 UNK        -0.5000 
     57 CA         -3.1454  -14.5671  -42.5300 C.3       3 UNK         0.1400 
     58 CB         -4.5257  -14.2116  -43.1035 C.3       3 UNK        -0.1800 
     59 N          -2.3830  -15.3237  -43.5257 N.am      3 UNK        -0.5000 
     60 C          -1.3133  -16.0833  -43.2482 C.2       2 UNK         0.5000 
     61 O          -0.8715  -16.2510  -42.1123 O.2       2 UNK        -0.5000 
     62 CA         -0.6046  -16.7444  -44.4449 C.3       2 UNK         0.1400 
     63 CB         -1.2694  -18.0797  -44.8024 C.3       2 UNK        -0.1800 
     64 N          -0.5962  -15.8944  -45.6335 N.am      2 UNK        -0.5000 
     65 C           0.1186  -14.7702  -45.7664 C.2       1 UNK         0.5000 
     66 O           0.8748  -14.3343  -44.8977 O.2       1 UNK        -0.5000 
     67 C          -1.5728  -22.0365  -46.8696 C.2       11 UNK         0.5000 
     68 O          -2.2014  -22.2075  -47.9146 O.2       11 UNK        -0.5000 
     69 N          -2.1520  -21.7006  -45.7077 N.am      12 UNK        -0.5000 
     70 CA         -3.6009  -21.6471  -45.5138 C.3       12 UNK         0.1400 
     71 CB         -3.9546  -20.6894  -44.3655 C.3       12 UNK        -0.1800 
     72 C          -4.1716  -23.0487  -45.2497 C.2       12 UNK         0.5000 
     73 O          -5.1868  -23.4070  -45.8447 O.2       12 UNK        -0.5000 
     74 N          -3.4956  -23.8259  -44.3903 N.am      13 UNK        -0.5000 
     75 CA         -3.8899  -25.1809  -43.9930 C.3       13 UNK         0.1400 
     76 CB         -2.9581  -25.6778  -42.8783 C.3       13 UNK        -0.1800 
     77 C          -3.9182  -26.1819  -45.1638 C.2       13 UNK         0.5000 
     78 O          -4.8426  -26.9909  -45.2495 O.2       13 UNK        -0.5000 
     79 N          -2.9293  -26.0850  -46.0626 N.am      14 UNK        -0.5000 
     80 CA         -2.8461  -26.8670  -47.2988 C.3       14 UNK         0.1400 
     81 CB         -1.3794  -26.9072  -47.7586 C.3       14 UNK        -0.1800 
     82 C          -3.7409  -26.3168  -48.4289 C.2       14 UNK         0.5000 
     83 O          -3.8429  -26.9597  -49.4741 O.2       14 UNK        -0.5000 
     84 N          -4.3363  -25.1312  -48.2205 N.am      15 UNK        -0.5000 
     85 CA         -5.1411  -24.3479  -49.1658 C.3       15 UNK         0.1400 
     86 CB         -6.4300  -25.1002  -49.5567 C.3       15 UNK        -0.1800 
     87 C          -4.3451  -23.8498  -50.3918 C.2       15 UNK         0.5000 
     88 O          -4.9418  -23.4978  -51.4095 O.2       15 UNK        -0.5000 
     89 N          -3.0130  -23.7925  -50.2655 N.am      16 UNK        -0.5000 
     90 CA         -2.0840  -23.3456  -51.2993 C.3       16 UNK         0.1400 
     91 CB         -0.6471  -23.6831  -50.8760 C.3       16 UNK        -0.1800 
     92 C          -2.2284  -21.8466  -51.5999 C.2       16 UNK         0.5000 
     93 O          -2.2860  -21.4746  -52.7699 O.2       16 UNK        -0.5000 
     94 N          -2.3280  -21.0269  -50.5452 N.am      17 UNK        -0.5000 
     95 CA         -2.5596  -19.5841  -50.6518 C.3       17 UNK         0.1400 
     96 CB         -2.0852  -18.8950  -49.3618 C.3       17 UNK        -0.1800 
     97 C          -4.0339  -19.2390  -50.9407 C.2       17 UNK         0.5000 
     98 O          -4.3167  -18.1390  -51.4157 O.2       17 UNK        -0.5000 
     99 N          -4.9474  -20.1699  -50.6304 N.am      18 UNK        -0.5000 
    100 CA        -6.3894  -20.0193  -50.8284 C.3       18 UNK         0.1400 
    101 CB        -7.1290  -20.9707  -49.8753 C.3       18 UNK        -0.1800 
    102 C         -6.8258  -20.2655  -52.2852 C.2       18 UNK         0.5000 
    103 O         -7.8527  -19.7274  -52.7020 O.2       18 UNK        -0.5000 
    104 N         -6.0584  -21.0762  -53.0276 N.am      19 UNK        -0.5000 
    105 CA        -6.2826  -21.3876  -54.4391 C.3       19 UNK         0.1400 
    106 CB        -5.2966  -22.4855  -54.8685 C.3       19 UNK        -0.1800 
    107 C         -6.1293  -20.1458  -55.3374 C.2       19 UNK         0.5000 
    108 O         -5.2203  -19.3438  -55.1175 O.2       19 UNK        -0.5000 
    109 N         -6.9944  -20.0277  -56.3539 N.am      20 UNK        -0.5000 
    110 CA        -7.0296  -18.8966  -57.2883 C.3       20 UNK         0.1400 
    111 CB        -8.3085  -18.9773  -58.1359 C.3       20 UNK        -0.1800 
    112 C         -5.7847  -18.8087  -58.1918 C.2       20 UNK         0.5000 
    113 O         -5.3084  -17.7073  -58.4684 O.2       20 UNK        -0.5000 
    114 N         -5.2685  -19.9717  -58.6120 N.am      21 UNK        -0.5000 
    115 CA        -4.0207  -20.0991  -59.3719 C.3       21 UNK         0.1400 
    116 CB        -4.0511  -21.4253  -60.1481 C.3       21 UNK        -0.1800 
    117 C         -2.7672  -20.0313  -58.4743 C.2       21 UNK         0.5000 
    118 O         -1.6733  -19.7842  -58.9826 O.2       21 UNK        -0.5000 
    119 N         -2.9633  -20.2460  -57.1671 N.am      22 UNK        -0.5000 
    120 CA        -1.9665  -20.3638  -56.0964 C.3       22 UNK         0.1400 
    121 C         -1.1470  -21.6833  -56.1722 C.2       22 UNK         0.5000 
    122 N         -1.0501  -22.4130  -55.0720 N.am      22 UNK        -0.7600 
    123 O         -0.5759  -22.0413  -57.1989 O.2       22 UNK        -0.5000 
    124 C124       -1.0588  -19.1109  -55.9562 C.3       23 UNK        -0.0398 
    125 S125       -0.7827  -18.6686  -54.2089 S.3       23 UNK        -0.2404 
    126 C126        0.8516  -19.4083  -53.8992 C.3       23 UNK        -0.0205 
    127 H127       -4.5561  -14.2452  -46.9828 H         1 UNK         0.0600 
    128 H128       -3.7945  -14.1092  -48.5708 H         1 UNK         0.0600 
    129 H129       -4.3103  -12.6545  -47.7109 H         1 UNK         0.0600 
    130 H130       -1.5814  -14.3803  -48.4931 H         1 UNK         0.3000 
    131 H131        0.1760  -12.9459  -46.8541 H         1 UNK         0.0600 
    132 H132        1.9456  -14.4966  -47.7788 H         1 UNK         0.0800 
    133 H133        0.9495  -13.7329  -48.9849 H         1 UNK         0.0800 
    134 H134        1.8997  -15.6104  -50.7842 H         1 UNK         0.0800 
    135 H135        2.8476  -16.2459  -49.4631 H         1 UNK         0.0800 
    136 H136        1.1284  -17.0857  -52.5091 H         1 UNK         0.1150 
    137 H137        1.5681  -21.3265  -52.0882 H         1 UNK         0.1150 
    138 H138        2.5459  -18.7197  -48.8232 H         1 UNK         0.1150 
    139 H139        1.8632  -22.2540  -49.8277 H         1 UNK         0.0800 
    140 H140        3.5107  -21.6820  -49.8341 H         1 UNK         0.0800 
    141 H141        0.2012  -20.6613  -48.3624 H         1 UNK         0.0800 
    142 H142        0.5567  -20.1450  -46.7345 H         1 UNK         0.0800 
    143 H143        0.1507  -23.0523  -47.5852 H         1 UNK         0.0600 
    144 H144        1.0051  -21.9760  -45.0567 H         1 UNK         0.3000 
    145 H145        0.1897  -24.9103  -43.1649 H         1 UNK         0.0600 
    146 H146        2.6303  -24.9573  -42.7454 H         1 UNK         0.0600 
    147 H147        2.2880  -25.5748  -44.3534 H         1 UNK         0.0600 
    148 H148        2.9235  -23.9453  -44.1604 H         1 UNK         0.0600 
    149 H149        1.6884  -22.6667  -42.4080 H         1 UNK         0.3000 
    150 H150       -0.6808  -20.1561  -42.0984 H         1 UNK         0.0600 
    151 H151        0.2719  -21.8448  -39.7234 H         1 UNK         0.0600 
    152 H152       -1.4040  -21.4496  -40.0862 H         1 UNK         0.0600 
    153 H153       -0.2820  -20.1709  -39.6518 H         1 UNK         0.0600 
    154 H154        1.8828  -20.3849  -40.9297 H         1 UNK         0.3000 
    155 H155        3.6270  -19.2177  -41.8555 H         1 UNK         0.0600 
    156 H156        4.1691  -21.5000  -43.8429 H         1 UNK         0.0600 
    157 H157        4.0627  -21.6700  -42.0946 H         1 UNK         0.0600 
    158 H158        5.3730  -20.7413  -42.8014 H         1 UNK         0.0600 
    159 H159        4.3700  -19.2072  -44.6538 H         1 UNK         0.3000 
    160 H160        5.0163  -16.9504  -45.3802 H         1 UNK         0.0600 
    161 H161        2.0852  -17.1132  -46.3097 H         1 UNK         0.0600 
    162 H162        3.3308  -18.3144  -46.6185 H         1 UNK         0.0600 
    163 H163        3.4645  -16.7189  -47.3366 H         1 UNK         0.0600 
    164 H164        2.7813  -15.1079  -44.6852 H         1 UNK         0.3000 
    165 H165        5.0014  -12.4582  -44.1501 H         1 UNK         0.0600 
    166 H166        3.3119  -11.1434  -45.4243 H         1 UNK         0.0600 
    167 H167        4.3783  -12.0052  -46.5239 H         1 UNK         0.0600 
    168 H168        2.7502  -12.6051  -46.2322 H         1 UNK         0.0600 
    169 H169        2.1447  -13.1740  -43.9296 H         1 UNK         0.3000 
    170 H170        1.9088  -14.8339  -41.5590 H         1 UNK         0.0600 
    171 H171        3.0192  -14.0454  -39.5268 H         1 UNK         0.0600 
    172 H172        2.4410  -12.4052  -39.7725 H         1 UNK         0.0600 
    173 H173        1.3025  -13.7005  -39.4017 H         1 UNK         0.0600 
    174 H174        0.1752  -13.8102  -42.4269 H         1 UNK         0.3000 
    175 H175       -1.3607  -10.7843  -42.1514 H         1 UNK         0.0600 
    176 H176        0.0819   -9.9365  -44.0014 H         1 UNK         0.0600 
    177 H177        0.0175  -11.5045  -44.7966 H         1 UNK         0.0600 
    178 H178       -1.4442  -10.5325  -44.6358 H         1 UNK         0.0600 
    179 H179       -1.7938  -12.9546  -43.9800 H         1 UNK         0.3000 
    180 H180       -3.2968  -15.2011  -41.6536 H         1 UNK         0.0600 
    181 H181       -4.4478  -13.5772  -43.9869 H         1 UNK         0.0600 
    182 H182       -5.1260  -13.6751  -42.3677 H         1 UNK         0.0600 
    183 H183       -5.0793  -15.1083  -43.3825 H         1 UNK         0.0600 
    184 H184       -2.6474  -15.1932  -44.4912 H         1 UNK         0.3000 
    185 H185        0.4277  -16.9446  -44.1543 H         1 UNK         0.0600 
    186 H186       -1.3177  -18.7409  -43.9372 H         1 UNK         0.0600 
    187 H187       -2.2850  -17.9314  -45.1691 H         1 UNK         0.0600 
    188 H188       -0.7081  -18.6004  -45.5764 H         1 UNK         0.0600 
    189 H189       -1.1778  -16.1815  -46.4070 H         1 UNK         0.3000 
    190 H190       -1.5804  -21.6311  -44.8765 H         1 UNK         0.3000 
    191 H191       -4.0719  -21.2610  -46.4207 H         1 UNK         0.0600 
    192 H192       -3.6802  -19.6656  -44.6099 H         1 UNK         0.0600 
    193 H193       -5.0283  -20.6927  -44.1737 H         1 UNK         0.0600 
    194 H194       -3.4570  -20.9588  -43.4343 H         1 UNK         0.0600 
    195 H195       -2.6875  -23.4322  -43.9162 H         1 UNK         0.3000 
    196 H196       -4.9013  -25.1193  -43.5861 H         1 UNK         0.0600 
    197 H197       -3.2889  -26.6446  -42.4970 H         1 UNK         0.0600 
    198 H198       -2.9388  -24.9842  -42.0374 H         1 UNK         0.0600 
    199 H199       -1.9370  -25.8010  -43.2371 H         1 UNK         0.0600 
    200 H200       -2.1640  -25.4376  -45.8879 H         1 UNK         0.3000 
    201 H201       -3.1669  -27.8903  -47.0932 H         1 UNK         0.0600 
    202 H202       -1.2598  -27.5409  -48.6382 H         1 UNK         0.0600 
    203 H203       -0.7321  -27.3098  -46.9792 H         1 UNK         0.0600 
    204 H204       -1.0122  -25.9134  -48.0185 H         1 UNK         0.0600 
    205 H205       -4.2235  -24.7052  -47.3092 H         1 UNK         0.3000 
    206 H206       -5.4398  -23.4494  -48.6246 H         1 UNK         0.0600 
    207 H207       -6.9773  -25.4275  -48.6727 H         1 UNK         0.0600 
    208 H208       -7.1001  -24.4614  -50.1326 H         1 UNK         0.0600 
    209 H209       -6.2191  -25.9788  -50.1666 H         1 UNK         0.0600 
    210 H210       -2.6157  -24.0121  -49.3635 H         1 UNK         0.3000 
    211 H211       -2.3091  -23.8954  -52.2156 H         1 UNK         0.0600 
    212 H212       -0.3726  -23.1767  -49.9511 H         1 UNK         0.0600 
    213 H213        0.0671  -23.3800  -51.6426 H         1 UNK         0.0600 
    214 H214       -0.5229  -24.7550  -50.7209 H         1 UNK         0.0600 
    215 H215       -2.2923  -21.4258  -49.6101 H         1 UNK         0.3000 
    216 H216       -1.9650  -19.1899  -51.4783 H         1 UNK         0.0600 
    217 H217       -2.3309  -17.8322  -49.3706 H         1 UNK         0.0600 
    218 H218       -1.0031  -18.9636  -49.2602 H         1 UNK         0.0600 
    219 H219       -2.5430  -19.3319  -48.4737 H         1 UNK         0.0600 
    220 H220       -4.6235  -21.0509  -50.2625 H         1 UNK         0.3000 
    221 H221       -6.6714  -18.9970  -50.5670 H         1 UNK         0.0600 
    222 H222       -6.9364  -22.0144  -50.1205 H         1 UNK         0.0600 
    223 H223       -6.8334  -20.8058  -48.8389 H         1 UNK         0.0600 
    224 H224       -8.2072  -20.8173  -49.9341 H         1 UNK         0.0600 
    225 H225       -5.2482  -21.5007  -52.5971 H         1 UNK         0.3000 
    226 H226       -7.2990  -21.7735  -54.5401 H         1 UNK         0.0600 
    227 H227       -5.4301  -22.7484  -55.9186 H         1 UNK         0.0600 
    228 H228       -4.2609  -22.1714  -54.7355 H         1 UNK         0.0600 
    229 H229       -5.4433  -23.3947  -54.2850 H         1 UNK         0.0600 
    230 H230       -7.7097  -20.7307  -56.4743 H         1 UNK         0.3000 
    231 H231       -7.0720  -17.9781  -56.6989 H         1 UNK         0.0600 
    232 H232       -8.3436  -19.8923  -58.7285 H         1 UNK         0.0600 
    233 H233       -8.3724  -18.1360  -58.8273 H         1 UNK         0.0600 
    234 H234       -9.1998  -18.9484  -57.5088 H         1 UNK         0.0600 
    235 H235       -5.7375  -20.8287  -58.3570 H         1 UNK         0.3000 
    236 H236       -3.9564  -19.2827  -60.0945 H         1 UNK         0.0600 
    237 H237       -4.9038  -21.4665  -60.8261 H         1 UNK         0.0600 
    238 H238       -3.1508  -21.5447  -60.7524 H         1 UNK         0.0600 
    239 H239       -4.1117  -22.2834  -59.4774 H         1 UNK         0.0600 
    240 H240       -3.9165  -20.3770  -56.8642 H         1 UNK         0.3000 
    241 H241       -2.5893  -20.4238  -55.2031 H         1 UNK         0.0600 
    242 H242       -0.5211  -23.2697  -55.0878 H         1 UNK         0.3800 
    243 H243       -1.4991  -22.1003  -54.2111 H         1 UNK         0.3800 
    244 H244       -0.1101  -19.2277  -56.4834 H         1 UNK         0.0800 
    245 H245       -1.5405  -18.2451  -56.4125 H         1 UNK         0.0800 
    246 H246        0.8198  -20.4672  -54.1574 H         1 UNK         0.0800 
    247 H247        1.5883  -18.9469  -54.5581 H         1 UNK         0.0800 
@<TRIPOS>BOND
     1    1    2 1    
     2    1  127 1    
     3    1  128 1    
     4    1  129 1    
     5    2    3 2    
     6    2    4 am   BACKBONE|DICT|INTERRES
     7    4    5 1    
     8    4  130 1    
     9    5    6 1    
    10    5   65 1    
    11    5  131 1    
    12    6    7 1    
    13    6  132 1    
    14    6  133 1    
    15    7    8 1    
    16    8    9 1    
    17    8  134 1    
    18    8  135 1    
    19    9   10 ar   
    20    9   14 ar   
    21   10   11 ar   
    22   10  136 1    
    23   11   12 ar   
    24   11  126 1    
    25   12   13 ar   
    26   12  137 1    
    27   13   14 ar   
    28   13   15 1    
    29   14  138 1    
    30   15   16 1    
    31   15  139 1    
    32   15  140 1    
    33   16   17 1    
    34   17   18 1    
    35   17  141 1    
    36   17  142 1    
    37   18   19 1    
    38   18   67 1    
    39   18  143 1    
    40   19   20 am   BACKBONE|DICT|INTERRES
    41   19  144 1    
    42   20   21 2    
    43   20   22 1    
    44   22   23 1    
    45   22   24 1    
    46   22  145 1    
    47   23  146 1    
    48   23  147 1    
    49   23  148 1    
    50   24   25 am   BACKBONE|DICT|INTERRES
    51   24  149 1    
    52   25   26 2    
    53   25   27 1    
    54   27   28 1    
    55   27   29 1    
    56   27  150 1    
    57   28  151 1    
    58   28  152 1    
    59   28  153 1    
    60   29   30 am   BACKBONE|DICT|INTERRES
    61   29  154 1    
    62   30   31 2    
    63   30   32 1    
    64   32   33 1    
    65   32   34 1    
    66   32  155 1    
    67   33  156 1    
    68   33  157 1    
    69   33  158 1    
    70   34   35 am   BACKBONE|DICT|INTERRES
    71   34  159 1    
    72   35   36 2    
    73   35   37 1    
    74   37   38 1    
    75   37   39 1    
    76   37  160 1    
    77   38  161 1    
    78   38  162 1    
    79   38  163 1    
    80   39   40 am   BACKBONE|DICT|INTERRES
    81   39  164 1    
    82   40   41 2    
    83   40   42 1    
    84   42   43 1    
    85   42   44 1    
    86   42  165 1    
    87   43  166 1    
    88   43  167 1    
    89   43  168 1    
    90   44   45 am   BACKBONE|DICT|INTERRES
    91   44  169 1    
    92   45   46 2    
    93   45   47 1    
    94   47   48 1    
    95   47   49 1    
    96   47  170 1    
    97   48  171 1    
    98   48  172 1    
    99   48  173 1    
   100   49   50 am   BACKBONE|DICT|INTERRES
   101   49  174 1    
   102   50   51 2    
   103   50   52 1    
   104   52   53 1    
   105   52   54 1    
   106   52  175 1    
   107   53  176 1    
   108   53  177 1    
   109   53  178 1    
   110   54   55 am   BACKBONE|DICT|INTERRES
   111   54  179 1    
   112   55   56 2    
   113   55   57 1    
   114   57   58 1    
   115   57   59 1    
   116   57  180 1    
   117   58  181 1    
   118   58  182 1    
   119   58  183 1    
   120   59   60 am   BACKBONE|DICT|INTERRES
   121   59  184 1    
   122   60   61 2    
   123   60   62 1    
   124   62   63 1    
   125   62   64 1    
   126   62  185 1    
   127   63  186 1    
   128   63  187 1    
   129   63  188 1    
   130   64   65 am   BACKBONE|DICT|INTERRES
   131   64  189 1    
   132   65   66 2    
   133   67   68 2    
   134   67   69 am   BACKBONE|DICT|INTERRES
   135   69   70 1    
   136   69  190 1    
   137   70   71 1    
   138   70   72 1    
   139   70  191 1    
   140   71  192 1    
   141   71  193 1    
   142   71  194 1    
   143   72   73 2    
   144   72   74 am   BACKBONE|DICT|INTERRES
   145   74   75 1    
   146   74  195 1    
   147   75   76 1    
   148   75   77 1    
   149   75  196 1    
   150   76  197 1    
   151   76  198 1    
   152   76  199 1    
   153   77   78 2    
   154   77   79 am   BACKBONE|DICT|INTERRES
   155   79   80 1    
   156   79  200 1    
   157   80   81 1    
   158   80   82 1    
   159   80  201 1    
   160   81  202 1    
   161   81  203 1    
   162   81  204 1    
   163   82   83 2    
   164   82   84 am   BACKBONE|DICT|INTERRES
   165   84   85 1    
   166   84  205 1    
   167   85   86 1    
   168   85   87 1    
   169   85  206 1    
   170   86  207 1    
   171   86  208 1    
   172   86  209 1    
   173   87   88 2    
   174   87   89 am   BACKBONE|DICT|INTERRES
   175   89   90 1    
   176   89  210 1    
   177   90   91 1    
   178   90   92 1    
   179   90  211 1    
   180   91  212 1    
   181   91  213 1    
   182   91  214 1    
   183   92   93 2    
   184   92   94 am   BACKBONE|DICT|INTERRES
   185   94   95 1    
   186   94  215 1    
   187   95   96 1    
   188   95   97 1    
   189   95  216 1    
   190   96  217 1    
   191   96  218 1    
   192   96  219 1    
   193   97   98 2    
   194   97   99 am   BACKBONE|DICT|INTERRES
   195   99  100 1    
   196   99  220 1    
   197  100  101 1    
   198  100  102 1    
   199  100  221 1    
   200  101  222 1    
   201  101  223 1    
   202  101  224 1    
   203  102  103 2    
   204  102  104 am   BACKBONE|DICT|INTERRES
   205  104  105 1    
   206  104  225 1    
   207  105  106 1    
   208  105  107 1    
   209  105  226 1    
   210  106  227 1    
   211  106  228 1    
   212  106  229 1    
   213  107  108 2    
   214  107  109 am   BACKBONE|DICT|INTERRES
   215  109  110 1    
   216  109  230 1    
   217  110  111 1    
   218  110  112 1    
   219  110  231 1    
   220  111  232 1    
   221  111  233 1    
   222  111  234 1    
   223  112  113 2    
   224  112  114 am   BACKBONE|DICT|INTERRES
   225  114  115 1    
   226  114  235 1    
   227  115  116 1    
   228  115  117 1    
   229  115  236 1    
   230  116  237 1    
   231  116  238 1    
   232  116  239 1    
   233  117  118 2    
   234  117  119 am   BACKBONE|DICT|INTERRES
   235  119  120 1    
   236  119  240 1    
   237  120  121 1    
   238  120  124 1    
   239  120  241 1    
   240  121  122 am   BACKBONE|DICT|INTERRES
   241  121  123 2    
   242  122  242 1    
   243  122  243 1    
   244  124  125 1    
   245  124  244 1    
   246  124  245 1    
   247  125  126 1    
   248  126  246 1    
   249  126  247 1    
@<TRIPOS>SUBSTRUCTURE
     1 UNK         1 GROUP             0       ****    0 ROOT    
