@<TRIPOS>MOLECULE
3R540
247   249    1
SMALL
USER_CHARGES


@<TRIPOS>ATOM
      1 CA          2.9636   -9.8946  -48.0841 C.3       0 UNK        -0.1800 
      2 C           3.3568  -11.2994  -48.5145 C.2       0 UNK         0.5000 
      3 O           4.5360  -11.6517  -48.4739 O.2       0 UNK        -0.5000 
      4 N           2.3661  -12.1028  -48.9179 N.am      1 UNK        -0.5000 
      5 CA          2.5048  -13.4775  -49.4189 C.3       1 UNK         0.1400 
      6 C6          1.1865  -14.0178  -50.0343 C.3       23 UNK        -0.0398 
      7 S7         -0.3313  -13.5882  -49.1083 S.3       23 UNK        -0.2404 
      8 C8         -0.5188  -14.9809  -47.9528 C.3       23 UNK        -0.0205 
      9 C9         -0.7491  -16.3089  -48.6556 C.ar      23 UNK        -0.0193 
     10 C10        -1.9304  -16.5297  -49.3662 C.ar      23 UNK        -0.1150 
     11 C11        -2.1560  -17.7491  -50.0089 C.ar      23 UNK        -0.0193 
     12 C12        -1.2049  -18.7704  -49.9023 C.ar      23 UNK        -0.1150 
     13 C13        -0.0181  -18.5616  -49.1912 C.ar      23 UNK        -0.0193 
     14 C14         0.2070  -17.3247  -48.5798 C.ar      23 UNK        -0.1150 
     15 C15         1.0428  -19.6515  -49.1096 C.3       23 UNK        -0.0205 
     16 S16         1.3042  -20.2367  -47.4034 S.3       23 UNK        -0.2404 
     17 C17        -0.1902  -21.2393  -47.1175 C.3       23 UNK        -0.0398 
     18 CA          0.1244  -22.7339  -46.8658 C.3       11 UNK         0.1400 
     19 N           1.0295  -22.9506  -45.7324 N.am      11 UNK        -0.5000 
     20 C           1.6229  -24.1172  -45.4405 C.2       10 UNK         0.5000 
     21 O           1.4931  -25.1370  -46.1159 O.2       10 UNK        -0.5000 
     22 CA          2.4589  -24.1653  -44.1482 C.3       10 UNK         0.1400 
     23 CB          3.8650  -23.5979  -44.3929 C.3       10 UNK        -0.1800 
     24 N           1.8273  -23.4373  -43.0470 N.am      10 UNK        -0.5000 
     25 C           0.6609  -23.7760  -42.4777 C.2       9 UNK         0.5000 
     26 O           0.0296  -24.7903  -42.7694 O.2       9 UNK        -0.5000 
     27 CA          0.0705  -22.7799  -41.4596 C.3       9 UNK         0.1400 
     28 CB          0.5573  -23.1058  -40.0403 C.3       9 UNK        -0.1800 
     29 N           0.3904  -21.3842  -41.7771 N.am      9 UNK        -0.5000 
     30 C           0.0121  -20.7576  -42.8993 C.2       8 UNK         0.5000 
     31 O          -0.6993  -21.2790  -43.7619 O.2       8 UNK        -0.5000 
     32 CA          0.6158  -19.3607  -43.1269 C.3       8 UNK         0.1400 
     33 CB          2.0949  -19.4883  -43.5287 C.3       8 UNK        -0.1800 
     34 N          -0.0841  -18.6168  -44.1728 N.am      8 UNK        -0.5000 
     35 C          -1.2669  -18.0132  -44.0126 C.2       7 UNK         0.5000 
     36 O          -1.9010  -18.0074  -42.9540 O.2       7 UNK        -0.5000 
     37 CA         -1.8362  -17.3003  -45.2532 C.3       7 UNK         0.1400 
     38 CB         -2.7891  -18.2188  -46.0325 C.3       7 UNK        -0.1800 
     39 N          -2.5439  -16.0694  -44.8999 N.am      7 UNK        -0.5000 
     40 C          -1.9411  -14.9564  -44.4664 C.2       6 UNK         0.5000 
     41 O          -0.7213  -14.8467  -44.3283 O.2       6 UNK        -0.5000 
     42 CA         -2.8498  -13.7628  -44.1278 C.3       6 UNK         0.1400 
     43 CB         -3.0879  -13.6780  -42.6124 C.3       6 UNK        -0.1800 
     44 N          -2.2277  -12.5213  -44.5814 N.am      6 UNK        -0.5000 
     45 C          -2.2302  -12.0844  -45.8482 C.2       5 UNK         0.5000 
     46 O          -2.9033  -12.6004  -46.7404 O.2       5 UNK        -0.5000 
     47 CA         -1.3440  -10.8638  -46.1774 C.3       5 UNK         0.1400 
     48 CB         -2.2078   -9.6138  -46.4060 C.3       5 UNK        -0.1800 
     49 N          -0.3629  -10.5740  -45.1275 N.am      5 UNK        -0.5000 
     50 C           0.7960  -11.2253  -44.9741 C.2       4 UNK         0.5000 
     51 O           1.2138  -12.0809  -45.7618 O.2       4 UNK        -0.5000 
     52 CA          1.5921  -10.8784  -43.7008 C.3       4 UNK         0.1400 
     53 CB          0.9602  -11.5606  -42.4764 C.3       4 UNK        -0.1800 
     54 N           2.9645  -11.3484  -43.8294 N.am      4 UNK        -0.5000 
     55 C           3.9554  -10.6915  -44.4380 C.2       3 UNK         0.5000 
     56 O           3.9146   -9.4914  -44.7096 O.2       3 UNK        -0.5000 
     57 CA          5.1684  -11.5347  -44.8804 C.3       3 UNK         0.1400 
     58 CB          6.1602  -11.7676  -43.7247 C.3       3 UNK        -0.1800 
     59 N           4.7725  -12.7877  -45.5439 N.am      3 UNK        -0.5000 
     60 C           4.1871  -13.8753  -45.0150 C.2       2 UNK         0.5000 
     61 O           4.0018  -14.0326  -43.8073 O.2       2 UNK        -0.5000 
     62 CA          3.6421  -14.9034  -46.0192 C.3       2 UNK         0.1400 
     63 CB          2.6707  -15.9167  -45.3877 C.3       2 UNK        -0.1800 
     64 N           2.9725  -14.1900  -47.1042 N.am      2 UNK        -0.5000 
     65 C           3.1140  -14.4697  -48.4040 C.2       1 UNK         0.5000 
     66 O           3.7302  -15.4499  -48.8244 O.2       1 UNK        -0.5000 
     67 C          -1.1853  -23.5224  -46.6863 C.2       11 UNK         0.5000 
     68 O          -1.7029  -24.0616  -47.6638 O.2       11 UNK        -0.5000 
     69 N          -1.6929  -23.5848  -45.4476 N.am      12 UNK        -0.5000 
     70 CA         -2.8636  -24.3784  -45.0770 C.3       12 UNK         0.1400 
     71 CB         -3.3273  -23.9942  -43.6646 C.3       12 UNK        -0.1800 
     72 C          -2.6019  -25.8904  -45.1948 C.2       12 UNK         0.5000 
     73 O          -3.4225  -26.5993  -45.7767 O.2       12 UNK        -0.5000 
     74 N          -1.4465  -26.3477  -44.6905 N.am      13 UNK        -0.5000 
     75 CA         -0.9921  -27.7394  -44.7611 C.3       13 UNK         0.1400 
     76 CB          0.2778  -27.9070  -43.9134 C.3       13 UNK        -0.1800 
     77 C          -0.7509  -28.2273  -46.2023 C.2       13 UNK         0.5000 
     78 O          -1.0974  -29.3638  -46.5258 O.2       13 UNK        -0.5000 
     79 N          -0.1936  -27.3505  -47.0483 N.am      14 UNK        -0.5000 
     80 CA          0.0218  -27.5876  -48.4777 C.3       14 UNK         0.1400 
     81 CB          1.0533  -26.5707  -48.9931 C.3       14 UNK        -0.1800 
     82 C          -1.2672  -27.5018  -49.3213 C.2       14 UNK         0.5000 
     83 O          -1.2413  -27.8889  -50.4898 O.2       14 UNK        -0.5000 
     84 N          -2.3474  -26.9613  -48.7357 N.am      15 UNK        -0.5000 
     85 CA         -3.6344  -26.6212  -49.3556 C.3       15 UNK         0.1400 
     86 CB         -4.3510  -27.8737  -49.8996 C.3       15 UNK        -0.1800 
     87 C          -3.5311  -25.4879  -50.4004 C.2       15 UNK         0.5000 
     88 O          -4.4415  -25.3104  -51.2102 O.2       15 UNK        -0.5000 
     89 N          -2.4456  -24.7063  -50.3344 N.am      16 UNK        -0.5000 
     90 CA         -2.2127  -23.5093  -51.1372 C.3       16 UNK         0.1400 
     91 CB         -0.7333  -23.1086  -51.0355 C.3       16 UNK        -0.1800 
     92 C          -3.1163  -22.3505  -50.6911 C.2       16 UNK         0.5000 
     93 O          -3.5790  -21.5888  -51.5350 O.2       16 UNK        -0.5000 
     94 N          -3.3932  -22.2663  -49.3806 N.am      17 UNK        -0.5000 
     95 CA         -4.2860  -21.2711  -48.7769 C.3       17 UNK         0.1400 
     96 CB         -4.2140  -21.3892  -47.2476 C.3       17 UNK        -0.1800 
     97 C          -5.7513  -21.3913  -49.2434 C.2       17 UNK         0.5000 
     98 O          -6.4807  -20.4003  -49.2130 O.2       17 UNK        -0.5000 
     99 N          -6.1542  -22.6014  -49.6551 N.am      18 UNK        -0.5000 
    100 CA        -7.4928  -22.9098  -50.1545 C.3       18 UNK         0.1400 
    101 CB        -7.7572  -24.4116  -49.9618 C.3       18 UNK        -0.1800 
    102 C         -7.6971  -22.5102  -51.6289 C.2       18 UNK         0.5000 
    103 O         -8.8453  -22.3857  -52.0580 O.2       18 UNK        -0.5000 
    104 N         -6.6051  -22.3289  -52.3846 N.am      19 UNK        -0.5000 
    105 CA        -6.6400  -21.9114  -53.7833 C.3       19 UNK         0.1400 
    106 CB        -5.3476  -22.3646  -54.4815 C.3       19 UNK        -0.1800 
    107 C         -6.7987  -20.3865  -53.8770 C.2       19 UNK         0.5000 
    108 O         -6.0772  -19.6587  -53.1940 O.2       19 UNK        -0.5000 
    109 N         -7.6978  -19.9235  -54.7552 N.am      20 UNK        -0.5000 
    110 CA        -7.9543  -18.4992  -55.0019 C.3       20 UNK         0.1400 
    111 CB        -9.2178  -18.3558  -55.8641 C.3       20 UNK        -0.1800 
    112 C         -6.7644  -17.7716  -55.6596 C.2       20 UNK         0.5000 
    113 O         -6.5654  -16.5814  -55.4156 O.2       20 UNK        -0.5000 
    114 N         -5.9873  -18.5105  -56.4626 N.am      21 UNK        -0.5000 
    115 CA        -4.7452  -18.0511  -57.0869 C.3       21 UNK         0.1400 
    116 CB        -4.5532  -18.8193  -58.4050 C.3       21 UNK        -0.1800 
    117 C         -3.5135  -18.2289  -56.1734 C.2       21 UNK         0.5000 
    118 O         -2.4301  -17.7695  -56.5361 O.2       21 UNK        -0.5000 
    119 N         -3.6882  -18.9064  -55.0296 N.am      22 UNK        -0.5000 
    120 CA        -2.6564  -19.2360  -54.0303 C.3       22 UNK         0.1400 
    121 C         -1.5547  -20.2293  -54.5138 C.2       22 UNK         0.5000 
    122 N         -1.7522  -20.9560  -55.6074 N.am      22 UNK        -0.7600 
    123 O         -0.5159  -20.3733  -53.8756 O.2       22 UNK        -0.5000 
    124 C124       -2.0750  -17.9853  -53.3146 C.3       23 UNK        -0.0398 
    125 S125       -3.3551  -17.0434  -52.4147 S.3       23 UNK        -0.2404 
    126 C126       -3.4217  -17.9445  -50.8307 C.3       23 UNK        -0.0205 
    127 H127        1.9963   -9.8916  -47.5814 H         1 UNK         0.0600 
    128 H128        2.9049   -9.2387  -48.9524 H         1 UNK         0.0600 
    129 H129        3.7033   -9.4831  -47.3985 H         1 UNK         0.0600 
    130 H130        1.4140  -11.7661  -48.8826 H         1 UNK         0.3000 
    131 H131        3.2313  -13.4258  -50.2327 H         1 UNK         0.0600 
    132 H132        1.0683  -13.5808  -51.0265 H         1 UNK         0.0800 
    133 H133        1.2319  -15.0940  -50.2099 H         1 UNK         0.0800 
    134 H134        0.3404  -15.0286  -47.2840 H         1 UNK         0.0800 
    135 H135       -1.3803  -14.7769  -47.3188 H         1 UNK         0.0800 
    136 H136       -2.6663  -15.7409  -49.4378 H         1 UNK         0.1150 
    137 H137       -1.3779  -19.7162  -50.3964 H         1 UNK         0.1150 
    138 H138        1.1287  -17.1583  -48.0413 H         1 UNK         0.1150 
    139 H139        0.7919  -20.4964  -49.7527 H         1 UNK         0.0800 
    140 H140        1.9840  -19.2503  -49.4879 H         1 UNK         0.0800 
    141 H141       -0.8611  -21.1314  -47.9716 H         1 UNK         0.0800 
    142 H142       -0.7181  -20.8097  -46.2675 H         1 UNK         0.0800 
    143 H143        0.6177  -23.1272  -47.7571 H         1 UNK         0.0600 
    144 H144        1.1511  -22.1696  -45.1061 H         1 UNK         0.3000 
    145 H145        2.5573  -25.2115  -43.8515 H         1 UNK         0.0600 
    146 H146        4.4891  -23.6944  -43.5043 H         1 UNK         0.0600 
    147 H147        4.3660  -24.1335  -45.2004 H         1 UNK         0.0600 
    148 H148        3.8335  -22.5429  -44.6687 H         1 UNK         0.0600 
    149 H149        2.2853  -22.5940  -42.7365 H         1 UNK         0.3000 
    150 H150       -1.0157  -22.8879  -41.4829 H         1 UNK         0.0600 
    151 H151        1.6379  -22.9905  -39.9474 H         1 UNK         0.0600 
    152 H152        0.3124  -24.1342  -39.7709 H         1 UNK         0.0600 
    153 H153        0.0848  -22.4571  -39.3025 H         1 UNK         0.0600 
    154 H154        0.9779  -20.8968  -41.1157 H         1 UNK         0.3000 
    155 H155        0.5521  -18.7997  -42.1920 H         1 UNK         0.0600 
    156 H156        2.2168  -20.0413  -44.4607 H         1 UNK         0.0600 
    157 H157        2.6733  -20.0056  -42.7625 H         1 UNK         0.0600 
    158 H158        2.5510  -18.5084  -43.6602 H         1 UNK         0.0600 
    159 H159        0.3525  -18.6119  -45.0826 H         1 UNK         0.3000 
    160 H160       -1.0044  -17.0347  -45.9072 H         1 UNK         0.0600 
    161 H161       -2.2608  -19.0933  -46.4081 H         1 UNK         0.0600 
    162 H162       -3.2137  -17.7089  -46.8974 H         1 UNK         0.0600 
    163 H163       -3.6125  -18.5704  -45.4096 H         1 UNK         0.0600 
    164 H164       -3.5514  -16.1006  -44.9491 H         1 UNK         0.3000 
    165 H165       -3.8136  -13.8864  -44.6265 H         1 UNK         0.0600 
    166 H166       -3.7416  -12.8424  -42.3617 H         1 UNK         0.0600 
    167 H167       -3.5640  -14.5867  -42.2416 H         1 UNK         0.0600 
    168 H168       -2.1535  -13.5503  -42.0639 H         1 UNK         0.0600 
    169 H169       -1.6139  -12.0651  -43.9250 H         1 UNK         0.3000 
    170 H170       -0.8149  -11.0856  -47.1068 H         1 UNK         0.0600 
    171 H171       -1.5957   -8.7590  -46.6944 H         1 UNK         0.0600 
    172 H172       -2.9300   -9.7791  -47.2068 H         1 UNK         0.0600 
    173 H173       -2.7674   -9.3410  -45.5104 H         1 UNK         0.0600 
    174 H174       -0.6285   -9.8747  -44.4486 H         1 UNK         0.3000 
    175 H175        1.5834   -9.7962  -43.5550 H         1 UNK         0.0600 
    176 H176       -0.0520  -11.1963  -42.2981 H         1 UNK         0.0600 
    177 H177        0.9031  -12.6430  -42.6043 H         1 UNK         0.0600 
    178 H178        1.5376  -11.3612  -41.5734 H         1 UNK         0.0600 
    179 H179        3.1077  -12.3427  -43.6795 H         1 UNK         0.3000 
    180 H180        5.6900  -10.9556  -45.6442 H         1 UNK         0.0600 
    181 H181        5.6995  -12.2831  -42.8820 H         1 UNK         0.0600 
    182 H182        6.5431  -10.8178  -43.3499 H         1 UNK         0.0600 
    183 H183        7.0164  -12.3570  -44.0527 H         1 UNK         0.0600 
    184 H184        4.8245  -12.7470  -46.5556 H         1 UNK         0.3000 
    185 H185        4.5097  -15.4478  -46.3973 H         1 UNK         0.0600 
    186 H186        3.1443  -16.4435  -44.5597 H         1 UNK         0.0600 
    187 H187        1.7788  -15.4252  -44.9995 H         1 UNK         0.0600 
    188 H188        2.3553  -16.6678  -46.1106 H         1 UNK         0.0600 
    189 H189        2.4319  -13.3737  -46.8281 H         1 UNK         0.3000 
    190 H190       -1.2396  -23.0571  -44.7098 H         1 UNK         0.3000 
    191 H191       -3.6694  -24.1340  -45.7705 H         1 UNK         0.0600 
    192 H192       -3.5379  -22.9266  -43.5964 H         1 UNK         0.0600 
    193 H193       -4.2421  -24.5251  -43.3987 H         1 UNK         0.0600 
    194 H194       -2.5790  -24.2362  -42.9107 H         1 UNK         0.0600 
    195 H195       -0.8483  -25.7038  -44.1790 H         1 UNK         0.3000 
    196 H196       -1.7747  -28.3654  -44.3275 H         1 UNK         0.0600 
    197 H197        0.6274  -28.9400  -43.9317 H         1 UNK         0.0600 
    198 H198        0.0935  -27.6445  -42.8716 H         1 UNK         0.0600 
    199 H199        1.0903  -27.2778  -44.2780 H         1 UNK         0.0600 
    200 H200        0.1378  -26.4622  -46.6833 H         1 UNK         0.3000 
    201 H201        0.4338  -28.5904  -48.6071 H         1 UNK         0.0600 
    202 H202        1.2690  -26.7284  -50.0506 H         1 UNK         0.0600 
    203 H203        1.9968  -26.6590  -48.4542 H         1 UNK         0.0600 
    204 H204        0.6976  -25.5458  -48.8795 H         1 UNK         0.0600 
    205 H205       -2.2581  -26.6830  -47.7668 H         1 UNK         0.3000 
    206 H206       -4.2499  -26.2209  -48.5488 H         1 UNK         0.0600 
    207 H207       -4.4054  -28.6561  -49.1427 H         1 UNK         0.0600 
    208 H208       -5.3739  -27.6391  -50.1965 H         1 UNK         0.0600 
    209 H209       -3.8462  -28.2848  -50.7740 H         1 UNK         0.0600 
    210 H210       -1.8075  -24.8635  -49.5638 H         1 UNK         0.3000 
    211 H211       -2.4409  -23.7370  -52.1807 H         1 UNK         0.0600 
    212 H212       -0.4477  -22.8712  -50.0107 H         1 UNK         0.0600 
    213 H213       -0.5255  -22.2291  -51.6465 H         1 UNK         0.0600 
    214 H214       -0.0833  -23.9100  -51.3872 H         1 UNK         0.0600 
    215 H215       -2.9703  -22.9469  -48.7586 H         1 UNK         0.3000 
    216 H216       -3.9253  -20.2808  -49.0577 H         1 UNK         0.0600 
    217 H217       -4.8091  -20.6104  -46.7692 H         1 UNK         0.0600 
    218 H218       -3.1939  -21.2831  -46.8835 H         1 UNK         0.0600 
    219 H219       -4.5985  -22.3490  -46.9039 H         1 UNK         0.0600 
    220 H220       -5.4826  -23.3544  -49.6694 H         1 UNK         0.3000 
    221 H221       -8.2254  -22.3593  -49.5604 H         1 UNK         0.0600 
    222 H222       -7.0684  -25.0213  -50.5473 H         1 UNK         0.0600 
    223 H223       -7.6559  -24.7003  -48.9155 H         1 UNK         0.0600 
    224 H224       -8.7696  -24.6725  -50.2731 H         1 UNK         0.0600 
    225 H225       -5.6930  -22.3563  -51.9479 H         1 UNK         0.3000 
    226 H226       -7.4825  -22.3952  -54.2824 H         1 UNK         0.0600 
    227 H227       -5.3617  -22.1016  -55.5398 H         1 UNK         0.0600 
    228 H228       -4.4640  -21.9022  -54.0413 H         1 UNK         0.0600 
    229 H229       -5.2236  -23.4458  -54.4163 H         1 UNK         0.0600 
    230 H230       -8.2571  -20.5796  -55.2817 H         1 UNK         0.3000 
    231 H231       -8.1416  -18.0183  -54.0394 H         1 UNK         0.0600 
    232 H232       -9.1004  -18.8381  -56.8353 H         1 UNK         0.0600 
    233 H233       -9.4494  -17.3053  -56.0453 H         1 UNK         0.0600 
    234 H234      -10.0841  -18.7974  -55.3712 H         1 UNK         0.0600 
    235 H235       -6.2417  -19.4748  -56.6178 H         1 UNK         0.3000 
    236 H236       -4.8279  -16.9878  -57.3216 H         1 UNK         0.0600 
    237 H237       -5.3962  -18.6628  -59.0783 H         1 UNK         0.0600 
    238 H238       -3.6567  -18.4838  -58.9281 H         1 UNK         0.0600 
    239 H239       -4.4527  -19.8921  -58.2362 H         1 UNK         0.0600 
    240 H240       -4.6254  -19.1868  -54.7740 H         1 UNK         0.3000 
    241 H241       -3.1919  -19.8039  -53.2734 H         1 UNK         0.0600 
    242 H242       -2.5959  -20.8563  -56.1465 H         1 UNK         0.3800 
    243 H243       -1.0380  -21.6008  -55.9066 H         1 UNK         0.3800 
    244 H244       -1.2899  -18.2621  -52.6118 H         1 UNK         0.0800 
    245 H245       -1.5980  -17.3200  -54.0347 H         1 UNK         0.0800 
    246 H246       -4.2813  -17.5920  -50.2590 H         1 UNK         0.0800 
    247 H247       -3.6028  -19.0005  -51.0283 H         1 UNK         0.0800 
@<TRIPOS>BOND
     1    1    2 1    
     2    1  127 1    
     3    1  128 1    
     4    1  129 1    
     5    2    3 2    
     6    2    4 am   BACKBONE|DICT|INTERRES
     7    4    5 1    
     8    4  130 1    
     9    5    6 1    
    10    5   65 1    
    11    5  131 1    
    12    6    7 1    
    13    6  132 1    
    14    6  133 1    
    15    7    8 1    
    16    8    9 1    
    17    8  134 1    
    18    8  135 1    
    19    9   10 ar   
    20    9   14 ar   
    21   10   11 ar   
    22   10  136 1    
    23   11   12 ar   
    24   11  126 1    
    25   12   13 ar   
    26   12  137 1    
    27   13   14 ar   
    28   13   15 1    
    29   14  138 1    
    30   15   16 1    
    31   15  139 1    
    32   15  140 1    
    33   16   17 1    
    34   17   18 1    
    35   17  141 1    
    36   17  142 1    
    37   18   19 1    
    38   18   67 1    
    39   18  143 1    
    40   19   20 am   BACKBONE|DICT|INTERRES
    41   19  144 1    
    42   20   21 2    
    43   20   22 1    
    44   22   23 1    
    45   22   24 1    
    46   22  145 1    
    47   23  146 1    
    48   23  147 1    
    49   23  148 1    
    50   24   25 am   BACKBONE|DICT|INTERRES
    51   24  149 1    
    52   25   26 2    
    53   25   27 1    
    54   27   28 1    
    55   27   29 1    
    56   27  150 1    
    57   28  151 1    
    58   28  152 1    
    59   28  153 1    
    60   29   30 am   BACKBONE|DICT|INTERRES
    61   29  154 1    
    62   30   31 2    
    63   30   32 1    
    64   32   33 1    
    65   32   34 1    
    66   32  155 1    
    67   33  156 1    
    68   33  157 1    
    69   33  158 1    
    70   34   35 am   BACKBONE|DICT|INTERRES
    71   34  159 1    
    72   35   36 2    
    73   35   37 1    
    74   37   38 1    
    75   37   39 1    
    76   37  160 1    
    77   38  161 1    
    78   38  162 1    
    79   38  163 1    
    80   39   40 am   BACKBONE|DICT|INTERRES
    81   39  164 1    
    82   40   41 2    
    83   40   42 1    
    84   42   43 1    
    85   42   44 1    
    86   42  165 1    
    87   43  166 1    
    88   43  167 1    
    89   43  168 1    
    90   44   45 am   BACKBONE|DICT|INTERRES
    91   44  169 1    
    92   45   46 2    
    93   45   47 1    
    94   47   48 1    
    95   47   49 1    
    96   47  170 1    
    97   48  171 1    
    98   48  172 1    
    99   48  173 1    
   100   49   50 am   BACKBONE|DICT|INTERRES
   101   49  174 1    
   102   50   51 2    
   103   50   52 1    
   104   52   53 1    
   105   52   54 1    
   106   52  175 1    
   107   53  176 1    
   108   53  177 1    
   109   53  178 1    
   110   54   55 am   BACKBONE|DICT|INTERRES
   111   54  179 1    
   112   55   56 2    
   113   55   57 1    
   114   57   58 1    
   115   57   59 1    
   116   57  180 1    
   117   58  181 1    
   118   58  182 1    
   119   58  183 1    
   120   59   60 am   BACKBONE|DICT|INTERRES
   121   59  184 1    
   122   60   61 2    
   123   60   62 1    
   124   62   63 1    
   125   62   64 1    
   126   62  185 1    
   127   63  186 1    
   128   63  187 1    
   129   63  188 1    
   130   64   65 am   BACKBONE|DICT|INTERRES
   131   64  189 1    
   132   65   66 2    
   133   67   68 2    
   134   67   69 am   BACKBONE|DICT|INTERRES
   135   69   70 1    
   136   69  190 1    
   137   70   71 1    
   138   70   72 1    
   139   70  191 1    
   140   71  192 1    
   141   71  193 1    
   142   71  194 1    
   143   72   73 2    
   144   72   74 am   BACKBONE|DICT|INTERRES
   145   74   75 1    
   146   74  195 1    
   147   75   76 1    
   148   75   77 1    
   149   75  196 1    
   150   76  197 1    
   151   76  198 1    
   152   76  199 1    
   153   77   78 2    
   154   77   79 am   BACKBONE|DICT|INTERRES
   155   79   80 1    
   156   79  200 1    
   157   80   81 1    
   158   80   82 1    
   159   80  201 1    
   160   81  202 1    
   161   81  203 1    
   162   81  204 1    
   163   82   83 2    
   164   82   84 am   BACKBONE|DICT|INTERRES
   165   84   85 1    
   166   84  205 1    
   167   85   86 1    
   168   85   87 1    
   169   85  206 1    
   170   86  207 1    
   171   86  208 1    
   172   86  209 1    
   173   87   88 2    
   174   87   89 am   BACKBONE|DICT|INTERRES
   175   89   90 1    
   176   89  210 1    
   177   90   91 1    
   178   90   92 1    
   179   90  211 1    
   180   91  212 1    
   181   91  213 1    
   182   91  214 1    
   183   92   93 2    
   184   92   94 am   BACKBONE|DICT|INTERRES
   185   94   95 1    
   186   94  215 1    
   187   95   96 1    
   188   95   97 1    
   189   95  216 1    
   190   96  217 1    
   191   96  218 1    
   192   96  219 1    
   193   97   98 2    
   194   97   99 am   BACKBONE|DICT|INTERRES
   195   99  100 1    
   196   99  220 1    
   197  100  101 1    
   198  100  102 1    
   199  100  221 1    
   200  101  222 1    
   201  101  223 1    
   202  101  224 1    
   203  102  103 2    
   204  102  104 am   BACKBONE|DICT|INTERRES
   205  104  105 1    
   206  104  225 1    
   207  105  106 1    
   208  105  107 1    
   209  105  226 1    
   210  106  227 1    
   211  106  228 1    
   212  106  229 1    
   213  107  108 2    
   214  107  109 am   BACKBONE|DICT|INTERRES
   215  109  110 1    
   216  109  230 1    
   217  110  111 1    
   218  110  112 1    
   219  110  231 1    
   220  111  232 1    
   221  111  233 1    
   222  111  234 1    
   223  112  113 2    
   224  112  114 am   BACKBONE|DICT|INTERRES
   225  114  115 1    
   226  114  235 1    
   227  115  116 1    
   228  115  117 1    
   229  115  236 1    
   230  116  237 1    
   231  116  238 1    
   232  116  239 1    
   233  117  118 2    
   234  117  119 am   BACKBONE|DICT|INTERRES
   235  119  120 1    
   236  119  240 1    
   237  120  121 1    
   238  120  124 1    
   239  120  241 1    
   240  121  122 am   BACKBONE|DICT|INTERRES
   241  121  123 2    
   242  122  242 1    
   243  122  243 1    
   244  124  125 1    
   245  124  244 1    
   246  124  245 1    
   247  125  126 1    
   248  126  246 1    
   249  126  247 1    
@<TRIPOS>SUBSTRUCTURE
     1 UNK         1 GROUP             0       ****    0 ROOT    
