@<TRIPOS>MOLECULE
3R540
247   249    1
SMALL
USER_CHARGES


@<TRIPOS>ATOM
      1 CA         -0.0245   -8.6016  -47.2142 C.3       0 UNK        -0.1800 
      2 C           0.1333  -10.1144  -47.2416 C.2       0 UNK         0.5000 
      3 O           0.4569  -10.7126  -46.2144 O.2       0 UNK        -0.5000 
      4 N          -0.1096  -10.7364  -48.4055 N.am      1 UNK        -0.5000 
      5 CA          0.0071  -12.1823  -48.6439 C.3       1 UNK         0.1400 
      6 C6         -0.2737  -12.5440  -50.1248 C.3       23 UNK        -0.0398 
      7 S7          0.1399  -14.2771  -50.5422 S.3       23 UNK        -0.2404 
      8 C8         -1.5131  -15.0078  -50.7986 C.3       23 UNK        -0.0205 
      9 C9         -1.6037  -16.4297  -50.2610 C.ar      23 UNK        -0.0193 
     10 C10        -0.8245  -17.4491  -50.8161 C.ar      23 UNK        -0.1150 
     11 C11        -0.9113  -18.7564  -50.3286 C.ar      23 UNK        -0.0193 
     12 C12        -1.8023  -19.0490  -49.2942 C.ar      23 UNK        -0.1150 
     13 C13        -2.5880  -18.0398  -48.7300 C.ar      23 UNK        -0.0193 
     14 C14        -2.4821  -16.7326  -49.2157 C.ar      23 UNK        -0.1150 
     15 C15        -3.5477  -18.3584  -47.5947 C.3       23 UNK        -0.0205 
     16 S16        -2.6785  -18.3555  -45.9953 S.3       23 UNK        -0.2404 
     17 C17        -3.0984  -19.9932  -45.3222 C.3       23 UNK        -0.0398 
     18 CA         -2.3817  -21.1582  -46.0451 C.3       11 UNK         0.1400 
     19 N          -0.9154  -21.0873  -45.9830 N.am      11 UNK        -0.5000 
     20 C          -0.1021  -21.8564  -46.7251 C.2       10 UNK         0.5000 
     21 O          -0.5103  -22.6441  -47.5762 O.2       10 UNK        -0.5000 
     22 CA          1.4052  -21.8013  -46.4239 C.3       10 UNK         0.1400 
     23 CB          2.1190  -20.7816  -47.3215 C.3       10 UNK        -0.1800 
     24 N           1.6669  -21.4864  -45.0227 N.am      10 UNK        -0.5000 
     25 C           1.4785  -22.3263  -43.9980 C.2       9 UNK         0.5000 
     26 O           1.1089  -23.4918  -44.1476 O.2       9 UNK        -0.5000 
     27 CA          1.6775  -21.7482  -42.5789 C.3       9 UNK         0.1400 
     28 CB          2.1487  -22.8076  -41.5620 C.3       9 UNK        -0.1800 
     29 N           2.5293  -20.5519  -42.5463 N.am      9 UNK        -0.5000 
     30 C           3.8348  -20.4631  -42.8458 C.2       8 UNK         0.5000 
     31 O           4.5404  -21.4324  -43.1265 O.2       8 UNK        -0.5000 
     32 CA          4.4615  -19.0523  -42.8765 C.3       8 UNK         0.1400 
     33 CB          4.7981  -18.6582  -44.3235 C.3       8 UNK        -0.1800 
     34 N           3.6101  -18.0112  -42.2951 N.am      8 UNK        -0.5000 
     35 C           3.4106  -17.8262  -40.9829 C.2       7 UNK         0.5000 
     36 O           3.9673  -18.4884  -40.1067 O.2       7 UNK        -0.5000 
     37 CA          2.3863  -16.7448  -40.5852 C.3       7 UNK         0.1400 
     38 CB          3.0476  -15.3594  -40.5305 C.3       7 UNK        -0.1800 
     39 N           1.2307  -16.6956  -41.4839 N.am      7 UNK        -0.5000 
     40 C           0.3435  -17.6885  -41.6456 C.2       6 UNK         0.5000 
     41 O           0.3796  -18.7494  -41.0224 O.2       6 UNK        -0.5000 
     42 CA         -0.7210  -17.4922  -42.7367 C.3       6 UNK         0.1400 
     43 CB         -1.8698  -16.5995  -42.2489 C.3       6 UNK        -0.1800 
     44 N          -0.1347  -16.9419  -43.9575 N.am      6 UNK        -0.5000 
     45 C           0.6656  -17.6399  -44.7750 C.2       5 UNK         0.5000 
     46 O           0.9260  -18.8308  -44.6104 O.2       5 UNK        -0.5000 
     47 CA          1.3090  -16.8903  -45.9523 C.3       5 UNK         0.1400 
     48 CB          0.4626  -17.0411  -47.2209 C.3       5 UNK        -0.1800 
     49 N           1.5171  -15.4728  -45.6675 N.am      5 UNK        -0.5000 
     50 C           2.4330  -15.0079  -44.8090 C.2       4 UNK         0.5000 
     51 O           3.1959  -15.7326  -44.1697 O.2       4 UNK        -0.5000 
     52 CA          2.4769  -13.4849  -44.5986 C.3       4 UNK         0.1400 
     53 CB          3.1820  -12.7930  -45.7744 C.3       4 UNK        -0.1800 
     54 N           1.1558  -12.8860  -44.4032 N.am      4 UNK        -0.5000 
     55 C           0.3323  -13.1645  -43.3826 C.2       3 UNK         0.5000 
     56 O           0.5702  -14.0154  -42.5249 O.2       3 UNK        -0.5000 
     57 CA         -0.9818  -12.3701  -43.3193 C.3       3 UNK         0.1400 
     58 CB         -0.7294  -10.9265  -42.8566 C.3       3 UNK        -0.1800 
     59 N          -1.6415  -12.3576  -44.6227 N.am      3 UNK        -0.5000 
     60 C          -2.5414  -13.2682  -45.0190 C.2       2 UNK         0.5000 
     61 O          -2.9868  -14.1492  -44.2849 O.2       2 UNK        -0.5000 
     62 CA         -3.0275  -13.1998  -46.4823 C.3       2 UNK         0.1400 
     63 CB         -4.3798  -12.4767  -46.5683 C.3       2 UNK        -0.1800 
     64 N          -2.0862  -12.5574  -47.4032 N.am      2 UNK        -0.5000 
     65 C          -0.8549  -13.0141  -47.6712 C.2       1 UNK         0.5000 
     66 O          -0.3680  -14.0061  -47.1356 O.2       1 UNK        -0.5000 
     67 C          -2.9257  -22.5085  -45.5394 C.2       11 UNK         0.5000 
     68 O          -3.9436  -22.9692  -46.0543 O.2       11 UNK        -0.5000 
     69 N          -2.2377  -23.1368  -44.5747 N.am      12 UNK        -0.5000 
     70 CA         -2.5758  -24.4721  -44.0786 C.3       12 UNK         0.1400 
     71 CB         -1.8574  -24.7328  -42.7459 C.3       12 UNK        -0.1800 
     72 C          -2.2481  -25.5665  -45.1108 C.2       12 UNK         0.5000 
     73 O          -3.0220  -26.5125  -45.2549 O.2       12 UNK        -0.5000 
     74 N          -1.1324  -25.3963  -45.8353 N.am      13 UNK        -0.5000 
     75 CA         -0.7136  -26.2707  -46.9320 C.3       13 UNK         0.1400 
     76 CB          0.7519  -25.9783  -47.2894 C.3       13 UNK        -0.1800 
     77 C          -1.6221  -26.1358  -48.1693 C.2       13 UNK         0.5000 
     78 O          -1.9818  -27.1475  -48.7722 O.2       13 UNK        -0.5000 
     79 N          -1.9942  -24.8935  -48.5092 N.am      14 UNK        -0.5000 
     80 CA         -2.9072  -24.5603  -49.6058 C.3       14 UNK         0.1400 
     81 CB         -2.8045  -23.0539  -49.8981 C.3       14 UNK        -0.1800 
     82 C          -4.3735  -24.9475  -49.3256 C.2       14 UNK         0.5000 
     83 O          -5.1355  -25.1254  -50.2752 O.2       14 UNK        -0.5000 
     84 N          -4.7326  -25.0642  -48.0380 N.am      15 UNK        -0.5000 
     85 CA         -6.0848  -25.2406  -47.4998 C.3       15 UNK         0.1400 
     86 CB         -6.7177  -26.5690  -47.9655 C.3       15 UNK        -0.1800 
     87 C          -6.9548  -23.9991  -47.7843 C.2       15 UNK         0.5000 
     88 O          -8.0363  -24.1075  -48.3661 O.2       15 UNK        -0.5000 
     89 N          -6.4295  -22.8399  -47.3623 N.am      16 UNK        -0.5000 
     90 CA         -6.9316  -21.4810  -47.5807 C.3       16 UNK         0.1400 
     91 CB         -8.3381  -21.3008  -46.9669 C.3       16 UNK        -0.1800 
     92 C          -6.8445  -21.0442  -49.0600 C.2       16 UNK         0.5000 
     93 O          -6.1453  -21.6795  -49.8537 O.2       16 UNK        -0.5000 
     94 N          -7.5207  -19.9318  -49.3878 N.am      17 UNK        -0.5000 
     95 CA         -7.5239  -19.2518  -50.6881 C.3       17 UNK         0.1400 
     96 CB         -8.2879  -20.0957  -51.7352 C.3       17 UNK        -0.1800 
     97 C          -6.0933  -18.8485  -51.1088 C.2       17 UNK         0.5000 
     98 O          -5.4172  -18.1704  -50.3364 O.2       17 UNK        -0.5000 
     99 N          -5.6597  -19.2847  -52.2942 N.am      18 UNK        -0.5000 
    100 CA        -4.2898  -19.2096  -52.7929 C.3       18 UNK         0.1400 
    101 CB        -3.9644  -17.7957  -53.3137 C.3       18 UNK        -0.1800 
    102 C         -4.1393  -20.3088  -53.8569 C.2       18 UNK         0.5000 
    103 O         -3.8408  -20.0197  -55.0182 O.2       18 UNK        -0.5000 
    104 N         -4.4439  -21.5494  -53.4457 N.am      19 UNK        -0.5000 
    105 CA        -4.5317  -22.7457  -54.2862 C.3       19 UNK         0.1400 
    106 CB        -4.8304  -23.9612  -53.3981 C.3       19 UNK        -0.1800 
    107 C         -3.2735  -23.0012  -55.1363 C.2       19 UNK         0.5000 
    108 O         -2.1568  -22.9103  -54.6245 O.2       19 UNK        -0.5000 
    109 N         -3.4930  -23.3044  -56.4236 N.am      20 UNK        -0.5000 
    110 CA        -2.4814  -23.5326  -57.4646 C.3       20 UNK         0.1400 
    111 CB        -1.6519  -24.7974  -57.1561 C.3       20 UNK        -0.1800 
    112 C         -1.5970  -22.2993  -57.7626 C.2       20 UNK         0.5000 
    113 O         -0.5018  -22.4568  -58.3049 O.2       20 UNK        -0.5000 
    114 N         -2.0934  -21.0994  -57.4176 N.am      21 UNK        -0.5000 
    115 CA        -1.4353  -19.7947  -57.5390 C.3       21 UNK         0.1400 
    116 CB        -1.2592  -19.4021  -59.0212 C.3       21 UNK        -0.1800 
    117 C         -0.1257  -19.7231  -56.7260 C.2       21 UNK         0.5000 
    118 O          0.9026  -19.2758  -57.2376 O.2       21 UNK        -0.5000 
    119 N         -0.1909  -20.1872  -55.4714 N.am      22 UNK        -0.5000 
    120 CA         0.9354  -20.2439  -54.5241 C.3       22 UNK         0.1400 
    121 C          1.5150  -18.8703  -54.0656 C.2       22 UNK         0.5000 
    122 N          0.8452  -17.7480  -54.2994 N.am      22 UNK        -0.7600 
    123 O          2.6011  -18.8249  -53.4946 O.2       22 UNK        -0.5000 
    124 C124        0.6159  -21.1670  -53.3183 C.3       23 UNK        -0.0398 
    125 S125       -0.8325  -20.6220  -52.3472 S.3       23 UNK        -0.2404 
    126 C126       -0.0321  -19.8468  -50.9134 C.3       23 UNK        -0.0205 
    127 H127       -0.3269   -8.2069  -48.1843 H         1 UNK         0.0600 
    128 H128       -0.7784   -8.3176  -46.4801 H         1 UNK         0.0600 
    129 H129        0.9188   -8.1329  -46.9342 H         1 UNK         0.0600 
    130 H130       -0.3762  -10.1805  -49.2058 H         1 UNK         0.3000 
    131 H131        1.0480  -12.4390  -48.4387 H         1 UNK         0.0600 
    132 H132        0.3366  -11.9122  -50.7715 H         1 UNK         0.0800 
    133 H133       -1.3079  -12.3214  -50.3912 H         1 UNK         0.0800 
    134 H134       -1.7410  -15.0107  -51.8653 H         1 UNK         0.0800 
    135 H135       -2.2749  -14.3880  -50.3244 H         1 UNK         0.0800 
    136 H136       -0.1422  -17.2217  -51.6227 H         1 UNK         0.1150 
    137 H137       -1.8727  -20.0611  -48.9257 H         1 UNK         0.1150 
    138 H138       -3.0878  -15.9520  -48.7784 H         1 UNK         0.1150 
    139 H139       -4.3519  -17.6219  -47.5626 H         1 UNK         0.0800 
    140 H140       -4.0302  -19.3179  -47.7831 H         1 UNK         0.0800 
    141 H141       -2.8474  -19.9937  -44.2602 H         1 UNK         0.0800 
    142 H142       -4.1828  -20.1080  -45.3769 H         1 UNK         0.0800 
    143 H143       -2.6587  -21.1095  -47.0978 H         1 UNK         0.0600 
    144 H144       -0.5067  -20.4239  -45.3367 H         1 UNK         0.3000 
    145 H145        1.8205  -22.7881  -46.6388 H         1 UNK         0.0600 
    146 H146        3.1984  -20.8182  -47.1733 H         1 UNK         0.0600 
    147 H147        1.9281  -20.9851  -48.3758 H         1 UNK         0.0600 
    148 H148        1.7916  -19.7645  -47.1160 H         1 UNK         0.0600 
    149 H149        1.8388  -20.5095  -44.8062 H         1 UNK         0.3000 
    150 H150        0.6905  -21.4110  -42.2594 H         1 UNK         0.0600 
    151 H151        1.4169  -23.6109  -41.4684 H         1 UNK         0.0600 
    152 H152        2.2790  -22.3721  -40.5714 H         1 UNK         0.0600 
    153 H153        3.0940  -23.2634  -41.8570 H         1 UNK         0.0600 
    154 H154        2.0437  -19.6905  -42.3317 H         1 UNK         0.3000 
    155 H155        5.3932  -19.0950  -42.3088 H         1 UNK         0.0600 
    156 H156        5.4855  -19.3738  -44.7762 H         1 UNK         0.0600 
    157 H157        5.2754  -17.6790  -44.3665 H         1 UNK         0.0600 
    158 H158        3.9043  -18.6244  -44.9465 H         1 UNK         0.0600 
    159 H159        3.1756  -17.3650  -42.9461 H         1 UNK         0.3000 
    160 H160        2.0204  -16.9872  -39.5854 H         1 UNK         0.0600 
    161 H161        3.4111  -15.0471  -41.5099 H         1 UNK         0.0600 
    162 H162        2.3464  -14.6023  -40.1789 H         1 UNK         0.0600 
    163 H163        3.8982  -15.3586  -39.8477 H         1 UNK         0.0600 
    164 H164        1.1043  -15.8374  -42.0131 H         1 UNK         0.3000 
    165 H165       -1.1408  -18.4728  -42.9711 H         1 UNK         0.0600 
    166 H166       -2.6633  -16.5459  -42.9945 H         1 UNK         0.0600 
    167 H167       -2.3113  -16.9968  -41.3343 H         1 UNK         0.0600 
    168 H168       -1.5380  -15.5830  -42.0391 H         1 UNK         0.0600 
    169 H169       -0.2945  -15.9638  -44.1484 H         1 UNK         0.3000 
    170 H170        2.2816  -17.3463  -46.1443 H         1 UNK         0.0600 
    171 H171        0.2947  -18.0887  -47.4674 H         1 UNK         0.0600 
    172 H172       -0.5183  -16.5834  -47.0986 H         1 UNK         0.0600 
    173 H173        0.9425  -16.5743  -48.0812 H         1 UNK         0.0600 
    174 H174        0.8956  -14.8230  -46.1478 H         1 UNK         0.3000 
    175 H175        3.0601  -13.2950  -43.6952 H         1 UNK         0.0600 
    176 H176        2.6343  -12.9292  -46.7070 H         1 UNK         0.0600 
    177 H177        3.2820  -11.7217  -45.5993 H         1 UNK         0.0600 
    178 H178        4.1854  -13.1951  -45.9201 H         1 UNK         0.0600 
    179 H179        0.8851  -12.1659  -45.0677 H         1 UNK         0.3000 
    180 H180       -1.6273  -12.8469  -42.5784 H         1 UNK         0.0600 
    181 H181       -0.2419  -10.9106  -41.8810 H         1 UNK         0.0600 
    182 H182       -0.0906  -10.3800  -43.5512 H         1 UNK         0.0600 
    183 H183       -1.6655  -10.3762  -42.7611 H         1 UNK         0.0600 
    184 H184       -1.2872  -11.6963  -45.3017 H         1 UNK         0.3000 
    185 H185       -3.1682  -14.2287  -46.8207 H         1 UNK         0.0600 
    186 H186       -5.1167  -12.9471  -45.9158 H         1 UNK         0.0600 
    187 H187       -4.2959  -11.4312  -46.2688 H         1 UNK         0.0600 
    188 H188       -4.7802  -12.5065  -47.5818 H         1 UNK         0.0600 
    189 H189       -2.3975  -11.7090  -47.8531 H         1 UNK         0.3000 
    190 H190       -1.3927  -22.7171  -44.2177 H         1 UNK         0.3000 
    191 H191       -3.6513  -24.5041  -43.8895 H         1 UNK         0.0600 
    192 H192       -2.1608  -25.6922  -42.3250 H         1 UNK         0.0600 
    193 H193       -2.0976  -23.9653  -42.0100 H         1 UNK         0.0600 
    194 H194       -0.7746  -24.7590  -42.8634 H         1 UNK         0.0600 
    195 H195       -0.5429  -24.5997  -45.6369 H         1 UNK         0.3000 
    196 H196       -0.7754  -27.3038  -46.5834 H         1 UNK         0.0600 
    197 H197        1.1052  -26.6581  -48.0657 H         1 UNK         0.0600 
    198 H198        1.4023  -26.1061  -46.4238 H         1 UNK         0.0600 
    199 H199        0.8847  -24.9621  -47.6605 H         1 UNK         0.0600 
    200 H200       -1.5795  -24.1075  -48.0140 H         1 UNK         0.3000 
    201 H201       -2.5847  -25.1038  -50.4962 H         1 UNK         0.0600 
    202 H202       -1.7831  -22.7658  -50.1473 H         1 UNK         0.0600 
    203 H203       -3.1235  -22.4581  -49.0428 H         1 UNK         0.0600 
    204 H204       -3.4357  -22.7722  -50.7412 H         1 UNK         0.0600 
    205 H205       -4.0238  -24.8570  -47.3473 H         1 UNK         0.3000 
    206 H206       -5.9731  -25.2979  -46.4159 H         1 UNK         0.0600 
    207 H207       -6.0641  -27.4135  -47.7470 H         1 UNK         0.0600 
    208 H208       -7.6627  -26.7469  -47.4512 H         1 UNK         0.0600 
    209 H209       -6.9265  -26.5737  -49.0353 H         1 UNK         0.0600 
    210 H210       -5.5151  -22.8886  -46.9159 H         1 UNK         0.3000 
    211 H211       -6.2482  -20.8294  -47.0346 H         1 UNK         0.0600 
    212 H212       -9.1068  -21.7991  -47.5585 H         1 UNK         0.0600 
    213 H213       -8.6103  -20.2475  -46.8962 H         1 UNK         0.0600 
    214 H214       -8.3806  -21.7063  -45.9559 H         1 UNK         0.0600 
    215 H215       -8.0354  -19.4603  -48.6581 H         1 UNK         0.3000 
    216 H216       -8.0736  -18.3196  -50.5507 H         1 UNK         0.0600 
    217 H217       -9.2973  -20.3188  -51.3894 H         1 UNK         0.0600 
    218 H218       -7.7954  -21.0474  -51.9393 H         1 UNK         0.0600 
    219 H219       -8.3882  -19.5592  -52.6795 H         1 UNK         0.0600 
    220 H220       -6.2900  -19.8382  -52.8581 H         1 UNK         0.3000 
    221 H221       -3.6024  -19.4456  -51.9778 H         1 UNK         0.0600 
    222 H222       -4.6411  -17.4957  -54.1143 H         1 UNK         0.0600 
    223 H223       -4.0343  -17.0551  -52.5168 H         1 UNK         0.0600 
    224 H224       -2.9465  -17.7520  -53.7029 H         1 UNK         0.0600 
    225 H225       -4.6661  -21.6822  -52.4691 H         1 UNK         0.3000 
    226 H226       -5.3814  -22.5967  -54.9553 H         1 UNK         0.0600 
    227 H227       -4.0106  -24.1624  -52.7077 H         1 UNK         0.0600 
    228 H228       -5.7358  -23.8123  -52.8090 H         1 UNK         0.0600 
    229 H229       -4.9779  -24.8591  -53.9995 H         1 UNK         0.0600 
    230 H230       -4.4505  -23.3493  -56.7447 H         1 UNK         0.3000 
    231 H231       -3.0366  -23.7250  -58.3836 H         1 UNK         0.0600 
    232 H232       -2.2965  -25.6517  -56.9498 H         1 UNK         0.0600 
    233 H233       -1.0198  -25.0679  -58.0027 H         1 UNK         0.0600 
    234 H234       -0.9981  -24.6541  -56.2953 H         1 UNK         0.0600 
    235 H235       -2.9817  -21.0816  -56.9328 H         1 UNK         0.3000 
    236 H236       -2.1122  -19.0680  -57.0874 H         1 UNK         0.0600 
    237 H237       -2.2086  -19.4435  -59.5550 H         1 UNK         0.0600 
    238 H238       -0.8814  -18.3830  -59.1117 H         1 UNK         0.0600 
    239 H239       -0.5559  -20.0571  -59.5362 H         1 UNK         0.0600 
    240 H240       -1.0681  -20.5591  -55.1315 H         1 UNK         0.3000 
    241 H241        1.7534  -20.7218  -55.0665 H         1 UNK         0.0600 
    242 H242        1.2390  -16.8669  -54.0111 H         1 UNK         0.3800 
    243 H243       -0.0437  -17.7729  -54.7703 H         1 UNK         0.3800 
    244 H244        0.4036  -22.1729  -53.6830 H         1 UNK         0.0800 
    245 H245        1.4849  -21.2744  -52.6670 H         1 UNK         0.0800 
    246 H246        0.1788  -20.6116  -50.1644 H         1 UNK         0.0800 
    247 H247        0.9300  -19.4187  -51.1972 H         1 UNK         0.0800 
@<TRIPOS>BOND
     1    1    2 1    
     2    1  127 1    
     3    1  128 1    
     4    1  129 1    
     5    2    3 2    
     6    2    4 am   BACKBONE|DICT|INTERRES
     7    4    5 1    
     8    4  130 1    
     9    5    6 1    
    10    5   65 1    
    11    5  131 1    
    12    6    7 1    
    13    6  132 1    
    14    6  133 1    
    15    7    8 1    
    16    8    9 1    
    17    8  134 1    
    18    8  135 1    
    19    9   10 ar   
    20    9   14 ar   
    21   10   11 ar   
    22   10  136 1    
    23   11   12 ar   
    24   11  126 1    
    25   12   13 ar   
    26   12  137 1    
    27   13   14 ar   
    28   13   15 1    
    29   14  138 1    
    30   15   16 1    
    31   15  139 1    
    32   15  140 1    
    33   16   17 1    
    34   17   18 1    
    35   17  141 1    
    36   17  142 1    
    37   18   19 1    
    38   18   67 1    
    39   18  143 1    
    40   19   20 am   BACKBONE|DICT|INTERRES
    41   19  144 1    
    42   20   21 2    
    43   20   22 1    
    44   22   23 1    
    45   22   24 1    
    46   22  145 1    
    47   23  146 1    
    48   23  147 1    
    49   23  148 1    
    50   24   25 am   BACKBONE|DICT|INTERRES
    51   24  149 1    
    52   25   26 2    
    53   25   27 1    
    54   27   28 1    
    55   27   29 1    
    56   27  150 1    
    57   28  151 1    
    58   28  152 1    
    59   28  153 1    
    60   29   30 am   BACKBONE|DICT|INTERRES
    61   29  154 1    
    62   30   31 2    
    63   30   32 1    
    64   32   33 1    
    65   32   34 1    
    66   32  155 1    
    67   33  156 1    
    68   33  157 1    
    69   33  158 1    
    70   34   35 am   BACKBONE|DICT|INTERRES
    71   34  159 1    
    72   35   36 2    
    73   35   37 1    
    74   37   38 1    
    75   37   39 1    
    76   37  160 1    
    77   38  161 1    
    78   38  162 1    
    79   38  163 1    
    80   39   40 am   BACKBONE|DICT|INTERRES
    81   39  164 1    
    82   40   41 2    
    83   40   42 1    
    84   42   43 1    
    85   42   44 1    
    86   42  165 1    
    87   43  166 1    
    88   43  167 1    
    89   43  168 1    
    90   44   45 am   BACKBONE|DICT|INTERRES
    91   44  169 1    
    92   45   46 2    
    93   45   47 1    
    94   47   48 1    
    95   47   49 1    
    96   47  170 1    
    97   48  171 1    
    98   48  172 1    
    99   48  173 1    
   100   49   50 am   BACKBONE|DICT|INTERRES
   101   49  174 1    
   102   50   51 2    
   103   50   52 1    
   104   52   53 1    
   105   52   54 1    
   106   52  175 1    
   107   53  176 1    
   108   53  177 1    
   109   53  178 1    
   110   54   55 am   BACKBONE|DICT|INTERRES
   111   54  179 1    
   112   55   56 2    
   113   55   57 1    
   114   57   58 1    
   115   57   59 1    
   116   57  180 1    
   117   58  181 1    
   118   58  182 1    
   119   58  183 1    
   120   59   60 am   BACKBONE|DICT|INTERRES
   121   59  184 1    
   122   60   61 2    
   123   60   62 1    
   124   62   63 1    
   125   62   64 1    
   126   62  185 1    
   127   63  186 1    
   128   63  187 1    
   129   63  188 1    
   130   64   65 am   BACKBONE|DICT|INTERRES
   131   64  189 1    
   132   65   66 2    
   133   67   68 2    
   134   67   69 am   BACKBONE|DICT|INTERRES
   135   69   70 1    
   136   69  190 1    
   137   70   71 1    
   138   70   72 1    
   139   70  191 1    
   140   71  192 1    
   141   71  193 1    
   142   71  194 1    
   143   72   73 2    
   144   72   74 am   BACKBONE|DICT|INTERRES
   145   74   75 1    
   146   74  195 1    
   147   75   76 1    
   148   75   77 1    
   149   75  196 1    
   150   76  197 1    
   151   76  198 1    
   152   76  199 1    
   153   77   78 2    
   154   77   79 am   BACKBONE|DICT|INTERRES
   155   79   80 1    
   156   79  200 1    
   157   80   81 1    
   158   80   82 1    
   159   80  201 1    
   160   81  202 1    
   161   81  203 1    
   162   81  204 1    
   163   82   83 2    
   164   82   84 am   BACKBONE|DICT|INTERRES
   165   84   85 1    
   166   84  205 1    
   167   85   86 1    
   168   85   87 1    
   169   85  206 1    
   170   86  207 1    
   171   86  208 1    
   172   86  209 1    
   173   87   88 2    
   174   87   89 am   BACKBONE|DICT|INTERRES
   175   89   90 1    
   176   89  210 1    
   177   90   91 1    
   178   90   92 1    
   179   90  211 1    
   180   91  212 1    
   181   91  213 1    
   182   91  214 1    
   183   92   93 2    
   184   92   94 am   BACKBONE|DICT|INTERRES
   185   94   95 1    
   186   94  215 1    
   187   95   96 1    
   188   95   97 1    
   189   95  216 1    
   190   96  217 1    
   191   96  218 1    
   192   96  219 1    
   193   97   98 2    
   194   97   99 am   BACKBONE|DICT|INTERRES
   195   99  100 1    
   196   99  220 1    
   197  100  101 1    
   198  100  102 1    
   199  100  221 1    
   200  101  222 1    
   201  101  223 1    
   202  101  224 1    
   203  102  103 2    
   204  102  104 am   BACKBONE|DICT|INTERRES
   205  104  105 1    
   206  104  225 1    
   207  105  106 1    
   208  105  107 1    
   209  105  226 1    
   210  106  227 1    
   211  106  228 1    
   212  106  229 1    
   213  107  108 2    
   214  107  109 am   BACKBONE|DICT|INTERRES
   215  109  110 1    
   216  109  230 1    
   217  110  111 1    
   218  110  112 1    
   219  110  231 1    
   220  111  232 1    
   221  111  233 1    
   222  111  234 1    
   223  112  113 2    
   224  112  114 am   BACKBONE|DICT|INTERRES
   225  114  115 1    
   226  114  235 1    
   227  115  116 1    
   228  115  117 1    
   229  115  236 1    
   230  116  237 1    
   231  116  238 1    
   232  116  239 1    
   233  117  118 2    
   234  117  119 am   BACKBONE|DICT|INTERRES
   235  119  120 1    
   236  119  240 1    
   237  120  121 1    
   238  120  124 1    
   239  120  241 1    
   240  121  122 am   BACKBONE|DICT|INTERRES
   241  121  123 2    
   242  122  242 1    
   243  122  243 1    
   244  124  125 1    
   245  124  244 1    
   246  124  245 1    
   247  125  126 1    
   248  126  246 1    
   249  126  247 1    
@<TRIPOS>SUBSTRUCTURE
     1 UNK         1 GROUP             0       ****    0 ROOT    
