@<TRIPOS>MOLECULE
3R540
247   249    1
SMALL
USER_CHARGES


@<TRIPOS>ATOM
      1 CA         -0.5235  -13.4643  -42.3247 C.3       0 UNK        -0.1800 
      2 C          -0.3684  -13.6519  -43.8271 C.2       0 UNK         0.5000 
      3 O          -0.2530  -12.6658  -44.5547 O.2       0 UNK        -0.5000 
      4 N          -0.3746  -14.9053  -44.2962 N.am      1 UNK        -0.5000 
      5 CA         -0.2201  -15.2692  -45.7070 C.3       1 UNK         0.1400 
      6 C6         -0.6198  -16.7464  -45.9650 C.3       23 UNK        -0.0398 
      7 S7         -2.3130  -16.8841  -46.6238 S.3       23 UNK        -0.2404 
      8 C8         -1.9579  -17.4998  -48.2951 C.3       23 UNK        -0.0205 
      9 C9         -3.2252  -17.9147  -49.0175 C.ar      23 UNK        -0.0193 
     10 C10        -3.9101  -17.0046  -49.8257 C.ar      23 UNK        -0.1150 
     11 C11        -5.0467  -17.4022  -50.5373 C.ar      23 UNK        -0.0193 
     12 C12        -5.5086  -18.7170  -50.4119 C.ar      23 UNK        -0.1150 
     13 C13        -4.8385  -19.6323  -49.5943 C.ar      23 UNK        -0.0193 
     14 C14        -3.6949  -19.2247  -48.9029 C.ar      23 UNK        -0.1150 
     15 C15        -5.3404  -21.0611  -49.4587 C.3       23 UNK        -0.0205 
     16 S16        -6.1204  -21.3248  -47.8356 S.3       23 UNK        -0.2404 
     17 C17        -5.2080  -22.7782  -47.2125 C.3       23 UNK        -0.0398 
     18 CA         -3.7909  -22.4414  -46.6856 C.3       11 UNK         0.1400 
     19 N          -3.7922  -21.3378  -45.7201 N.am      11 UNK        -0.5000 
     20 C          -2.7145  -20.7799  -45.1526 C.2       10 UNK         0.5000 
     21 O          -1.5647  -21.1886  -45.3222 O.2       10 UNK        -0.5000 
     22 CA         -2.9489  -19.5685  -44.2332 C.3       10 UNK         0.1400 
     23 CB         -4.3828  -18.9960  -44.2883 C.3       10 UNK        -0.1800 
     24 N          -2.5579  -19.8246  -42.8496 N.am      10 UNK        -0.5000 
     25 C          -3.0148  -20.7862  -42.0341 C.2       9 UNK         0.5000 
     26 O          -3.7682  -21.6923  -42.3938 O.2       9 UNK        -0.5000 
     27 CA         -2.5657  -20.7171  -40.5580 C.3       9 UNK         0.1400 
     28 CB         -1.5944  -21.8596  -40.2274 C.3       9 UNK        -0.1800 
     29 N          -1.9352  -19.4437  -40.1923 N.am      9 UNK        -0.5000 
     30 C          -2.5682  -18.2663  -40.0748 C.2       8 UNK         0.5000 
     31 O          -3.7851  -18.1322  -40.2033 O.2       8 UNK        -0.5000 
     32 CA         -1.6972  -17.0275  -39.7822 C.3       8 UNK         0.1400 
     33 CB         -1.8516  -16.5940  -38.3164 C.3       8 UNK        -0.1800 
     34 N          -0.2744  -17.2396  -40.0651 N.am      8 UNK        -0.5000 
     35 C           0.2697  -17.2576  -41.2880 C.2       7 UNK         0.5000 
     36 O          -0.3694  -17.0915  -42.3306 O.2       7 UNK        -0.5000 
     37 CA          1.7775  -17.5575  -41.3536 C.3       7 UNK         0.1400 
     38 CB          2.0076  -18.9728  -41.8990 C.3       7 UNK        -0.1800 
     39 N           2.5049  -16.5851  -42.1723 N.am      7 UNK        -0.5000 
     40 C           2.6833  -15.3021  -41.8201 C.2       6 UNK         0.5000 
     41 O           2.2166  -14.8260  -40.7838 O.2       6 UNK        -0.5000 
     42 CA          3.5464  -14.4095  -42.7353 C.3       6 UNK         0.1400 
     43 CB          4.2770  -13.3029  -41.9427 C.3       6 UNK        -0.1800 
     44 N           4.5015  -15.2040  -43.5060 N.am      6 UNK        -0.5000 
     45 C           5.1653  -14.7951  -44.5920 C.2       5 UNK         0.5000 
     46 O           5.1013  -13.6532  -45.0487 O.2       5 UNK        -0.5000 
     47 CA          6.0415  -15.8430  -45.3034 C.3       5 UNK         0.1400 
     48 CB          7.1624  -16.3829  -44.3922 C.3       5 UNK        -0.1800 
     49 N           5.2598  -16.9248  -45.9117 N.am      5 UNK        -0.5000 
     50 C           4.5155  -17.8661  -45.3110 C.2       4 UNK         0.5000 
     51 O           4.4220  -17.9898  -44.0882 O.2       4 UNK        -0.5000 
     52 CA          3.7102  -18.7886  -46.2458 C.3       4 UNK         0.1400 
     53 CB          2.5371  -19.4800  -45.5360 C.3       4 UNK        -0.1800 
     54 N           3.1796  -18.0082  -47.3574 N.am      4 UNK        -0.5000 
     55 C           3.3380  -18.2757  -48.6591 C.2       3 UNK         0.5000 
     56 O           3.9255  -19.2694  -49.0862 O.2       3 UNK        -0.5000 
     57 CA          2.7455  -17.2589  -49.6591 C.3       3 UNK         0.1400 
     58 CB          1.4890  -17.8416  -50.3271 C.3       3 UNK        -0.1800 
     59 N           2.4026  -15.9675  -49.0532 N.am      3 UNK        -0.5000 
     60 C           3.2795  -15.0813  -48.5565 C.2       2 UNK         0.5000 
     61 O           4.5010  -15.2259  -48.6096 O.2       2 UNK        -0.5000 
     62 CA          2.6837  -13.8621  -47.8241 C.3       2 UNK         0.1400 
     63 CB          2.5090  -12.6840  -48.7935 C.3       2 UNK        -0.1800 
     64 N           1.3990  -14.1481  -47.1747 N.am      2 UNK        -0.5000 
     65 C           1.2246  -15.0220  -46.1733 C.2       1 UNK         0.5000 
     66 O           2.1352  -15.6784  -45.6687 O.2       1 UNK        -0.5000 
     67 C          -3.0971  -23.7162  -46.1687 C.2       11 UNK         0.5000 
     68 O          -2.5115  -24.4387  -46.9739 O.2       11 UNK        -0.5000 
     69 N          -3.1401  -23.9538  -44.8500 N.am      12 UNK        -0.5000 
     70 CA         -2.4682  -25.0785  -44.1988 C.3       12 UNK         0.1400 
     71 CB         -2.9996  -25.2251  -42.7656 C.3       12 UNK        -0.1800 
     72 C          -0.9336  -24.9417  -44.1982 C.2       12 UNK         0.5000 
     73 O          -0.2386  -25.9509  -44.3170 O.2       12 UNK        -0.5000 
     74 N          -0.4335  -23.7037  -44.0847 N.am      13 UNK        -0.5000 
     75 CA          0.9948  -23.3871  -44.1213 C.3       13 UNK         0.1400 
     76 CB          1.2575  -22.1271  -43.2870 C.3       13 UNK        -0.1800 
     77 C           1.4985  -23.2068  -45.5629 C.2       13 UNK         0.5000 
     78 O           2.6155  -23.6203  -45.8728 O.2       13 UNK        -0.5000 
     79 N           0.6540  -22.6237  -46.4254 N.am      14 UNK        -0.5000 
     80 CA          0.9126  -22.4233  -47.8538 C.3       14 UNK         0.1400 
     81 CB         -0.0123  -21.3079  -48.3720 C.3       14 UNK        -0.1800 
     82 C           0.7480  -23.7063  -48.6971 C.2       14 UNK         0.5000 
     83 O           0.9900  -23.6620  -49.9029 O.2       14 UNK        -0.5000 
     84 N           0.3044  -24.8090  -48.0719 N.am      15 UNK        -0.5000 
     85 CA          0.0489  -26.1326  -48.6575 C.3       15 UNK         0.1400 
     86 CB          1.3763  -26.8039  -49.0652 C.3       15 UNK        -0.1800 
     87 C          -0.9823  -26.0950  -49.8070 C.2       15 UNK         0.5000 
     88 O          -0.8623  -26.8440  -50.7779 O.2       15 UNK        -0.5000 
     89 N          -1.9593  -25.1861  -49.6756 N.am      16 UNK        -0.5000 
     90 CA         -3.0170  -24.8428  -50.6296 C.3       16 UNK         0.1400 
     91 CB         -4.0198  -26.0061  -50.7643 C.3       16 UNK        -0.1800 
     92 C          -2.5143  -24.3365  -52.0018 C.2       16 UNK         0.5000 
     93 O          -3.2945  -24.3146  -52.9530 O.2       16 UNK        -0.5000 
     94 N          -1.2462  -23.9060  -52.0992 N.am      17 UNK        -0.5000 
     95 CA         -0.6239  -23.4610  -53.3522 C.3       17 UNK         0.1400 
     96 CB          0.8877  -23.2949  -53.1382 C.3       17 UNK        -0.1800 
     97 C          -1.2301  -22.1624  -53.9188 C.2       17 UNK         0.5000 
     98 O          -1.2345  -21.9726  -55.1354 O.2       17 UNK        -0.5000 
     99 N          -1.7362  -21.3032  -53.0262 N.am      18 UNK        -0.5000 
    100 CA        -2.3693  -20.0268  -53.3551 C.3       18 UNK         0.1400 
    101 CB        -1.9703  -19.0011  -52.2834 C.3       18 UNK        -0.1800 
    102 C         -3.9033  -20.1261  -53.4893 C.2       18 UNK         0.5000 
    103 O         -4.5406  -19.1147  -53.7878 O.2       18 UNK        -0.5000 
    104 N         -4.4862  -21.3171  -53.2732 N.am      19 UNK        -0.5000 
    105 CA        -5.9294  -21.5589  -53.3446 C.3       19 UNK         0.1400 
    106 CB        -6.2412  -23.0052  -52.9317 C.3       19 UNK        -0.1800 
    107 C         -6.4947  -21.2409  -54.7414 C.2       19 UNK         0.5000 
    108 O         -6.0828  -21.8604  -55.7237 O.2       19 UNK        -0.5000 
    109 N         -7.3890  -20.2435  -54.7890 N.am      20 UNK        -0.5000 
    110 CA        -8.0176  -19.6457  -55.9742 C.3       20 UNK         0.1400 
    111 CB        -8.8315  -20.6917  -56.7644 C.3       20 UNK        -0.1800 
    112 C         -7.0577  -18.8463  -56.8857 C.2       20 UNK         0.5000 
    113 O         -7.4979  -18.3525  -57.9251 O.2       20 UNK        -0.5000 
    114 N         -5.7868  -18.6872  -56.4876 N.am      21 UNK        -0.5000 
    115 CA        -4.7869  -17.9019  -57.2170 C.3       21 UNK         0.1400 
    116 CB        -3.3850  -18.4452  -56.9004 C.3       21 UNK        -0.1800 
    117 C         -4.8669  -16.4020  -56.8771 C.2       21 UNK         0.5000 
    118 O         -4.3882  -15.5782  -57.6574 O.2       21 UNK        -0.5000 
    119 N         -5.4621  -16.0767  -55.7223 N.am      22 UNK        -0.5000 
    120 CA        -5.6146  -14.7117  -55.1917 C.3       22 UNK         0.1400 
    121 C         -6.6462  -13.8210  -55.9478 C.2       22 UNK         0.5000 
    122 N         -7.4518  -14.3537  -56.8590 N.am      22 UNK        -0.7600 
    123 O         -6.7139  -12.6192  -55.7046 O.2       22 UNK        -0.5000 
    124 C124       -5.9144  -14.7168  -53.6695 C.3       23 UNK        -0.0398 
    125 S125       -4.7048  -15.6861  -52.7032 S.3       23 UNK        -0.2404 
    126 C126       -5.7853  -16.4110  -51.4272 C.3       23 UNK        -0.0205 
    127 H127        0.3506  -12.9560  -41.9177 H         1 UNK         0.0600 
    128 H128       -0.6365  -14.4144  -41.8040 H         1 UNK         0.0600 
    129 H129       -1.4022  -12.8559  -42.1115 H         1 UNK         0.0600 
    130 H130       -0.4385  -15.6823  -43.6431 H         1 UNK         0.3000 
    131 H131       -0.8711  -14.6151  -46.2917 H         1 UNK         0.0600 
    132 H132       -0.5430  -17.3353  -45.0506 H         1 UNK         0.0800 
    133 H133        0.0565  -17.2434  -46.6636 H         1 UNK         0.0800 
    134 H134       -1.2860  -18.3566  -48.2326 H         1 UNK         0.0800 
    135 H135       -1.4332  -16.7310  -48.8643 H         1 UNK         0.0800 
    136 H136       -3.5491  -15.9898  -49.9167 H         1 UNK         0.1150 
    137 H137       -6.3914  -19.0280  -50.9515 H         1 UNK         0.1150 
    138 H138       -3.1663  -19.9251  -48.2744 H         1 UNK         0.1150 
    139 H139       -6.0708  -21.2898  -50.2349 H         1 UNK         0.0800 
    140 H140       -4.5085  -21.7487  -49.6111 H         1 UNK         0.0800 
    141 H141       -5.1596  -23.5263  -48.0062 H         1 UNK         0.0800 
    142 H142       -5.8096  -23.2224  -46.4173 H         1 UNK         0.0800 
    143 H143       -3.1983  -22.1050  -47.5360 H         1 UNK         0.0600 
    144 H144       -4.6974  -20.9395  -45.5156 H         1 UNK         0.3000 
    145 H145       -2.2685  -18.7972  -44.5824 H         1 UNK         0.0600 
    146 H146       -4.4558  -18.0838  -43.6958 H         1 UNK         0.0600 
    147 H147       -4.6651  -18.7343  -45.3094 H         1 UNK         0.0600 
    148 H148       -5.1234  -19.6974  -43.9026 H         1 UNK         0.0600 
    149 H149       -1.9134  -19.1525  -42.4574 H         1 UNK         0.3000 
    150 H150       -3.4605  -20.8430  -39.9450 H         1 UNK         0.0600 
    151 H151       -2.0298  -22.8301  -40.4663 H         1 UNK         0.0600 
    152 H152       -1.3470  -21.8711  -39.1658 H         1 UNK         0.0600 
    153 H153       -0.6647  -21.7672  -40.7863 H         1 UNK         0.0600 
    154 H154       -0.9367  -19.4600  -40.0496 H         1 UNK         0.3000 
    155 H155       -2.0599  -16.2165  -40.4175 H         1 UNK         0.0600 
    156 H156       -1.4985  -17.3637  -37.6290 H         1 UNK         0.0600 
    157 H157       -2.8964  -16.3929  -38.0756 H         1 UNK         0.0600 
    158 H158       -1.2922  -15.6801  -38.1148 H         1 UNK         0.0600 
    159 H159        0.3235  -17.3721  -39.2617 H         1 UNK         0.3000 
    160 H160        2.1939  -17.5169  -40.3448 H         1 UNK         0.0600 
    161 H161        1.5549  -19.0957  -42.8812 H         1 UNK         0.0600 
    162 H162        1.5651  -19.7219  -41.2416 H         1 UNK         0.0600 
    163 H163        3.0699  -19.2020  -41.9836 H         1 UNK         0.0600 
    164 H164        2.8827  -16.9257  -43.0480 H         1 UNK         0.3000 
    165 H165        2.8576  -13.9353  -43.4372 H         1 UNK         0.0600 
    166 H166        4.8349  -12.6349  -42.5981 H         1 UNK         0.0600 
    167 H167        3.5722  -12.6809  -41.3898 H         1 UNK         0.0600 
    168 H168        4.9781  -13.7272  -41.2233 H         1 UNK         0.0600 
    169 H169        4.5868  -16.1828  -43.2519 H         1 UNK         0.3000 
    170 H170        6.5251  -15.3296  -46.1362 H         1 UNK         0.0600 
    171 H171        7.7764  -15.5665  -44.0105 H         1 UNK         0.0600 
    172 H172        6.7748  -16.9261  -43.5304 H         1 UNK         0.0600 
    173 H173        7.8218  -17.0558  -44.9402 H         1 UNK         0.0600 
    174 H174        5.2087  -16.8810  -46.9209 H         1 UNK         0.3000 
    175 H175        4.4007  -19.5549  -46.6030 H         1 UNK         0.0600 
    176 H176        1.8212  -18.7539  -45.1502 H         1 UNK         0.0600 
    177 H177        2.0044  -20.1418  -46.2160 H         1 UNK         0.0600 
    178 H178        2.8913  -20.0853  -44.7028 H         1 UNK         0.0600 
    179 H179        2.7301  -17.1413  -47.0867 H         1 UNK         0.3000 
    180 H180        3.4971  -17.0820  -50.4311 H         1 UNK         0.0600 
    181 H181        1.0751  -17.1540  -51.0649 H         1 UNK         0.0600 
    182 H182        0.7110  -18.0615  -49.5965 H         1 UNK         0.0600 
    183 H183        1.7184  -18.7728  -50.8469 H         1 UNK         0.0600 
    184 H184        1.4199  -15.7526  -48.9787 H         1 UNK         0.3000 
    185 H185        3.3910  -13.5638  -47.0493 H         1 UNK         0.0600 
    186 H186        2.1635  -11.7916  -48.2712 H         1 UNK         0.0600 
    187 H187        3.4549  -12.4311  -49.2744 H         1 UNK         0.0600 
    188 H188        1.7905  -12.9125  -49.5817 H         1 UNK         0.0600 
    189 H189        0.6006  -13.6349  -47.5205 H         1 UNK         0.3000 
    190 H190       -3.6146  -23.2929  -44.2478 H         1 UNK         0.3000 
    191 H191       -2.7187  -25.9890  -44.7476 H         1 UNK         0.0600 
    192 H192       -2.5307  -26.0693  -42.2585 H         1 UNK         0.0600 
    193 H193       -4.0756  -25.3992  -42.7599 H         1 UNK         0.0600 
    194 H194       -2.8020  -24.3333  -42.1712 H         1 UNK         0.0600 
    195 H195       -1.0709  -22.9181  -44.0681 H         1 UNK         0.3000 
    196 H196        1.5599  -24.2065  -43.6714 H         1 UNK         0.0600 
    197 H197        0.6886  -21.2718  -43.6534 H         1 UNK         0.0600 
    198 H198        0.9934  -22.2901  -42.2439 H         1 UNK         0.0600 
    199 H199        2.3146  -21.8614  -43.3065 H         1 UNK         0.0600 
    200 H200       -0.2208  -22.2487  -46.0668 H         1 UNK         0.3000 
    201 H201        1.9449  -22.0883  -47.9750 H         1 UNK         0.0600 
    202 H202        0.1077  -20.3935  -47.7910 H         1 UNK         0.0600 
    203 H203       -1.0602  -21.6007  -48.3221 H         1 UNK         0.0600 
    204 H204        0.2114  -21.0619  -49.4109 H         1 UNK         0.0600 
    205 H205        0.0735  -24.7179  -47.0929 H         1 UNK         0.3000 
    206 H206       -0.4002  -26.7349  -47.8665 H         1 UNK         0.0600 
    207 H207        2.0789  -26.8241  -48.2321 H         1 UNK         0.0600 
    208 H208        1.2143  -27.8363  -49.3768 H         1 UNK         0.0600 
    209 H209        1.8546  -26.2823  -49.8949 H         1 UNK         0.0600 
    210 H210       -1.9959  -24.6940  -48.7866 H         1 UNK         0.3000 
    211 H211       -3.5526  -24.0032  -50.1859 H         1 UNK         0.0600 
    212 H212       -4.8895  -25.7116  -51.3528 H         1 UNK         0.0600 
    213 H213       -4.3852  -26.3253  -49.7882 H         1 UNK         0.0600 
    214 H214       -3.5713  -26.8706  -51.2543 H         1 UNK         0.0600 
    215 H215       -0.6417  -23.9518  -51.2864 H         1 UNK         0.3000 
    216 H216       -0.7760  -24.2458  -54.0962 H         1 UNK         0.0600 
    217 H217        1.1067  -22.5138  -52.4091 H         1 UNK         0.0600 
    218 H218        1.3873  -23.0243  -54.0692 H         1 UNK         0.0600 
    219 H219        1.3405  -24.2210  -52.7830 H         1 UNK         0.0600 
    220 H220       -1.6852  -21.5469  -52.0484 H         1 UNK         0.3000 
    221 H221       -1.9908  -19.6663  -54.3131 H         1 UNK         0.0600 
    222 H222       -0.8936  -18.8320  -52.2817 H         1 UNK         0.0600 
    223 H223       -2.2552  -19.3378  -51.2884 H         1 UNK         0.0600 
    224 H224       -2.4495  -18.0362  -52.4554 H         1 UNK         0.0600 
    225 H225       -3.9009  -22.1281  -53.1240 H         1 UNK         0.3000 
    226 H226       -6.4035  -20.8983  -52.6167 H         1 UNK         0.0600 
    227 H227       -5.8143  -23.7241  -53.6318 H         1 UNK         0.0600 
    228 H228       -5.8501  -23.2296  -51.9394 H         1 UNK         0.0600 
    229 H229       -7.3177  -23.1776  -52.9041 H         1 UNK         0.0600 
    230 H230       -7.6251  -19.7888  -53.9180 H         1 UNK         0.3000 
    231 H231       -8.7270  -18.9129  -55.5873 H         1 UNK         0.0600 
    232 H232       -8.1886  -21.4182  -57.2616 H         1 UNK         0.0600 
    233 H233       -9.4360  -20.2144  -57.5365 H         1 UNK         0.0600 
    234 H234       -9.5139  -21.2366  -56.1121 H         1 UNK         0.0600 
    235 H235       -5.4929  -19.0779  -55.5985 H         1 UNK         0.3000 
    236 H236       -4.9564  -18.0143  -58.2900 H         1 UNK         0.0600 
    237 H237       -3.0943  -18.2273  -55.8730 H         1 UNK         0.0600 
    238 H238       -3.3306  -19.5241  -57.0476 H         1 UNK         0.0600 
    239 H239       -2.6379  -17.9885  -57.5504 H         1 UNK         0.0600 
    240 H240       -5.7868  -16.8240  -55.1267 H         1 UNK         0.3000 
    241 H241       -4.6512  -14.2159  -55.3252 H         1 UNK         0.0600 
    242 H242       -8.1114  -13.7652  -57.3436 H         1 UNK         0.3800 
    243 H243       -7.3981  -15.3354  -57.0804 H         1 UNK         0.3800 
    244 H244       -6.9172  -15.1086  -53.4914 H         1 UNK         0.0800 
    245 H245       -5.9115  -13.6988  -53.2758 H         1 UNK         0.0800 
    246 H246       -6.1980  -15.6140  -50.8076 H         1 UNK         0.0800 
    247 H247       -6.6297  -16.8997  -51.9153 H         1 UNK         0.0800 
@<TRIPOS>BOND
     1    1    2 1    
     2    1  127 1    
     3    1  128 1    
     4    1  129 1    
     5    2    3 2    
     6    2    4 am   BACKBONE|DICT|INTERRES
     7    4    5 1    
     8    4  130 1    
     9    5    6 1    
    10    5   65 1    
    11    5  131 1    
    12    6    7 1    
    13    6  132 1    
    14    6  133 1    
    15    7    8 1    
    16    8    9 1    
    17    8  134 1    
    18    8  135 1    
    19    9   10 ar   
    20    9   14 ar   
    21   10   11 ar   
    22   10  136 1    
    23   11   12 ar   
    24   11  126 1    
    25   12   13 ar   
    26   12  137 1    
    27   13   14 ar   
    28   13   15 1    
    29   14  138 1    
    30   15   16 1    
    31   15  139 1    
    32   15  140 1    
    33   16   17 1    
    34   17   18 1    
    35   17  141 1    
    36   17  142 1    
    37   18   19 1    
    38   18   67 1    
    39   18  143 1    
    40   19   20 am   BACKBONE|DICT|INTERRES
    41   19  144 1    
    42   20   21 2    
    43   20   22 1    
    44   22   23 1    
    45   22   24 1    
    46   22  145 1    
    47   23  146 1    
    48   23  147 1    
    49   23  148 1    
    50   24   25 am   BACKBONE|DICT|INTERRES
    51   24  149 1    
    52   25   26 2    
    53   25   27 1    
    54   27   28 1    
    55   27   29 1    
    56   27  150 1    
    57   28  151 1    
    58   28  152 1    
    59   28  153 1    
    60   29   30 am   BACKBONE|DICT|INTERRES
    61   29  154 1    
    62   30   31 2    
    63   30   32 1    
    64   32   33 1    
    65   32   34 1    
    66   32  155 1    
    67   33  156 1    
    68   33  157 1    
    69   33  158 1    
    70   34   35 am   BACKBONE|DICT|INTERRES
    71   34  159 1    
    72   35   36 2    
    73   35   37 1    
    74   37   38 1    
    75   37   39 1    
    76   37  160 1    
    77   38  161 1    
    78   38  162 1    
    79   38  163 1    
    80   39   40 am   BACKBONE|DICT|INTERRES
    81   39  164 1    
    82   40   41 2    
    83   40   42 1    
    84   42   43 1    
    85   42   44 1    
    86   42  165 1    
    87   43  166 1    
    88   43  167 1    
    89   43  168 1    
    90   44   45 am   BACKBONE|DICT|INTERRES
    91   44  169 1    
    92   45   46 2    
    93   45   47 1    
    94   47   48 1    
    95   47   49 1    
    96   47  170 1    
    97   48  171 1    
    98   48  172 1    
    99   48  173 1    
   100   49   50 am   BACKBONE|DICT|INTERRES
   101   49  174 1    
   102   50   51 2    
   103   50   52 1    
   104   52   53 1    
   105   52   54 1    
   106   52  175 1    
   107   53  176 1    
   108   53  177 1    
   109   53  178 1    
   110   54   55 am   BACKBONE|DICT|INTERRES
   111   54  179 1    
   112   55   56 2    
   113   55   57 1    
   114   57   58 1    
   115   57   59 1    
   116   57  180 1    
   117   58  181 1    
   118   58  182 1    
   119   58  183 1    
   120   59   60 am   BACKBONE|DICT|INTERRES
   121   59  184 1    
   122   60   61 2    
   123   60   62 1    
   124   62   63 1    
   125   62   64 1    
   126   62  185 1    
   127   63  186 1    
   128   63  187 1    
   129   63  188 1    
   130   64   65 am   BACKBONE|DICT|INTERRES
   131   64  189 1    
   132   65   66 2    
   133   67   68 2    
   134   67   69 am   BACKBONE|DICT|INTERRES
   135   69   70 1    
   136   69  190 1    
   137   70   71 1    
   138   70   72 1    
   139   70  191 1    
   140   71  192 1    
   141   71  193 1    
   142   71  194 1    
   143   72   73 2    
   144   72   74 am   BACKBONE|DICT|INTERRES
   145   74   75 1    
   146   74  195 1    
   147   75   76 1    
   148   75   77 1    
   149   75  196 1    
   150   76  197 1    
   151   76  198 1    
   152   76  199 1    
   153   77   78 2    
   154   77   79 am   BACKBONE|DICT|INTERRES
   155   79   80 1    
   156   79  200 1    
   157   80   81 1    
   158   80   82 1    
   159   80  201 1    
   160   81  202 1    
   161   81  203 1    
   162   81  204 1    
   163   82   83 2    
   164   82   84 am   BACKBONE|DICT|INTERRES
   165   84   85 1    
   166   84  205 1    
   167   85   86 1    
   168   85   87 1    
   169   85  206 1    
   170   86  207 1    
   171   86  208 1    
   172   86  209 1    
   173   87   88 2    
   174   87   89 am   BACKBONE|DICT|INTERRES
   175   89   90 1    
   176   89  210 1    
   177   90   91 1    
   178   90   92 1    
   179   90  211 1    
   180   91  212 1    
   181   91  213 1    
   182   91  214 1    
   183   92   93 2    
   184   92   94 am   BACKBONE|DICT|INTERRES
   185   94   95 1    
   186   94  215 1    
   187   95   96 1    
   188   95   97 1    
   189   95  216 1    
   190   96  217 1    
   191   96  218 1    
   192   96  219 1    
   193   97   98 2    
   194   97   99 am   BACKBONE|DICT|INTERRES
   195   99  100 1    
   196   99  220 1    
   197  100  101 1    
   198  100  102 1    
   199  100  221 1    
   200  101  222 1    
   201  101  223 1    
   202  101  224 1    
   203  102  103 2    
   204  102  104 am   BACKBONE|DICT|INTERRES
   205  104  105 1    
   206  104  225 1    
   207  105  106 1    
   208  105  107 1    
   209  105  226 1    
   210  106  227 1    
   211  106  228 1    
   212  106  229 1    
   213  107  108 2    
   214  107  109 am   BACKBONE|DICT|INTERRES
   215  109  110 1    
   216  109  230 1    
   217  110  111 1    
   218  110  112 1    
   219  110  231 1    
   220  111  232 1    
   221  111  233 1    
   222  111  234 1    
   223  112  113 2    
   224  112  114 am   BACKBONE|DICT|INTERRES
   225  114  115 1    
   226  114  235 1    
   227  115  116 1    
   228  115  117 1    
   229  115  236 1    
   230  116  237 1    
   231  116  238 1    
   232  116  239 1    
   233  117  118 2    
   234  117  119 am   BACKBONE|DICT|INTERRES
   235  119  120 1    
   236  119  240 1    
   237  120  121 1    
   238  120  124 1    
   239  120  241 1    
   240  121  122 am   BACKBONE|DICT|INTERRES
   241  121  123 2    
   242  122  242 1    
   243  122  243 1    
   244  124  125 1    
   245  124  244 1    
   246  124  245 1    
   247  125  126 1    
   248  126  246 1    
   249  126  247 1    
@<TRIPOS>SUBSTRUCTURE
     1 UNK         1 GROUP             0       ****    0 ROOT    
