@<TRIPOS>MOLECULE
3R540
247   249    1
SMALL
USER_CHARGES


@<TRIPOS>ATOM
      1 CA          5.8334  -15.2526  -47.5852 C.3       0 UNK        -0.1800 
      2 C           4.3362  -15.2694  -47.3141 C.2       0 UNK         0.5000 
      3 O           3.7934  -16.3081  -46.9424 O.2       0 UNK        -0.5000 
      4 N           3.6702  -14.1252  -47.5009 N.am      1 UNK        -0.5000 
      5 CA          2.2235  -13.9674  -47.3215 C.3       1 UNK         0.1400 
      6 C6          1.4068  -14.3728  -48.5762 C.3       23 UNK        -0.0398 
      7 S7          1.8596  -13.4612  -50.0970 S.3       23 UNK        -0.2404 
      8 C8          2.7897  -14.7153  -51.0385 C.3       23 UNK        -0.0205 
      9 C9          1.9217  -15.9024  -51.4316 C.ar      23 UNK        -0.0193 
     10 C10         0.9181  -15.7558  -52.3933 C.ar      23 UNK        -0.1150 
     11 C11         0.1020  -16.8372  -52.7383 C.ar      23 UNK        -0.0193 
     12 C12         0.2956  -18.0728  -52.1133 C.ar      23 UNK        -0.1150 
     13 C13         1.2946  -18.2317  -51.1480 C.ar      23 UNK        -0.0193 
     14 C14         2.1150  -17.1465  -50.8251 C.ar      23 UNK        -0.1150 
     15 C15         1.4752  -19.5712  -50.4447 C.3       23 UNK        -0.0205 
     16 S16         1.3808  -19.4288  -48.6287 S.3       23 UNK        -0.2404 
     17 C17        -0.3183  -18.8136  -48.3780 C.3       23 UNK        -0.0398 
     18 CA         -1.2906  -19.9241  -47.9206 C.3       11 UNK         0.1400 
     19 N          -0.8796  -20.5469  -46.6622 N.am      11 UNK        -0.5000 
     20 C          -1.2355  -21.7646  -46.2390 C.2       10 UNK         0.5000 
     21 O          -1.8881  -22.5579  -46.9218 O.2       10 UNK        -0.5000 
     22 CA         -0.8264  -22.1233  -44.7938 C.3       10 UNK         0.1400 
     23 CB         -0.7537  -23.6430  -44.5452 C.3       10 UNK        -0.1800 
     24 N           0.3974  -21.4386  -44.3571 N.am      10 UNK        -0.5000 
     25 C           1.6487  -21.6326  -44.8025 C.2       9 UNK         0.5000 
     26 O           1.9645  -22.5072  -45.6073 O.2       9 UNK        -0.5000 
     27 CA          2.7425  -20.6823  -44.2757 C.3       9 UNK         0.1400 
     28 CB          3.1548  -19.6915  -45.3753 C.3       9 UNK        -0.1800 
     29 N           2.3444  -19.9282  -43.0853 N.am      9 UNK        -0.5000 
     30 C           2.2789  -20.4356  -41.8467 C.2       8 UNK         0.5000 
     31 O           2.5791  -21.5966  -41.5664 O.2       8 UNK        -0.5000 
     32 CA          1.7638  -19.4954  -40.7395 C.3       8 UNK         0.1400 
     33 CB          2.8898  -18.5813  -40.2340 C.3       8 UNK        -0.1800 
     34 N           0.6264  -18.6766  -41.1650 N.am      8 UNK        -0.5000 
     35 C          -0.5738  -19.1601  -41.5179 C.2       7 UNK         0.5000 
     36 O          -0.8612  -20.3567  -41.5170 O.2       7 UNK        -0.5000 
     37 CA         -1.6124  -18.1379  -42.0056 C.3       7 UNK         0.1400 
     38 CB         -2.2951  -17.4250  -40.8288 C.3       7 UNK        -0.1800 
     39 N          -1.0096  -17.1529  -42.9007 N.am      7 UNK        -0.5000 
     40 C          -0.6394  -17.4132  -44.1612 C.2       6 UNK         0.5000 
     41 O          -0.8497  -18.4856  -44.7277 O.2       6 UNK        -0.5000 
     42 CA          0.0928  -16.2936  -44.9172 C.3       6 UNK         0.1400 
     43 CB         -0.9284  -15.3905  -45.6253 C.3       6 UNK        -0.1800 
     44 N           0.9470  -15.4943  -44.0361 N.am      6 UNK        -0.5000 
     45 C           2.0677  -15.9640  -43.4623 C.2       5 UNK         0.5000 
     46 O           2.4889  -17.1056  -43.6333 O.2       5 UNK        -0.5000 
     47 CA          2.8137  -15.0375  -42.4835 C.3       5 UNK         0.1400 
     48 CB          3.8903  -14.2307  -43.2206 C.3       5 UNK        -0.1800 
     49 N           1.9192  -14.1344  -41.7589 N.am      5 UNK        -0.5000 
     50 C           0.9575  -14.5508  -40.9203 C.2       4 UNK         0.5000 
     51 O           0.7836  -15.7350  -40.6277 O.2       4 UNK        -0.5000 
     52 CA         -0.0086  -13.4903  -40.3563 C.3       4 UNK         0.1400 
     53 CB          0.4047  -13.0948  -38.9313 C.3       4 UNK        -0.1800 
     54 N          -0.1265  -12.2790  -41.1731 N.am      4 UNK        -0.5000 
     55 C          -0.5203  -12.2278  -42.4537 C.2       3 UNK         0.5000 
     56 O          -0.8209  -13.2238  -43.1131 O.2       3 UNK        -0.5000 
     57 CA         -0.5411  -10.8430  -43.1337 C.3       3 UNK         0.1400 
     58 CB         -0.4333   -9.6555  -42.1502 C.3       3 UNK        -0.1800 
     59 N           0.4853  -10.7315  -44.1751 N.am      3 UNK        -0.5000 
     60 C           1.8050  -10.9209  -44.0370 C.2       2 UNK         0.5000 
     61 O           2.3452  -11.2747  -42.9862 O.2       2 UNK        -0.5000 
     62 CA          2.6580  -10.7107  -45.3036 C.3       2 UNK         0.1400 
     63 CB          4.0503  -10.1486  -44.9686 C.3       2 UNK        -0.1800 
     64 N           2.8234  -11.9657  -46.0325 N.am      2 UNK        -0.5000 
     65 C           1.8692  -12.5806  -46.7449 C.2       1 UNK         0.5000 
     66 O           0.7513  -12.0982  -46.9312 O.2       1 UNK        -0.5000 
     67 C          -2.7164  -19.3606  -47.7899 C.2       11 UNK         0.5000 
     68 O          -3.5045  -19.4916  -48.7245 O.2       11 UNK        -0.5000 
     69 N          -3.0453  -18.7971  -46.6160 N.am      12 UNK        -0.5000 
     70 CA         -4.3825  -18.2926  -46.2814 C.3       12 UNK         0.1400 
     71 CB         -4.3105  -17.4785  -44.9813 C.3       12 UNK        -0.1800 
     72 C          -5.4270  -19.4191  -46.1555 C.2       12 UNK         0.5000 
     73 O          -6.6036  -19.2005  -46.4427 O.2       12 UNK        -0.5000 
     74 N          -4.9617  -20.6132  -45.7646 N.am      13 UNK        -0.5000 
     75 CA         -5.7341  -21.8562  -45.7378 C.3       13 UNK         0.1400 
     76 CB         -5.0640  -22.8171  -44.7415 C.3       13 UNK        -0.1800 
     77 C          -5.8471  -22.5217  -47.1263 C.2       13 UNK         0.5000 
     78 O          -6.5826  -23.4986  -47.2635 O.2       13 UNK        -0.5000 
     79 N          -5.0861  -22.0146  -48.1097 N.am      14 UNK        -0.5000 
     80 CA         -4.9170  -22.4897  -49.4876 C.3       14 UNK         0.1400 
     81 CB         -6.2539  -22.4885  -50.2550 C.3       14 UNK        -0.1800 
     82 C          -4.1841  -23.8390  -49.6186 C.2       14 UNK         0.5000 
     83 O          -3.9716  -24.2882  -50.7439 O.2       14 UNK        -0.5000 
     84 N          -3.7705  -24.4525  -48.5023 N.am      15 UNK        -0.5000 
     85 CA         -3.0886  -25.7468  -48.4508 C.3       15 UNK         0.1400 
     86 CB         -2.9587  -26.1943  -46.9884 C.3       15 UNK        -0.1800 
     87 C          -1.7139  -25.7210  -49.1390 C.2       15 UNK         0.5000 
     88 O          -1.3779  -26.6562  -49.8663 O.2       15 UNK        -0.5000 
     89 N          -0.9770  -24.6158  -48.9595 N.am      16 UNK        -0.5000 
     90 CA          0.3011  -24.3534  -49.6296 C.3       16 UNK         0.1400 
     91 CB          0.9852  -23.1656  -48.9444 C.3       16 UNK        -0.1800 
     92 C           0.1615  -24.0933  -51.1442 C.2       16 UNK         0.5000 
     93 O           1.1505  -24.1945  -51.8699 O.2       16 UNK        -0.5000 
     94 N          -1.0612  -23.7812  -51.5908 N.am      17 UNK        -0.5000 
     95 CA         -1.4438  -23.5786  -52.9860 C.3       17 UNK         0.1400 
     96 CB         -2.2469  -22.2704  -53.0774 C.3       17 UNK        -0.1800 
     97 C          -2.2430  -24.7815  -53.5322 C.2       17 UNK         0.5000 
     98 O          -2.9435  -24.6362  -54.5342 O.2       17 UNK        -0.5000 
     99 N          -2.1561  -25.9404  -52.8576 N.am      18 UNK        -0.5000 
    100 CA        -2.7882  -27.2211  -53.2022 C.3       18 UNK         0.1400 
    101 CB        -2.1362  -27.8134  -54.4689 C.3       18 UNK        -0.1800 
    102 C         -4.3290  -27.1521  -53.3006 C.2       18 UNK         0.5000 
    103 O         -4.9271  -27.8501  -54.1206 O.2       18 UNK        -0.5000 
    104 N         -4.9348  -26.2906  -52.4707 N.am      19 UNK        -0.5000 
    105 CA        -6.3609  -25.9610  -52.3766 C.3       19 UNK         0.1400 
    106 CB        -7.2155  -27.2105  -52.0796 C.3       19 UNK        -0.1800 
    107 C         -6.9084  -25.1403  -53.5644 C.2       19 UNK         0.5000 
    108 O         -8.1087  -24.8647  -53.5927 O.2       19 UNK        -0.5000 
    109 N         -6.0440  -24.7297  -54.5047 N.am      20 UNK        -0.5000 
    110 CA        -6.4120  -23.8817  -55.6420 C.3       20 UNK         0.1400 
    111 CB        -5.4276  -24.1273  -56.7958 C.3       20 UNK        -0.1800 
    112 C         -6.4487  -22.3858  -55.2739 C.2       20 UNK         0.5000 
    113 O         -7.1192  -21.6153  -55.9630 O.2       20 UNK        -0.5000 
    114 N         -5.7326  -22.0121  -54.2012 N.am      21 UNK        -0.5000 
    115 CA        -5.5214  -20.6496  -53.6977 C.3       21 UNK         0.1400 
    116 CB        -6.8561  -20.0210  -53.2389 C.3       21 UNK        -0.1800 
    117 C         -4.7383  -19.7630  -54.6938 C.2       21 UNK         0.5000 
    118 O         -4.1167  -20.2763  -55.6274 O.2       21 UNK        -0.5000 
    119 N         -4.7473  -18.4461  -54.4584 N.am      22 UNK        -0.5000 
    120 CA        -4.0566  -17.4452  -55.2917 C.3       22 UNK         0.1400 
    121 C         -4.8153  -17.0537  -56.5957 C.2       22 UNK         0.5000 
    122 N         -6.0239  -17.5444  -56.8428 N.am      22 UNK        -0.7600 
    123 O         -4.2921  -16.2944  -57.4069 O.2       22 UNK        -0.5000 
    124 C124       -3.6626  -16.1847  -54.4779 C.3       23 UNK        -0.0398 
    125 S125       -2.6336  -16.5576  -53.0166 S.3       23 UNK        -0.2404 
    126 C126       -0.9882  -16.6717  -53.7847 C.3       23 UNK        -0.0205 
    127 H127        6.0803  -15.9734  -48.3646 H         1 UNK         0.0600 
    128 H128        6.1768  -14.2699  -47.9094 H         1 UNK         0.0600 
    129 H129        6.3804  -15.5239  -46.6822 H         1 UNK         0.0600 
    130 H130        4.1566  -13.3096  -47.8477 H         1 UNK         0.3000 
    131 H131        1.9218  -14.6484  -46.5256 H         1 UNK         0.0600 
    132 H132        0.3384  -14.2343  -48.4053 H         1 UNK         0.0800 
    133 H133        1.5262  -15.4431  -48.7389 H         1 UNK         0.0800 
    134 H134        3.6505  -15.0396  -50.4517 H         1 UNK         0.0800 
    135 H135        3.1920  -14.2528  -51.9407 H         1 UNK         0.0800 
    136 H136        0.7666  -14.7939  -52.8628 H         1 UNK         0.1150 
    137 H137       -0.3436  -18.9054  -52.3723 H         1 UNK         0.1150 
    138 H138        2.8858  -17.2660  -50.0761 H         1 UNK         0.1150 
    139 H139        0.7300  -20.2938  -50.7811 H         1 UNK         0.0800 
    140 H140        2.4481  -19.9830  -50.7151 H         1 UNK         0.0800 
    141 H141       -0.6782  -18.3474  -49.2963 H         1 UNK         0.0800 
    142 H142       -0.2720  -18.0149  -47.6365 H         1 UNK         0.0800 
    143 H143       -1.3182  -20.6903  -48.6978 H         1 UNK         0.0600 
    144 H144       -0.3988  -19.9427  -46.0053 H         1 UNK         0.3000 
    145 H145       -1.6196  -21.7310  -44.1559 H         1 UNK         0.0600 
    146 H146       -0.3870  -23.8626  -43.5425 H         1 UNK         0.0600 
    147 H147       -1.7413  -24.0951  -44.6322 H         1 UNK         0.0600 
    148 H148       -0.1006  -24.1429  -45.2612 H         1 UNK         0.0600 
    149 H149        0.2586  -20.6999  -43.6808 H         1 UNK         0.3000 
    150 H150        3.6128  -21.2923  -44.0256 H         1 UNK         0.0600 
    151 H151        3.4820  -20.2137  -46.2752 H         1 UNK         0.0600 
    152 H152        3.9806  -19.0586  -45.0500 H         1 UNK         0.0600 
    153 H153        2.3276  -19.0389  -45.6582 H         1 UNK         0.0600 
    154 H154        2.1601  -18.9376  -43.2234 H         1 UNK         0.3000 
    155 H155        1.4302  -20.1157  -39.9050 H         1 UNK         0.0600 
    156 H156        3.2821  -17.9496  -41.0307 H         1 UNK         0.0600 
    157 H157        3.7214  -19.1683  -39.8424 H         1 UNK         0.0600 
    158 H158        2.5420  -17.9313  -39.4308 H         1 UNK         0.0600 
    159 H159        0.7607  -17.6704  -41.1572 H         1 UNK         0.3000 
    160 H160       -2.3796  -18.6859  -42.5555 H         1 UNK         0.0600 
    161 H161       -3.0581  -16.7300  -41.1797 H         1 UNK         0.0600 
    162 H162       -1.5842  -16.8639  -40.2223 H         1 UNK         0.0600 
    163 H163       -2.7874  -18.1440  -40.1729 H         1 UNK         0.0600 
    164 H164       -0.7804  -16.2532  -42.5036 H         1 UNK         0.3000 
    165 H165        0.7287  -16.7572  -45.6748 H         1 UNK         0.0600 
    166 H166       -1.4677  -15.9430  -46.3957 H         1 UNK         0.0600 
    167 H167       -1.6692  -14.9961  -44.9290 H         1 UNK         0.0600 
    168 H168       -0.4522  -14.5395  -46.1077 H         1 UNK         0.0600 
    169 H169        0.6027  -14.5747  -43.7810 H         1 UNK         0.3000 
    170 H170        3.3140  -15.6672  -41.7458 H         1 UNK         0.0600 
    171 H171        4.6056  -14.8920  -43.7117 H         1 UNK         0.0600 
    172 H172        3.4534  -13.5961  -43.9879 H         1 UNK         0.0600 
    173 H173        4.4493  -13.5938  -42.5349 H         1 UNK         0.0600 
    174 H174        1.9964  -13.1451  -41.9689 H         1 UNK         0.3000 
    175 H175       -0.9975  -13.9509  -40.3104 H         1 UNK         0.0600 
    176 H176       -0.3243  -12.4211  -38.4807 H         1 UNK         0.0600 
    177 H177        0.4755  -13.9722  -38.2867 H         1 UNK         0.0600 
    178 H178        1.3759  -12.5984  -38.9183 H         1 UNK         0.0600 
    179 H179        0.1398  -11.4131  -40.7273 H         1 UNK         0.3000 
    180 H180       -1.5060  -10.7680  -43.6371 H         1 UNK         0.0600 
    181 H181        0.5289   -9.6265  -41.6376 H         1 UNK         0.0600 
    182 H182       -1.2165   -9.6983  -41.3922 H         1 UNK         0.0600 
    183 H183       -0.5511   -8.7076  -42.6754 H         1 UNK         0.0600 
    184 H184        0.1363  -10.5495  -45.1070 H         1 UNK         0.3000 
    185 H185        2.1525   -9.9887  -45.9487 H         1 UNK         0.0600 
    186 H186        4.6351  -10.8439  -44.3647 H         1 UNK         0.0600 
    187 H187        4.6169   -9.9345  -45.8749 H         1 UNK         0.0600 
    188 H188        3.9690   -9.2161  -44.4087 H         1 UNK         0.0600 
    189 H189        3.7019  -12.4436  -45.8974 H         1 UNK         0.3000 
    190 H190       -2.3351  -18.7321  -45.8922 H         1 UNK         0.3000 
    191 H191       -4.7062  -17.6276  -47.0850 H         1 UNK         0.0600 
    192 H192       -3.6167  -16.6437  -45.0733 H         1 UNK         0.0600 
    193 H193       -3.9909  -18.0928  -44.1402 H         1 UNK         0.0600 
    194 H194       -5.2858  -17.0607  -44.7286 H         1 UNK         0.0600 
    195 H195       -3.9815  -20.6877  -45.5410 H         1 UNK         0.3000 
    196 H196       -6.7461  -21.6427  -45.3873 H         1 UNK         0.0600 
    197 H197       -5.6340  -23.7421  -44.6450 H         1 UNK         0.0600 
    198 H198       -4.9984  -22.3739  -43.7476 H         1 UNK         0.0600 
    199 H199       -4.0554  -23.0865  -45.0568 H         1 UNK         0.0600 
    200 H200       -4.5358  -21.1940  -47.8919 H         1 UNK         0.3000 
    201 H201       -4.2675  -21.7606  -49.9732 H         1 UNK         0.0600 
    202 H202       -6.7436  -21.5170  -50.1895 H         1 UNK         0.0600 
    203 H203       -6.9451  -23.2402  -49.8735 H         1 UNK         0.0600 
    204 H204       -6.0988  -22.7008  -51.3130 H         1 UNK         0.0600 
    205 H205       -3.9213  -23.9843  -47.6212 H         1 UNK         0.3000 
    206 H206       -3.7113  -26.4728  -48.9780 H         1 UNK         0.0600 
    207 H207       -3.9349  -26.2643  -46.5080 H         1 UNK         0.0600 
    208 H208       -2.4905  -27.1771  -46.9206 H         1 UNK         0.0600 
    209 H209       -2.3491  -25.4996  -46.4113 H         1 UNK         0.0600 
    210 H210       -1.3276  -23.8953  -48.3348 H         1 UNK         0.3000 
    211 H211        0.9378  -25.2318  -49.5059 H         1 UNK         0.0600 
    212 H212        0.3851  -22.2608  -49.0224 H         1 UNK         0.0600 
    213 H213        1.9585  -22.9554  -49.3894 H         1 UNK         0.0600 
    214 H214        1.1476  -23.3700  -47.8878 H         1 UNK         0.0600 
    215 H215       -1.8259  -23.7800  -50.9288 H         1 UNK         0.3000 
    216 H216       -0.5567  -23.4760  -53.6136 H         1 UNK         0.0600 
    217 H217       -2.5230  -22.0482  -54.1088 H         1 UNK         0.0600 
    218 H218       -1.6659  -21.4242  -52.7103 H         1 UNK         0.0600 
    219 H219       -3.1630  -22.3269  -52.4907 H         1 UNK         0.0600 
    220 H220       -1.6019  -25.9526  -52.0107 H         1 UNK         0.3000 
    221 H221       -2.5718  -27.8968  -52.3736 H         1 UNK         0.0600 
    222 H222       -2.3572  -27.2157  -55.3539 H         1 UNK         0.0600 
    223 H223       -1.0527  -27.8701  -54.3646 H         1 UNK         0.0600 
    224 H224       -2.4948  -28.8256  -54.6592 H         1 UNK         0.0600 
    225 H225       -4.3440  -25.7207  -51.8687 H         1 UNK         0.3000 
    226 H226       -6.4469  -25.3065  -51.5088 H         1 UNK         0.0600 
    227 H227       -6.8147  -27.7715  -51.2354 H         1 UNK         0.0600 
    228 H228       -7.2692  -27.8821  -52.9366 H         1 UNK         0.0600 
    229 H229       -8.2384  -26.9311  -51.8248 H         1 UNK         0.0600 
    230 H230       -5.0651  -24.9819  -54.4254 H         1 UNK         0.3000 
    231 H231       -7.4084  -24.1637  -55.9887 H         1 UNK         0.0600 
    232 H232       -5.3750  -25.1850  -57.0546 H         1 UNK         0.0600 
    233 H233       -4.4210  -23.7904  -56.5470 H         1 UNK         0.0600 
    234 H234       -5.7376  -23.5872  -57.6912 H         1 UNK         0.0600 
    235 H235       -5.1932  -22.7339  -53.7473 H         1 UNK         0.3000 
    236 H236       -4.8891  -20.7474  -52.8151 H         1 UNK         0.0600 
    237 H237       -6.6893  -19.1258  -52.6394 H         1 UNK         0.0600 
    238 H238       -7.4860  -19.7394  -54.0831 H         1 UNK         0.0600 
    239 H239       -7.4244  -20.7147  -52.6191 H         1 UNK         0.0600 
    240 H240       -5.2629  -18.0864  -53.6688 H         1 UNK         0.3000 
    241 H241       -3.1247  -17.8956  -55.6381 H         1 UNK         0.0600 
    242 H242       -6.4590  -18.1872  -56.2006 H         1 UNK         0.3800 
    243 H243       -6.4998  -17.2862  -57.6932 H         1 UNK         0.3800 
    244 H244       -3.1256  -15.4695  -55.1037 H         1 UNK         0.0800 
    245 H245       -4.5591  -15.6662  -54.1341 H         1 UNK         0.0800 
    246 H246       -0.8029  -15.7798  -54.3854 H         1 UNK         0.0800 
    247 H247       -0.9642  -17.5189  -54.4716 H         1 UNK         0.0800 
@<TRIPOS>BOND
     1    1    2 1    
     2    1  127 1    
     3    1  128 1    
     4    1  129 1    
     5    2    3 2    
     6    2    4 am   BACKBONE|DICT|INTERRES
     7    4    5 1    
     8    4  130 1    
     9    5    6 1    
    10    5   65 1    
    11    5  131 1    
    12    6    7 1    
    13    6  132 1    
    14    6  133 1    
    15    7    8 1    
    16    8    9 1    
    17    8  134 1    
    18    8  135 1    
    19    9   10 ar   
    20    9   14 ar   
    21   10   11 ar   
    22   10  136 1    
    23   11   12 ar   
    24   11  126 1    
    25   12   13 ar   
    26   12  137 1    
    27   13   14 ar   
    28   13   15 1    
    29   14  138 1    
    30   15   16 1    
    31   15  139 1    
    32   15  140 1    
    33   16   17 1    
    34   17   18 1    
    35   17  141 1    
    36   17  142 1    
    37   18   19 1    
    38   18   67 1    
    39   18  143 1    
    40   19   20 am   BACKBONE|DICT|INTERRES
    41   19  144 1    
    42   20   21 2    
    43   20   22 1    
    44   22   23 1    
    45   22   24 1    
    46   22  145 1    
    47   23  146 1    
    48   23  147 1    
    49   23  148 1    
    50   24   25 am   BACKBONE|DICT|INTERRES
    51   24  149 1    
    52   25   26 2    
    53   25   27 1    
    54   27   28 1    
    55   27   29 1    
    56   27  150 1    
    57   28  151 1    
    58   28  152 1    
    59   28  153 1    
    60   29   30 am   BACKBONE|DICT|INTERRES
    61   29  154 1    
    62   30   31 2    
    63   30   32 1    
    64   32   33 1    
    65   32   34 1    
    66   32  155 1    
    67   33  156 1    
    68   33  157 1    
    69   33  158 1    
    70   34   35 am   BACKBONE|DICT|INTERRES
    71   34  159 1    
    72   35   36 2    
    73   35   37 1    
    74   37   38 1    
    75   37   39 1    
    76   37  160 1    
    77   38  161 1    
    78   38  162 1    
    79   38  163 1    
    80   39   40 am   BACKBONE|DICT|INTERRES
    81   39  164 1    
    82   40   41 2    
    83   40   42 1    
    84   42   43 1    
    85   42   44 1    
    86   42  165 1    
    87   43  166 1    
    88   43  167 1    
    89   43  168 1    
    90   44   45 am   BACKBONE|DICT|INTERRES
    91   44  169 1    
    92   45   46 2    
    93   45   47 1    
    94   47   48 1    
    95   47   49 1    
    96   47  170 1    
    97   48  171 1    
    98   48  172 1    
    99   48  173 1    
   100   49   50 am   BACKBONE|DICT|INTERRES
   101   49  174 1    
   102   50   51 2    
   103   50   52 1    
   104   52   53 1    
   105   52   54 1    
   106   52  175 1    
   107   53  176 1    
   108   53  177 1    
   109   53  178 1    
   110   54   55 am   BACKBONE|DICT|INTERRES
   111   54  179 1    
   112   55   56 2    
   113   55   57 1    
   114   57   58 1    
   115   57   59 1    
   116   57  180 1    
   117   58  181 1    
   118   58  182 1    
   119   58  183 1    
   120   59   60 am   BACKBONE|DICT|INTERRES
   121   59  184 1    
   122   60   61 2    
   123   60   62 1    
   124   62   63 1    
   125   62   64 1    
   126   62  185 1    
   127   63  186 1    
   128   63  187 1    
   129   63  188 1    
   130   64   65 am   BACKBONE|DICT|INTERRES
   131   64  189 1    
   132   65   66 2    
   133   67   68 2    
   134   67   69 am   BACKBONE|DICT|INTERRES
   135   69   70 1    
   136   69  190 1    
   137   70   71 1    
   138   70   72 1    
   139   70  191 1    
   140   71  192 1    
   141   71  193 1    
   142   71  194 1    
   143   72   73 2    
   144   72   74 am   BACKBONE|DICT|INTERRES
   145   74   75 1    
   146   74  195 1    
   147   75   76 1    
   148   75   77 1    
   149   75  196 1    
   150   76  197 1    
   151   76  198 1    
   152   76  199 1    
   153   77   78 2    
   154   77   79 am   BACKBONE|DICT|INTERRES
   155   79   80 1    
   156   79  200 1    
   157   80   81 1    
   158   80   82 1    
   159   80  201 1    
   160   81  202 1    
   161   81  203 1    
   162   81  204 1    
   163   82   83 2    
   164   82   84 am   BACKBONE|DICT|INTERRES
   165   84   85 1    
   166   84  205 1    
   167   85   86 1    
   168   85   87 1    
   169   85  206 1    
   170   86  207 1    
   171   86  208 1    
   172   86  209 1    
   173   87   88 2    
   174   87   89 am   BACKBONE|DICT|INTERRES
   175   89   90 1    
   176   89  210 1    
   177   90   91 1    
   178   90   92 1    
   179   90  211 1    
   180   91  212 1    
   181   91  213 1    
   182   91  214 1    
   183   92   93 2    
   184   92   94 am   BACKBONE|DICT|INTERRES
   185   94   95 1    
   186   94  215 1    
   187   95   96 1    
   188   95   97 1    
   189   95  216 1    
   190   96  217 1    
   191   96  218 1    
   192   96  219 1    
   193   97   98 2    
   194   97   99 am   BACKBONE|DICT|INTERRES
   195   99  100 1    
   196   99  220 1    
   197  100  101 1    
   198  100  102 1    
   199  100  221 1    
   200  101  222 1    
   201  101  223 1    
   202  101  224 1    
   203  102  103 2    
   204  102  104 am   BACKBONE|DICT|INTERRES
   205  104  105 1    
   206  104  225 1    
   207  105  106 1    
   208  105  107 1    
   209  105  226 1    
   210  106  227 1    
   211  106  228 1    
   212  106  229 1    
   213  107  108 2    
   214  107  109 am   BACKBONE|DICT|INTERRES
   215  109  110 1    
   216  109  230 1    
   217  110  111 1    
   218  110  112 1    
   219  110  231 1    
   220  111  232 1    
   221  111  233 1    
   222  111  234 1    
   223  112  113 2    
   224  112  114 am   BACKBONE|DICT|INTERRES
   225  114  115 1    
   226  114  235 1    
   227  115  116 1    
   228  115  117 1    
   229  115  236 1    
   230  116  237 1    
   231  116  238 1    
   232  116  239 1    
   233  117  118 2    
   234  117  119 am   BACKBONE|DICT|INTERRES
   235  119  120 1    
   236  119  240 1    
   237  120  121 1    
   238  120  124 1    
   239  120  241 1    
   240  121  122 am   BACKBONE|DICT|INTERRES
   241  121  123 2    
   242  122  242 1    
   243  122  243 1    
   244  124  125 1    
   245  124  244 1    
   246  124  245 1    
   247  125  126 1    
   248  126  246 1    
   249  126  247 1    
@<TRIPOS>SUBSTRUCTURE
     1 UNK         1 GROUP             0       ****    0 ROOT    
