@<TRIPOS>MOLECULE
3R540
247   249    1
SMALL
USER_CHARGES


@<TRIPOS>ATOM
      1 CA          2.3721  -16.1053  -51.5032 C.3       0 UNK        -0.1800 
      2 C           1.1293  -16.1947  -50.6300 C.2       0 UNK         0.5000 
      3 O           0.7519  -17.2869  -50.2151 O.2       0 UNK        -0.5000 
      4 N           0.4931  -15.0518  -50.3478 N.am      1 UNK        -0.5000 
      5 CA         -0.7094  -14.9513  -49.5091 C.3       1 UNK         0.1400 
      6 C6         -1.4178  -13.5857  -49.6917 C.3       23 UNK        -0.0398 
      7 S7         -2.0396  -13.3306  -51.3878 S.3       23 UNK        -0.2404 
      8 C8         -3.8282  -13.5877  -51.1589 C.3       23 UNK        -0.0205 
      9 C9         -4.1590  -15.0483  -50.8932 C.ar      23 UNK        -0.0193 
     10 C10        -4.2762  -15.9395  -51.9609 C.ar      23 UNK        -0.1150 
     11 C11        -4.5844  -17.2815  -51.7316 C.ar      23 UNK        -0.0193 
     12 C12        -4.7631  -17.7331  -50.4212 C.ar      23 UNK        -0.1150 
     13 C13        -4.6390  -16.8556  -49.3352 C.ar      23 UNK        -0.0193 
     14 C14        -4.3482  -15.5108  -49.5875 C.ar      23 UNK        -0.1150 
     15 C15        -4.8095  -17.2977  -47.8794 C.3       23 UNK        -0.0205 
     16 S16        -4.7709  -19.1024  -47.5911 S.3       23 UNK        -0.2404 
     17 C17        -4.2313  -19.1629  -45.8481 C.3       23 UNK        -0.0398 
     18 CA         -2.6902  -19.0893  -45.7085 C.3       11 UNK         0.1400 
     19 N          -2.2736  -18.5053  -44.4301 N.am      11 UNK        -0.5000 
     20 C          -1.0532  -18.0059  -44.1815 C.2       10 UNK         0.5000 
     21 O          -0.1372  -18.0594  -45.0021 O.2       10 UNK        -0.5000 
     22 CA         -0.7641  -17.4193  -42.7843 C.3       10 UNK         0.1400 
     23 CB         -0.2567  -15.9674  -42.8499 C.3       10 UNK        -0.1800 
     24 N          -1.8535  -17.5655  -41.8153 N.am      10 UNK        -0.5000 
     25 C          -3.0392  -16.9434  -41.7715 C.2       9 UNK         0.5000 
     26 O          -3.3832  -16.0500  -42.5458 O.2       9 UNK        -0.5000 
     27 CA         -4.0160  -17.4777  -40.6997 C.3       9 UNK         0.1400 
     28 CB         -5.4587  -16.9617  -40.8824 C.3       9 UNK        -0.1800 
     29 N          -3.9921  -18.9467  -40.6159 N.am      9 UNK        -0.5000 
     30 C          -4.2526  -19.8092  -41.6124 C.2       8 UNK         0.5000 
     31 O          -4.6233  -19.4627  -42.7340 O.2       8 UNK        -0.5000 
     32 CA         -3.9876  -21.3000  -41.3108 C.3       8 UNK         0.1400 
     33 CB         -4.0509  -22.1885  -42.5728 C.3       8 UNK        -0.1800 
     34 N          -2.7222  -21.5131  -40.5939 N.am      8 UNK        -0.5000 
     35 C          -1.4968  -21.1547  -41.0047 C.2       7 UNK         0.5000 
     36 O          -1.2636  -20.5986  -42.0809 O.2       7 UNK        -0.5000 
     37 CA         -0.3399  -21.4812  -40.0413 C.3       7 UNK         0.1400 
     38 CB          0.1436  -22.9272  -40.2299 C.3       7 UNK        -0.1800 
     39 N           0.7999  -20.5765  -40.2003 N.am      7 UNK        -0.5000 
     40 C           0.7912  -19.2729  -39.8890 C.2       6 UNK         0.5000 
     41 O          -0.1981  -18.6918  -39.4398 O.2       6 UNK        -0.5000 
     42 CA          2.0935  -18.4794  -40.1115 C.3       6 UNK         0.1400 
     43 CB          2.8066  -18.2498  -38.7696 C.3       6 UNK        -0.1800 
     44 N           3.0194  -19.1570  -41.0260 N.am      6 UNK        -0.5000 
     45 C           3.2102  -18.8121  -42.3048 C.2       5 UNK         0.5000 
     46 O           2.6442  -17.8662  -42.8591 O.2       5 UNK        -0.5000 
     47 CA          4.2000  -19.6720  -43.1040 C.3       5 UNK         0.1400 
     48 CB          3.5363  -20.9684  -43.5959 C.3       5 UNK        -0.1800 
     49 N           4.6612  -18.8863  -44.2405 N.am      5 UNK        -0.5000 
     50 C           5.8063  -19.0527  -44.9106 C.2       4 UNK         0.5000 
     51 O           6.5893  -19.9808  -44.7050 O.2       4 UNK        -0.5000 
     52 CA          6.1513  -17.9912  -45.9767 C.3       4 UNK         0.1400 
     53 CB          5.8698  -18.5206  -47.3904 C.3       4 UNK        -0.1800 
     54 N           5.4444  -16.7204  -45.7789 N.am      4 UNK        -0.5000 
     55 C           5.7132  -15.8551  -44.7928 C.2       3 UNK         0.5000 
     56 O           6.6068  -16.0329  -43.9641 O.2       3 UNK        -0.5000 
     57 CA          4.8407  -14.5912  -44.6811 C.3       3 UNK         0.1400 
     58 CB          5.4557  -13.4204  -45.4721 C.3       3 UNK        -0.1800 
     59 N           3.4175  -14.7716  -45.0029 N.am      3 UNK        -0.5000 
     60 C           2.8364  -14.9751  -46.1930 C.2       2 UNK         0.5000 
     61 O           3.4606  -15.1784  -47.2378 O.2       2 UNK        -0.5000 
     62 CA          1.2981  -14.9329  -46.2118 C.3       2 UNK         0.1400 
     63 CB          0.7423  -13.6986  -45.4653 C.3       2 UNK        -0.1800 
     64 N           0.8341  -14.9194  -47.5939 N.am      2 UNK        -0.5000 
     65 C          -0.4122  -15.1748  -48.0102 C.2       1 UNK         0.5000 
     66 O          -1.3239  -15.5316  -47.2633 O.2       1 UNK        -0.5000 
     67 C          -1.9994  -20.4342  -46.0256 C.2       11 UNK         0.5000 
     68 O          -2.0584  -20.8819  -47.1713 O.2       11 UNK        -0.5000 
     69 N          -1.2808  -21.0333  -45.0621 N.am      12 UNK        -0.5000 
     70 CA         -0.3622  -22.1520  -45.2986 C.3       12 UNK         0.1400 
     71 CB          0.1980  -22.6582  -43.9653 C.3       12 UNK        -0.1800 
     72 C           0.7783  -21.8163  -46.2846 C.2       12 UNK         0.5000 
     73 O           1.3131  -22.7317  -46.9087 O.2       12 UNK        -0.5000 
     74 N           1.0729  -20.5200  -46.4790 N.am      13 UNK        -0.5000 
     75 CA          1.9323  -20.0009  -47.5470 C.3       13 UNK         0.1400 
     76 CB          2.0696  -18.4811  -47.3713 C.3       13 UNK        -0.1800 
     77 C           1.4136  -20.3346  -48.9645 C.2       13 UNK         0.5000 
     78 O           2.2197  -20.5409  -49.8719 O.2       13 UNK        -0.5000 
     79 N           0.0847  -20.4324  -49.1071 N.am      14 UNK        -0.5000 
     80 CA         -0.6277  -20.8464  -50.3146 C.3       14 UNK         0.1400 
     81 CB         -1.7855  -19.8624  -50.5618 C.3       14 UNK        -0.1800 
     82 C          -1.1579  -22.2888  -50.1842 C.2       14 UNK         0.5000 
     83 O          -2.0223  -22.6843  -50.9688 O.2       14 UNK        -0.5000 
     84 N          -0.6671  -23.0444  -49.1889 N.am      15 UNK        -0.5000 
     85 CA         -1.0797  -24.4011  -48.8086 C.3       15 UNK         0.1400 
     86 CB         -0.6583  -25.4204  -49.8848 C.3       15 UNK        -0.1800 
     87 C          -2.5754  -24.5004  -48.4380 C.2       15 UNK         0.5000 
     88 O          -3.2198  -25.5029  -48.7470 O.2       15 UNK        -0.5000 
     89 N          -3.0937  -23.4453  -47.7910 N.am      16 UNK        -0.5000 
     90 CA         -4.4988  -23.2184  -47.4456 C.3       16 UNK         0.1400 
     91 CB         -5.0151  -24.2707  -46.4421 C.3       16 UNK        -0.1800 
     92 C          -5.3701  -23.0722  -48.7087 C.2       16 UNK         0.5000 
     93 O          -6.3972  -23.7404  -48.8391 O.2       16 UNK        -0.5000 
     94 N          -4.9183  -22.1858  -49.6096 N.am      17 UNK        -0.5000 
     95 CA         -5.5349  -21.8185  -50.8877 C.3       17 UNK         0.1400 
     96 CB         -6.9099  -21.1537  -50.6568 C.3       17 UNK        -0.1800 
     97 C          -5.5874  -22.9962  -51.8827 C.2       17 UNK         0.5000 
     98 O          -6.6507  -23.2962  -52.4305 O.2       17 UNK        -0.5000 
     99 N          -4.4366  -23.6500  -52.0876 N.am      18 UNK        -0.5000 
    100 CA        -4.2930  -24.8106  -52.9693 C.3       18 UNK         0.1400 
    101 CB        -4.2782  -26.0934  -52.1231 C.3       18 UNK        -0.1800 
    102 C         -3.0457  -24.7378  -53.8665 C.2       18 UNK         0.5000 
    103 O         -3.0959  -25.2363  -54.9918 O.2       18 UNK        -0.5000 
    104 N         -1.9522  -24.1358  -53.3781 N.am      19 UNK        -0.5000 
    105 CA        -0.6748  -24.0451  -54.0953 C.3       19 UNK         0.1400 
    106 CB         0.4821  -24.1697  -53.0908 C.3       19 UNK        -0.1800 
    107 C         -0.5328  -22.7541  -54.9220 C.2       19 UNK         0.5000 
    108 O          0.4164  -22.6449  -55.6998 O.2       19 UNK        -0.5000 
    109 N         -1.4565  -21.8032  -54.7473 N.am      20 UNK        -0.5000 
    110 CA        -1.5065  -20.5384  -55.4716 C.3       20 UNK         0.1400 
    111 CB        -1.0077  -19.4095  -54.5533 C.3       20 UNK        -0.1800 
    112 C         -2.9499  -20.2760  -55.9145 C.2       20 UNK         0.5000 
    113 O         -3.8834  -20.6494  -55.1997 O.2       20 UNK        -0.5000 
    114 N         -3.1031  -19.6130  -57.0666 N.am      21 UNK        -0.5000 
    115 CA        -4.3769  -19.0843  -57.5484 C.3       21 UNK         0.1400 
    116 CB        -4.3046  -18.8826  -59.0701 C.3       21 UNK        -0.1800 
    117 C         -4.6676  -17.7591  -56.8266 C.2       21 UNK         0.5000 
    118 O         -3.8127  -16.8699  -56.8269 O.2       21 UNK        -0.5000 
    119 N         -5.8424  -17.6656  -56.1989 N.am      22 UNK        -0.5000 
    120 CA        -6.2073  -16.5613  -55.2942 C.3       22 UNK         0.1400 
    121 C         -6.8876  -15.3486  -55.9930 C.2       22 UNK         0.5000 
    122 N         -7.1429  -15.3874  -57.2950 N.am      22 UNK        -0.7600 
    123 O         -7.1802  -14.3479  -55.3444 O.2       22 UNK        -0.5000 
    124 C124       -7.0395  -17.0550  -54.0787 C.3       23 UNK        -0.0398 
    125 S125       -6.4487  -18.6051  -53.3042 S.3       23 UNK        -0.2404 
    126 C126       -4.7097  -18.2500  -52.8954 C.3       23 UNK        -0.0205 
    127 H127        2.2439  -16.7112  -52.4002 H         1 UNK         0.0600 
    128 H128        2.5798  -15.0801  -51.8106 H         1 UNK         0.0600 
    129 H129        3.2385  -16.4801  -50.9579 H         1 UNK         0.0600 
    130 H130        0.8304  -14.1836  -50.7383 H         1 UNK         0.3000 
    131 H131       -1.4007  -15.7401  -49.8148 H         1 UNK         0.0600 
    132 H132       -2.2488  -13.4802  -48.9924 H         1 UNK         0.0800 
    133 H133       -0.7329  -12.7689  -49.4573 H         1 UNK         0.0800 
    134 H134       -4.3479  -13.2563  -52.0592 H         1 UNK         0.0800 
    135 H135       -4.1945  -12.9539  -50.3498 H         1 UNK         0.0800 
    136 H136       -4.1210  -15.5838  -52.9690 H         1 UNK         0.1150 
    137 H137       -4.9983  -18.7738  -50.2622 H         1 UNK         0.1150 
    138 H138       -4.2571  -14.8228  -48.7587 H         1 UNK         0.1150 
    139 H139       -4.0178  -16.8334  -47.2889 H         1 UNK         0.0800 
    140 H140       -5.7524  -16.9037  -47.4985 H         1 UNK         0.0800 
    141 H141       -4.7023  -18.3299  -45.3237 H         1 UNK         0.0800 
    142 H142       -4.6269  -20.0668  -45.3817 H         1 UNK         0.0800 
    143 H143       -2.3286  -18.3956  -46.4713 H         1 UNK         0.0600 
    144 H144       -2.9679  -18.5019  -43.6925 H         1 UNK         0.3000 
    145 H145        0.0470  -18.0271  -42.3880 H         1 UNK         0.0600 
    146 H146       -0.0979  -15.5568  -41.8529 H         1 UNK         0.0600 
    147 H147        0.6996  -15.9234  -43.3695 H         1 UNK         0.0600 
    148 H148       -0.9520  -15.3166  -43.3805 H         1 UNK         0.0600 
    149 H149       -1.6940  -18.2957  -41.1324 H         1 UNK         0.3000 
    150 H150       -3.6509  -17.1055  -39.7414 H         1 UNK         0.0600 
    151 H151       -5.4937  -15.8733  -40.8232 H         1 UNK         0.0600 
    152 H152       -6.1171  -17.3495  -40.1053 H         1 UNK         0.0600 
    153 H153       -5.8748  -17.2488  -41.8485 H         1 UNK         0.0600 
    154 H154       -3.6724  -19.3281  -39.7365 H         1 UNK         0.3000 
    155 H155       -4.7857  -21.6220  -40.6405 H         1 UNK         0.0600 
    156 H156       -3.8808  -23.2363  -42.3260 H         1 UNK         0.0600 
    157 H157       -3.3083  -21.8964  -43.3145 H         1 UNK         0.0600 
    158 H158       -5.0296  -22.1229  -43.0495 H         1 UNK         0.0600 
    159 H159       -2.8098  -21.9656  -39.6944 H         1 UNK         0.3000 
    160 H160       -0.7115  -21.3746  -39.0200 H         1 UNK         0.0600 
    161 H161        0.6237  -23.0725  -41.1969 H         1 UNK         0.0600 
    162 H162       -0.6845  -23.6342  -40.1640 H         1 UNK         0.0600 
    163 H163        0.8636  -23.2020  -39.4589 H         1 UNK         0.0600 
    164 H164        1.6314  -20.9704  -40.6101 H         1 UNK         0.3000 
    165 H165        1.8116  -17.5027  -40.5110 H         1 UNK         0.0600 
    166 H166        3.1055  -19.1900  -38.3046 H         1 UNK         0.0600 
    167 H167        3.7009  -17.6401  -38.8993 H         1 UNK         0.0600 
    168 H168        2.1578  -17.7266  -38.0658 H         1 UNK         0.0600 
    169 H169        3.5529  -19.9228  -40.6395 H         1 UNK         0.3000 
    170 H170        5.0507  -19.9107  -42.4624 H         1 UNK         0.0600 
    171 H171        3.1794  -21.5726  -42.7614 H         1 UNK         0.0600 
    172 H172        2.6839  -20.7501  -44.2367 H         1 UNK         0.0600 
    173 H173        4.2334  -21.5824  -44.1660 H         1 UNK         0.0600 
    174 H174        4.0873  -18.0745  -44.4319 H         1 UNK         0.3000 
    175 H175        7.2231  -17.7947  -45.9030 H         1 UNK         0.0600 
    176 H176        4.8258  -18.7982  -47.5167 H         1 UNK         0.0600 
    177 H177        6.1164  -17.7779  -48.1494 H         1 UNK         0.0600 
    178 H178        6.4681  -19.4086  -47.5980 H         1 UNK         0.0600 
    179 H179        4.7228  -16.4681  -46.4468 H         1 UNK         0.3000 
    180 H180        4.8574  -14.3069  -43.6277 H         1 UNK         0.0600 
    181 H181        6.4711  -13.2136  -45.1318 H         1 UNK         0.0600 
    182 H182        5.5102  -13.6318  -46.5403 H         1 UNK         0.0600 
    183 H183        4.8765  -12.5066  -45.3390 H         1 UNK         0.0600 
    184 H184        2.8046  -14.6741  -44.2059 H         1 UNK         0.3000 
    185 H185        0.9413  -15.8446  -45.7343 H         1 UNK         0.0600 
    186 H186        1.0917  -12.7698  -45.9179 H         1 UNK         0.0600 
    187 H187       -0.3474  -13.6829  -45.4760 H         1 UNK         0.0600 
    188 H188        1.0413  -13.6853  -44.4174 H         1 UNK         0.0600 
    189 H189        1.5544  -14.7128  -48.2742 H         1 UNK         0.3000 
    190 H190       -1.2831  -20.6406  -44.1251 H         1 UNK         0.3000 
    191 H191       -0.9402  -22.9635  -45.7445 H         1 UNK         0.0600 
    192 H192        0.9175  -23.4638  -44.1171 H         1 UNK         0.0600 
    193 H193       -0.6003  -23.0517  -43.3362 H         1 UNK         0.0600 
    194 H194        0.7015  -21.8638  -43.4151 H         1 UNK         0.0600 
    195 H195        0.5940  -19.8216  -45.9196 H         1 UNK         0.3000 
    196 H196        2.9182  -20.4562  -47.4350 H         1 UNK         0.0600 
    197 H197        2.6965  -18.0462  -48.1505 H         1 UNK         0.0600 
    198 H198        2.5151  -18.2307  -46.4086 H         1 UNK         0.0600 
    199 H199        1.0999  -17.9853  -47.4304 H         1 UNK         0.0600 
    200 H200       -0.5039  -20.2919  -48.2938 H         1 UNK         0.3000 
    201 H201        0.0371  -20.8199  -51.1800 H         1 UNK         0.0600 
    202 H202       -1.4192  -18.8439  -50.6890 H         1 UNK         0.0600 
    203 H203       -2.4958  -19.8574  -49.7345 H         1 UNK         0.0600 
    204 H204       -2.3356  -20.1198  -51.4665 H         1 UNK         0.0600 
    205 H205        0.0565  -22.6417  -48.6057 H         1 UNK         0.3000 
    206 H206       -0.5294  -24.6425  -47.8985 H         1 UNK         0.0600 
    207 H207        0.4040  -25.3341  -50.1123 H         1 UNK         0.0600 
    208 H208       -0.8337  -26.4423  -49.5469 H         1 UNK         0.0600 
    209 H209       -1.2162  -25.2840  -50.8101 H         1 UNK         0.0600 
    210 H210       -2.4907  -22.6442  -47.6225 H         1 UNK         0.3000 
    211 H211       -4.5357  -22.2524  -46.9406 H         1 UNK         0.0600 
    212 H212       -5.0663  -25.2671  -46.8812 H         1 UNK         0.0600 
    213 H213       -6.0179  -24.0164  -46.0973 H         1 UNK         0.0600 
    214 H214       -4.3734  -24.3226  -45.5625 H         1 UNK         0.0600 
    215 H215       -4.0439  -21.7247  -49.4043 H         1 UNK         0.3000 
    216 H216       -4.8813  -21.0721  -51.3390 H         1 UNK         0.0600 
    217 H217       -7.6293  -21.8430  -50.2150 H         1 UNK         0.0600 
    218 H218       -7.3390  -20.8061  -51.5960 H         1 UNK         0.0600 
    219 H219       -6.8275  -20.2900  -49.9974 H         1 UNK         0.0600 
    220 H220       -3.6032  -23.3349  -51.5966 H         1 UNK         0.3000 
    221 H221       -5.1467  -24.8676  -53.6478 H         1 UNK         0.0600 
    222 H222       -3.4375  -26.1069  -51.4296 H         1 UNK         0.0600 
    223 H223       -5.1932  -26.1899  -51.5383 H         1 UNK         0.0600 
    224 H224       -4.1989  -26.9793  -52.7543 H         1 UNK         0.0600 
    225 H225       -1.9783  -23.7112  -52.4547 H         1 UNK         0.3000 
    226 H226       -0.5873  -24.8790  -54.7949 H         1 UNK         0.0600 
    227 H227        0.4529  -25.1306  -52.5788 H         1 UNK         0.0600 
    228 H228        1.4476  -24.1091  -53.5946 H         1 UNK         0.0600 
    229 H229        0.4576  -23.3803  -52.3407 H         1 UNK         0.0600 
    230 H230       -2.2513  -21.9919  -54.1516 H         1 UNK         0.3000 
    231 H231       -0.8757  -20.5810  -56.3621 H         1 UNK         0.0600 
    232 H232       -1.6307  -19.3080  -53.6643 H         1 UNK         0.0600 
    233 H233        0.0159  -19.5909  -54.2249 H         1 UNK         0.0600 
    234 H234       -1.0190  -18.4499  -55.0717 H         1 UNK         0.0600 
    235 H235       -2.2817  -19.3066  -57.5678 H         1 UNK         0.3000 
    236 H236       -5.1719  -19.8022  -57.3341 H         1 UNK         0.0600 
    237 H237       -4.1021  -19.8233  -59.5825 H         1 UNK         0.0600 
    238 H238       -5.2494  -18.4987  -59.4568 H         1 UNK         0.0600 
    239 H239       -3.5234  -18.1741  -59.3488 H         1 UNK         0.0600 
    240 H240       -6.4903  -18.4393  -56.2346 H         1 UNK         0.3000 
    241 H241       -5.2847  -16.1473  -54.8872 H         1 UNK         0.0600 
    242 H242       -6.9010  -16.2002  -57.8391 H         1 UNK         0.3800 
    243 H243       -7.5793  -14.5956  -57.7411 H         1 UNK         0.3800 
    244 H244       -8.0742  -17.2260  -54.3801 H         1 UNK         0.0800 
    245 H245       -7.0757  -16.2827  -53.3083 H         1 UNK         0.0800 
    246 H246       -4.1785  -17.8802  -53.7723 H         1 UNK         0.0800 
    247 H247       -4.2197  -19.1881  -52.6369 H         1 UNK         0.0800 
@<TRIPOS>BOND
     1    1    2 1    
     2    1  127 1    
     3    1  128 1    
     4    1  129 1    
     5    2    3 2    
     6    2    4 am   BACKBONE|DICT|INTERRES
     7    4    5 1    
     8    4  130 1    
     9    5    6 1    
    10    5   65 1    
    11    5  131 1    
    12    6    7 1    
    13    6  132 1    
    14    6  133 1    
    15    7    8 1    
    16    8    9 1    
    17    8  134 1    
    18    8  135 1    
    19    9   10 ar   
    20    9   14 ar   
    21   10   11 ar   
    22   10  136 1    
    23   11   12 ar   
    24   11  126 1    
    25   12   13 ar   
    26   12  137 1    
    27   13   14 ar   
    28   13   15 1    
    29   14  138 1    
    30   15   16 1    
    31   15  139 1    
    32   15  140 1    
    33   16   17 1    
    34   17   18 1    
    35   17  141 1    
    36   17  142 1    
    37   18   19 1    
    38   18   67 1    
    39   18  143 1    
    40   19   20 am   BACKBONE|DICT|INTERRES
    41   19  144 1    
    42   20   21 2    
    43   20   22 1    
    44   22   23 1    
    45   22   24 1    
    46   22  145 1    
    47   23  146 1    
    48   23  147 1    
    49   23  148 1    
    50   24   25 am   BACKBONE|DICT|INTERRES
    51   24  149 1    
    52   25   26 2    
    53   25   27 1    
    54   27   28 1    
    55   27   29 1    
    56   27  150 1    
    57   28  151 1    
    58   28  152 1    
    59   28  153 1    
    60   29   30 am   BACKBONE|DICT|INTERRES
    61   29  154 1    
    62   30   31 2    
    63   30   32 1    
    64   32   33 1    
    65   32   34 1    
    66   32  155 1    
    67   33  156 1    
    68   33  157 1    
    69   33  158 1    
    70   34   35 am   BACKBONE|DICT|INTERRES
    71   34  159 1    
    72   35   36 2    
    73   35   37 1    
    74   37   38 1    
    75   37   39 1    
    76   37  160 1    
    77   38  161 1    
    78   38  162 1    
    79   38  163 1    
    80   39   40 am   BACKBONE|DICT|INTERRES
    81   39  164 1    
    82   40   41 2    
    83   40   42 1    
    84   42   43 1    
    85   42   44 1    
    86   42  165 1    
    87   43  166 1    
    88   43  167 1    
    89   43  168 1    
    90   44   45 am   BACKBONE|DICT|INTERRES
    91   44  169 1    
    92   45   46 2    
    93   45   47 1    
    94   47   48 1    
    95   47   49 1    
    96   47  170 1    
    97   48  171 1    
    98   48  172 1    
    99   48  173 1    
   100   49   50 am   BACKBONE|DICT|INTERRES
   101   49  174 1    
   102   50   51 2    
   103   50   52 1    
   104   52   53 1    
   105   52   54 1    
   106   52  175 1    
   107   53  176 1    
   108   53  177 1    
   109   53  178 1    
   110   54   55 am   BACKBONE|DICT|INTERRES
   111   54  179 1    
   112   55   56 2    
   113   55   57 1    
   114   57   58 1    
   115   57   59 1    
   116   57  180 1    
   117   58  181 1    
   118   58  182 1    
   119   58  183 1    
   120   59   60 am   BACKBONE|DICT|INTERRES
   121   59  184 1    
   122   60   61 2    
   123   60   62 1    
   124   62   63 1    
   125   62   64 1    
   126   62  185 1    
   127   63  186 1    
   128   63  187 1    
   129   63  188 1    
   130   64   65 am   BACKBONE|DICT|INTERRES
   131   64  189 1    
   132   65   66 2    
   133   67   68 2    
   134   67   69 am   BACKBONE|DICT|INTERRES
   135   69   70 1    
   136   69  190 1    
   137   70   71 1    
   138   70   72 1    
   139   70  191 1    
   140   71  192 1    
   141   71  193 1    
   142   71  194 1    
   143   72   73 2    
   144   72   74 am   BACKBONE|DICT|INTERRES
   145   74   75 1    
   146   74  195 1    
   147   75   76 1    
   148   75   77 1    
   149   75  196 1    
   150   76  197 1    
   151   76  198 1    
   152   76  199 1    
   153   77   78 2    
   154   77   79 am   BACKBONE|DICT|INTERRES
   155   79   80 1    
   156   79  200 1    
   157   80   81 1    
   158   80   82 1    
   159   80  201 1    
   160   81  202 1    
   161   81  203 1    
   162   81  204 1    
   163   82   83 2    
   164   82   84 am   BACKBONE|DICT|INTERRES
   165   84   85 1    
   166   84  205 1    
   167   85   86 1    
   168   85   87 1    
   169   85  206 1    
   170   86  207 1    
   171   86  208 1    
   172   86  209 1    
   173   87   88 2    
   174   87   89 am   BACKBONE|DICT|INTERRES
   175   89   90 1    
   176   89  210 1    
   177   90   91 1    
   178   90   92 1    
   179   90  211 1    
   180   91  212 1    
   181   91  213 1    
   182   91  214 1    
   183   92   93 2    
   184   92   94 am   BACKBONE|DICT|INTERRES
   185   94   95 1    
   186   94  215 1    
   187   95   96 1    
   188   95   97 1    
   189   95  216 1    
   190   96  217 1    
   191   96  218 1    
   192   96  219 1    
   193   97   98 2    
   194   97   99 am   BACKBONE|DICT|INTERRES
   195   99  100 1    
   196   99  220 1    
   197  100  101 1    
   198  100  102 1    
   199  100  221 1    
   200  101  222 1    
   201  101  223 1    
   202  101  224 1    
   203  102  103 2    
   204  102  104 am   BACKBONE|DICT|INTERRES
   205  104  105 1    
   206  104  225 1    
   207  105  106 1    
   208  105  107 1    
   209  105  226 1    
   210  106  227 1    
   211  106  228 1    
   212  106  229 1    
   213  107  108 2    
   214  107  109 am   BACKBONE|DICT|INTERRES
   215  109  110 1    
   216  109  230 1    
   217  110  111 1    
   218  110  112 1    
   219  110  231 1    
   220  111  232 1    
   221  111  233 1    
   222  111  234 1    
   223  112  113 2    
   224  112  114 am   BACKBONE|DICT|INTERRES
   225  114  115 1    
   226  114  235 1    
   227  115  116 1    
   228  115  117 1    
   229  115  236 1    
   230  116  237 1    
   231  116  238 1    
   232  116  239 1    
   233  117  118 2    
   234  117  119 am   BACKBONE|DICT|INTERRES
   235  119  120 1    
   236  119  240 1    
   237  120  121 1    
   238  120  124 1    
   239  120  241 1    
   240  121  122 am   BACKBONE|DICT|INTERRES
   241  121  123 2    
   242  122  242 1    
   243  122  243 1    
   244  124  125 1    
   245  124  244 1    
   246  124  245 1    
   247  125  126 1    
   248  126  246 1    
   249  126  247 1    
@<TRIPOS>SUBSTRUCTURE
     1 UNK         1 GROUP             0       ****    0 ROOT    
