@<TRIPOS>MOLECULE
3R540
247   249    1
SMALL
USER_CHARGES


@<TRIPOS>ATOM
      1 CA         -2.1306  -16.1407  -48.2776 C.3       0 UNK        -0.1800 
      2 C          -1.6859  -14.7148  -47.9983 C.2       0 UNK         0.5000 
      3 O          -2.2154  -14.0849  -47.0835 O.2       0 UNK        -0.5000 
      4 N          -0.7191  -14.2073  -48.7766 N.am      1 UNK        -0.5000 
      5 CA         -0.0641  -12.9186  -48.5417 C.3       1 UNK         0.1400 
      6 C6          0.4991  -12.2751  -49.8413 C.3       23 UNK        -0.0398 
      7 S7          1.8155  -13.1889  -50.7313 S.3       23 UNK        -0.2404 
      8 C8          0.9555  -13.8709  -52.1830 C.3       23 UNK        -0.0205 
      9 C9          0.1896  -15.1454  -51.8615 C.ar      23 UNK        -0.0193 
     10 C10        -1.1938  -15.2025  -52.0483 C.ar      23 UNK        -0.1150 
     11 C11        -1.8966  -16.3864  -51.8065 C.ar      23 UNK        -0.0193 
     12 C12        -1.1999  -17.5196  -51.3756 C.ar      23 UNK        -0.1150 
     13 C13         0.1774  -17.4653  -51.1408 C.ar      23 UNK        -0.0193 
     14 C14         0.8676  -16.2783  -51.3999 C.ar      23 UNK        -0.1150 
     15 C15         0.9260  -18.6848  -50.6184 C.3       23 UNK        -0.0205 
     16 S16         1.0478  -18.7029  -48.7978 S.3       23 UNK        -0.2404 
     17 C17        -0.5584  -19.4252  -48.3200 C.3       23 UNK        -0.0398 
     18 CA         -0.4463  -20.8993  -47.8608 C.3       11 UNK         0.1400 
     19 N           0.2939  -21.0656  -46.6083 N.am      11 UNK        -0.5000 
     20 C           0.7842  -22.2365  -46.1752 C.2       10 UNK         0.5000 
     21 O           0.7811  -23.2688  -46.8457 O.2       10 UNK        -0.5000 
     22 CA          1.3354  -22.2761  -44.7383 C.3       10 UNK         0.1400 
     23 CB          2.8392  -21.9648  -44.7236 C.3       10 UNK        -0.1800 
     24 N           0.6277  -21.3586  -43.8421 N.am      10 UNK        -0.5000 
     25 C          -0.6269  -21.5570  -43.4066 C.2       9 UNK         0.5000 
     26 O          -1.2970  -22.5465  -43.7009 O.2       9 UNK        -0.5000 
     27 CA         -1.2618  -20.4542  -42.5336 C.3       9 UNK         0.1400 
     28 CB         -0.9678  -20.7117  -41.0487 C.3       9 UNK        -0.1800 
     29 N          -0.8221  -19.1034  -42.8798 N.am      9 UNK        -0.5000 
     30 C          -0.9307  -18.5358  -44.0884 C.2       8 UNK         0.5000 
     31 O          -1.5142  -19.0606  -45.0369 O.2       8 UNK        -0.5000 
     32 CA         -0.2065  -17.1933  -44.2969 C.3       8 UNK         0.1400 
     33 CB         -1.1835  -16.0210  -44.1485 C.3       8 UNK        -0.1800 
     34 N           0.9442  -16.9959  -43.4058 N.am      8 UNK        -0.5000 
     35 C           2.0393  -17.7733  -43.3880 C.2       7 UNK         0.5000 
     36 O           2.1793  -18.7637  -44.1043 O.2       7 UNK        -0.5000 
     37 CA          3.1410  -17.4124  -42.3792 C.3       7 UNK         0.1400 
     38 CB          4.0244  -16.2749  -42.9069 C.3       7 UNK        -0.1800 
     39 N           2.5633  -17.0242  -41.0962 N.am      7 UNK        -0.5000 
     40 C           2.2203  -17.8935  -40.1359 C.2       6 UNK         0.5000 
     41 O           2.4295  -19.1049  -40.2015 O.2       6 UNK        -0.5000 
     42 CA          1.5018  -17.3175  -38.9010 C.3       6 UNK         0.1400 
     43 CB          2.5190  -16.9273  -37.8181 C.3       6 UNK        -0.1800 
     44 N           0.6638  -16.1583  -39.2109 N.am      6 UNK        -0.5000 
     45 C          -0.4223  -16.1892  -39.9953 C.2       5 UNK         0.5000 
     46 O          -0.8518  -17.2099  -40.5326 O.2       5 UNK        -0.5000 
     47 CA         -1.1235  -14.8436  -40.2516 C.3       5 UNK         0.1400 
     48 CB         -2.1943  -14.5873  -39.1807 C.3       5 UNK        -0.1800 
     49 N          -0.2151  -13.6942  -40.3090 N.am      5 UNK        -0.5000 
     50 C           0.7909  -13.5293  -41.1799 C.2       4 UNK         0.5000 
     51 O           1.1354  -14.3849  -41.9995 O.2       4 UNK        -0.5000 
     52 CA          1.5175  -12.1753  -41.0848 C.3       4 UNK         0.1400 
     53 CB          2.5060  -12.1450  -39.9008 C.3       4 UNK        -0.1800 
     54 N           2.1318  -11.7523  -42.3502 N.am      4 UNK        -0.5000 
     55 C           3.2964  -12.1257  -42.9001 C.2       3 UNK         0.5000 
     56 O           4.1020  -12.9008  -42.3836 O.2       3 UNK        -0.5000 
     57 CA          3.6023  -11.4883  -44.2697 C.3       3 UNK         0.1400 
     58 CB          5.0553  -10.9822  -44.3884 C.3       3 UNK        -0.1800 
     59 N           3.2255  -12.3876  -45.3622 N.am      3 UNK        -0.5000 
     60 C           3.8194  -13.5140  -45.7734 C.2       2 UNK         0.5000 
     61 O           4.9132  -13.9055  -45.3666 O.2       2 UNK        -0.5000 
     62 CA          3.0908  -14.3692  -46.8353 C.3       2 UNK         0.1400 
     63 CB          2.4567  -15.6037  -46.1816 C.3       2 UNK        -0.1800 
     64 N           2.0869  -13.7228  -47.6919 N.am      2 UNK        -0.5000 
     65 C           0.9491  -13.0838  -47.3872 C.2       1 UNK         0.5000 
     66 O           0.6505  -12.7016  -46.2556 O.2       1 UNK        -0.5000 
     67 C          -1.8425  -21.5335  -47.7279 C.2       11 UNK         0.5000 
     68 O          -2.2178  -22.3423  -48.5724 O.2       11 UNK        -0.5000 
     69 N          -2.5727  -21.1901  -46.6559 N.am      12 UNK        -0.5000 
     70 CA         -3.9336  -21.6640  -46.3799 C.3       12 UNK         0.1400 
     71 CB         -4.4563  -20.9964  -45.1011 C.3       12 UNK        -0.1800 
     72 C          -4.0612  -23.1972  -46.2800 C.2       12 UNK         0.5000 
     73 O          -5.0878  -23.7463  -46.6808 O.2       12 UNK        -0.5000 
     74 N          -3.0039  -23.8641  -45.7982 N.am      13 UNK        -0.5000 
     75 CA         -2.8814  -25.3217  -45.7409 C.3       13 UNK         0.1400 
     76 CB         -1.5829  -25.6860  -45.0056 C.3       13 UNK        -0.1800 
     77 C          -2.9296  -26.0157  -47.1187 C.2       13 UNK         0.5000 
     78 O          -3.3331  -27.1776  -47.1910 O.2       13 UNK        -0.5000 
     79 N          -2.5529  -25.3051  -48.1916 N.am      14 UNK        -0.5000 
     80 CA         -2.5733  -25.7888  -49.5720 C.3       14 UNK         0.1400 
     81 CB         -1.5011  -25.0356  -50.3762 C.3       14 UNK        -0.1800 
     82 C          -3.9809  -25.6520  -50.1869 C.2       14 UNK         0.5000 
     83 O          -4.1607  -24.9310  -51.1708 O.2       14 UNK        -0.5000 
     84 N          -4.9563  -26.3407  -49.5769 N.am      15 UNK        -0.5000 
     85 CA         -6.3655  -26.4339  -49.9756 C.3       15 UNK         0.1400 
     86 CB         -6.4920  -27.2249  -51.2955 C.3       15 UNK        -0.1800 
     87 C          -7.0568  -25.0565  -50.0381 C.2       15 UNK         0.5000 
     88 O          -7.5965  -24.6825  -51.0794 O.2       15 UNK        -0.5000 
     89 N          -6.9771  -24.2989  -48.9331 N.am      16 UNK        -0.5000 
     90 CA         -7.4442  -22.9107  -48.7959 C.3       16 UNK         0.1400 
     91 CB         -8.9790  -22.8177  -48.9316 C.3       16 UNK        -0.1800 
     92 C          -6.6894  -21.9483  -49.7385 C.2       16 UNK         0.5000 
     93 O          -7.2715  -20.9914  -50.2498 O.2       16 UNK        -0.5000 
     94 N          -5.4036  -22.2568  -49.9603 N.am      17 UNK        -0.5000 
     95 CA         -4.4444  -21.6082  -50.8570 C.3       17 UNK         0.1400 
     96 CB         -4.2510  -20.1238  -50.4963 C.3       17 UNK        -0.1800 
     97 C          -4.7081  -21.8129  -52.3602 C.2       17 UNK         0.5000 
     98 O          -3.9481  -21.2761  -53.1673 O.2       17 UNK        -0.5000 
     99 N          -5.7204  -22.6127  -52.7263 N.am      18 UNK        -0.5000 
    100 CA        -6.0789  -22.9113  -54.1139 C.3       18 UNK         0.1400 
    101 CB        -7.4450  -23.6108  -54.1524 C.3       18 UNK        -0.1800 
    102 C         -5.0245  -23.7555  -54.8542 C.2       18 UNK         0.5000 
    103 O         -4.9409  -23.6642  -56.0800 O.2       18 UNK        -0.5000 
    104 N         -4.2365  -24.5451  -54.1106 N.am      19 UNK        -0.5000 
    105 CA        -3.1275  -25.3393  -54.6415 C.3       19 UNK         0.1400 
    106 CB        -3.0747  -26.6847  -53.8984 C.3       19 UNK        -0.1800 
    107 C         -1.7757  -24.5983  -54.5636 C.2       19 UNK         0.5000 
    108 O         -0.7730  -25.1438  -55.0279 O.2       19 UNK        -0.5000 
    109 N         -1.7577  -23.3868  -53.9889 N.am      20 UNK        -0.5000 
    110 CA        -0.5933  -22.5040  -53.9232 C.3       20 UNK         0.1400 
    111 CB        -0.4606  -21.9464  -52.4933 C.3       20 UNK        -0.1800 
    112 C         -0.7035  -21.4022  -54.9970 C.2       20 UNK         0.5000 
    113 O         -1.3028  -21.6291  -56.0507 O.2       20 UNK        -0.5000 
    114 N         -0.1271  -20.2222  -54.7229 N.am      21 UNK        -0.5000 
    115 CA        -0.0880  -19.0589  -55.6185 C.3       21 UNK         0.1400 
    116 CB         0.7486  -17.9509  -54.9600 C.3       21 UNK        -0.1800 
    117 C         -1.4748  -18.5133  -56.0159 C.2       21 UNK         0.5000 
    118 O         -1.6097  -17.9335  -57.0943 O.2       21 UNK        -0.5000 
    119 N         -2.4724  -18.7307  -55.1525 N.am      22 UNK        -0.5000 
    120 CA        -3.8887  -18.4278  -55.3982 C.3       22 UNK         0.1400 
    121 C         -4.6777  -19.6129  -56.0349 C.2       22 UNK         0.5000 
    122 N         -4.0485  -20.7203  -56.4104 N.am      22 UNK        -0.7600 
    123 O         -5.8891  -19.5208  -56.2140 O.2       22 UNK        -0.5000 
    124 C124       -4.5709  -17.8877  -54.1152 C.3       23 UNK        -0.0398 
    125 S125       -3.9592  -16.2224  -53.6750 S.3       23 UNK        -0.2404 
    126 C126       -3.4129  -16.4097  -51.9474 C.3       23 UNK        -0.0205 
    127 H127       -3.0203  -16.1467  -48.9062 H         1 UNK         0.0600 
    128 H128       -2.3639  -16.6573  -47.3465 H         1 UNK         0.0600 
    129 H129       -1.3424  -16.6972  -48.7787 H         1 UNK         0.0600 
    130 H130       -0.3304  -14.7692  -49.5221 H         1 UNK         0.3000 
    131 H131       -0.8242  -12.2228  -48.1789 H         1 UNK         0.0600 
    132 H132       -0.3262  -12.0932  -50.5307 H         1 UNK         0.0800 
    133 H133        0.8942  -11.2852  -49.6076 H         1 UNK         0.0800 
    134 H134        0.3030  -13.1119  -52.6171 H         1 UNK         0.0800 
    135 H135        1.6987  -14.1024  -52.9472 H         1 UNK         0.0800 
    136 H136       -1.7291  -14.3265  -52.3872 H         1 UNK         0.1150 
    137 H137       -1.7313  -18.4367  -51.1894 H         1 UNK         0.1150 
    138 H138        1.9363  -16.2349  -51.2422 H         1 UNK         0.1150 
    139 H139        0.4436  -19.6000  -50.9569 H         1 UNK         0.0800 
    140 H140        1.9337  -18.7005  -51.0362 H         1 UNK         0.0800 
    141 H141       -1.2478  -19.3424  -49.1597 H         1 UNK         0.0800 
    142 H142       -0.9824  -18.8069  -47.5298 H         1 UNK         0.0800 
    143 H143        0.0814  -21.4494  -48.6436 H         1 UNK         0.0600 
    144 H144        0.3179  -20.2696  -45.9870 H         1 UNK         0.3000 
    145 H145        1.1994  -23.2911  -44.3585 H         1 UNK         0.0600 
    146 H146        3.2358  -21.9689  -43.7083 H         1 UNK         0.0600 
    147 H147        3.3937  -22.7112  -45.2935 H         1 UNK         0.0600 
    148 H148        3.0561  -20.9927  -45.1667 H         1 UNK         0.0600 
    149 H149        1.1040  -20.4931  -43.6134 H         1 UNK         0.3000 
    150 H150       -2.3421  -20.4938  -42.6787 H         1 UNK         0.0600 
    151 H151       -1.3028  -21.7057  -40.7497 H         1 UNK         0.0600 
    152 H152       -1.4829  -19.9907  -40.4136 H         1 UNK         0.0600 
    153 H153        0.0994  -20.6445  -40.8335 H         1 UNK         0.0600 
    154 H154       -0.3986  -18.5604  -42.1364 H         1 UNK         0.3000 
    155 H155        0.1675  -17.1928  -45.3223 H         1 UNK         0.0600 
    156 H156       -1.6495  -16.0155  -43.1648 H         1 UNK         0.0600 
    157 H157       -1.9843  -16.0873  -44.8857 H         1 UNK         0.0600 
    158 H158       -0.6842  -15.0629  -44.2972 H         1 UNK         0.0600 
    159 H159        0.9234  -16.1726  -42.8115 H         1 UNK         0.3000 
    160 H160        3.7766  -18.2898  -42.2405 H         1 UNK         0.0600 
    161 H161        3.4359  -15.3955  -43.1692 H         1 UNK         0.0600 
    162 H162        4.5684  -16.5856  -43.7991 H         1 UNK         0.0600 
    163 H163        4.7653  -15.9705  -42.1675 H         1 UNK         0.0600 
    164 H164        2.3137  -16.0497  -40.9902 H         1 UNK         0.3000 
    165 H165        0.8561  -18.1015  -38.4996 H         1 UNK         0.0600 
    166 H166        2.0191  -16.5926  -36.9090 H         1 UNK         0.0600 
    167 H167        3.1470  -17.7773  -37.5481 H         1 UNK         0.0600 
    168 H168        3.1781  -16.1258  -38.1546 H         1 UNK         0.0600 
    169 H169        0.9444  -15.2729  -38.8160 H         1 UNK         0.3000 
    170 H170       -1.6260  -14.9091  -41.2163 H         1 UNK         0.0600 
    171 H171       -1.7538  -14.4701  -38.1897 H         1 UNK         0.0600 
    172 H172       -2.7679  -13.6872  -39.4026 H         1 UNK         0.0600 
    173 H173       -2.9018  -15.4162  -39.1294 H         1 UNK         0.0600 
    174 H174       -0.4177  -12.9448  -39.6630 H         1 UNK         0.3000 
    175 H175        0.7541  -11.4214  -40.8853 H         1 UNK         0.0600 
    176 H176        3.0539  -11.2034  -39.8650 H         1 UNK         0.0600 
    177 H177        3.2320  -12.9568  -39.9520 H         1 UNK         0.0600 
    178 H178        1.9793  -12.2483  -38.9515 H         1 UNK         0.0600 
    179 H179        1.5482  -11.1366  -42.8990 H         1 UNK         0.3000 
    180 H180        2.9612  -10.6123  -44.3813 H         1 UNK         0.0600 
    181 H181        5.7867  -11.7721  -44.2173 H         1 UNK         0.0600 
    182 H182        5.2499  -10.2026  -43.6513 H         1 UNK         0.0600 
    183 H183        5.2456  -10.5548  -45.3728 H         1 UNK         0.0600 
    184 H184        2.2829  -12.2490  -45.7215 H         1 UNK         0.3000 
    185 H185        3.8638  -14.7225  -47.5195 H         1 UNK         0.0600 
    186 H186        3.2131  -16.2231  -45.7021 H         1 UNK         0.0600 
    187 H187        1.7309  -15.3086  -45.4245 H         1 UNK         0.0600 
    188 H188        1.9478  -16.2294  -46.9151 H         1 UNK         0.0600 
    189 H189        2.2264  -13.8992  -48.6796 H         1 UNK         0.3000 
    190 H190       -2.1918  -20.5052  -46.0067 H         1 UNK         0.3000 
    191 H191       -4.5611  -21.3393  -47.2119 H         1 UNK         0.0600 
    192 H192       -4.3971  -19.9097  -45.1670 H         1 UNK         0.0600 
    193 H193       -5.5007  -21.2567  -44.9248 H         1 UNK         0.0600 
    194 H194       -3.8886  -21.3127  -44.2266 H         1 UNK         0.0600 
    195 H195       -2.2292  -23.3300  -45.4210 H         1 UNK         0.3000 
    196 H196       -3.7227  -25.7006  -45.1573 H         1 UNK         0.0600 
    197 H197       -1.4606  -26.7676  -44.9361 H         1 UNK         0.0600 
    198 H198       -1.5826  -25.2947  -43.9882 H         1 UNK         0.0600 
    199 H199       -0.7067  -25.2874  -45.5184 H         1 UNK         0.0600 
    200 H200       -2.2970  -24.3307  -48.0704 H         1 UNK         0.3000 
    201 H201       -2.3095  -26.8482  -49.5855 H         1 UNK         0.0600 
    202 H202       -0.5256  -25.0944  -49.8932 H         1 UNK         0.0600 
    203 H203       -1.7587  -23.9839  -50.4849 H         1 UNK         0.0600 
    204 H204       -1.3931  -25.4492  -51.3784 H         1 UNK         0.0600 
    205 H205       -4.6941  -26.8672  -48.7504 H         1 UNK         0.3000 
    206 H206       -6.8760  -27.0028  -49.1972 H         1 UNK         0.0600 
    207 H207       -6.0261  -28.2066  -51.2130 H         1 UNK         0.0600 
    208 H208       -7.5390  -27.3834  -51.5565 H         1 UNK         0.0600 
    209 H209       -6.0237  -26.7017  -52.1303 H         1 UNK         0.0600 
    210 H210       -6.4600  -24.6511  -48.1353 H         1 UNK         0.3000 
    211 H211       -7.1931  -22.5974  -47.7822 H         1 UNK         0.0600 
    212 H212       -9.3137  -23.0278  -49.9476 H         1 UNK         0.0600 
    213 H213       -9.3320  -21.8184  -48.6745 H         1 UNK         0.0600 
    214 H214       -9.4770  -23.5187  -48.2618 H         1 UNK         0.0600 
    215 H215       -5.0539  -23.0938  -49.5153 H         1 UNK         0.3000 
    216 H216       -3.4954  -22.1133  -50.6876 H         1 UNK         0.0600 
    217 H217       -3.4519  -19.6957  -51.0949 H         1 UNK         0.0600 
    218 H218       -3.9790  -19.9995  -49.4485 H         1 UNK         0.0600 
    219 H219       -5.1466  -19.5333  -50.6880 H         1 UNK         0.0600 
    220 H220       -6.2674  -23.0715  -52.0085 H         1 UNK         0.3000 
    221 H221       -6.1725  -21.9606  -54.6419 H         1 UNK         0.0600 
    222 H222       -7.3986  -24.6056  -53.7082 H         1 UNK         0.0600 
    223 H223       -8.2014  -23.0368  -53.6168 H         1 UNK         0.0600 
    224 H224       -7.7914  -23.7292  -55.1797 H         1 UNK         0.0600 
    225 H225       -4.3616  -24.5650  -53.1014 H         1 UNK         0.3000 
    226 H226       -3.3059  -25.5585  -55.6961 H         1 UNK         0.0600 
    227 H227       -4.0265  -27.2113  -53.9692 H         1 UNK         0.0600 
    228 H228       -2.3114  -27.3370  -54.3241 H         1 UNK         0.0600 
    229 H229       -2.8419  -26.5581  -52.8430 H         1 UNK         0.0600 
    230 H230       -2.6392  -22.9731  -53.7126 H         1 UNK         0.3000 
    231 H231        0.3177  -23.0637  -54.1429 H         1 UNK         0.0600 
    232 H232       -1.2995  -21.3044  -52.2213 H         1 UNK         0.0600 
    233 H233        0.4605  -21.3760  -52.3807 H         1 UNK         0.0600 
    234 H234       -0.4040  -22.7532  -51.7661 H         1 UNK         0.0600 
    235 H235        0.3442  -20.1136  -53.8377 H         1 UNK         0.3000 
    236 H236        0.4154  -19.3695  -56.5362 H         1 UNK         0.0600 
    237 H237        1.7519  -18.2994  -54.7153 H         1 UNK         0.0600 
    238 H238        0.8562  -17.0946  -55.6270 H         1 UNK         0.0600 
    239 H239        0.2824  -17.5907  -54.0430 H         1 UNK         0.0600 
    240 H240       -2.2745  -19.2444  -54.3069 H         1 UNK         0.3000 
    241 H241       -3.9490  -17.6351  -56.1462 H         1 UNK         0.0600 
    242 H242       -3.0516  -20.8400  -56.2632 H         1 UNK         0.3800 
    243 H243       -4.5777  -21.4898  -56.7918 H         1 UNK         0.3800 
    244 H244       -5.6494  -17.7974  -54.2541 H         1 UNK         0.0800 
    245 H245       -4.4316  -18.5854  -53.2893 H         1 UNK         0.0800 
    246 H246       -3.8229  -15.5789  -51.3716 H         1 UNK         0.0800 
    247 H247       -3.8358  -17.3097  -51.5021 H         1 UNK         0.0800 
@<TRIPOS>BOND
     1    1    2 1    
     2    1  127 1    
     3    1  128 1    
     4    1  129 1    
     5    2    3 2    
     6    2    4 am   BACKBONE|DICT|INTERRES
     7    4    5 1    
     8    4  130 1    
     9    5    6 1    
    10    5   65 1    
    11    5  131 1    
    12    6    7 1    
    13    6  132 1    
    14    6  133 1    
    15    7    8 1    
    16    8    9 1    
    17    8  134 1    
    18    8  135 1    
    19    9   10 ar   
    20    9   14 ar   
    21   10   11 ar   
    22   10  136 1    
    23   11   12 ar   
    24   11  126 1    
    25   12   13 ar   
    26   12  137 1    
    27   13   14 ar   
    28   13   15 1    
    29   14  138 1    
    30   15   16 1    
    31   15  139 1    
    32   15  140 1    
    33   16   17 1    
    34   17   18 1    
    35   17  141 1    
    36   17  142 1    
    37   18   19 1    
    38   18   67 1    
    39   18  143 1    
    40   19   20 am   BACKBONE|DICT|INTERRES
    41   19  144 1    
    42   20   21 2    
    43   20   22 1    
    44   22   23 1    
    45   22   24 1    
    46   22  145 1    
    47   23  146 1    
    48   23  147 1    
    49   23  148 1    
    50   24   25 am   BACKBONE|DICT|INTERRES
    51   24  149 1    
    52   25   26 2    
    53   25   27 1    
    54   27   28 1    
    55   27   29 1    
    56   27  150 1    
    57   28  151 1    
    58   28  152 1    
    59   28  153 1    
    60   29   30 am   BACKBONE|DICT|INTERRES
    61   29  154 1    
    62   30   31 2    
    63   30   32 1    
    64   32   33 1    
    65   32   34 1    
    66   32  155 1    
    67   33  156 1    
    68   33  157 1    
    69   33  158 1    
    70   34   35 am   BACKBONE|DICT|INTERRES
    71   34  159 1    
    72   35   36 2    
    73   35   37 1    
    74   37   38 1    
    75   37   39 1    
    76   37  160 1    
    77   38  161 1    
    78   38  162 1    
    79   38  163 1    
    80   39   40 am   BACKBONE|DICT|INTERRES
    81   39  164 1    
    82   40   41 2    
    83   40   42 1    
    84   42   43 1    
    85   42   44 1    
    86   42  165 1    
    87   43  166 1    
    88   43  167 1    
    89   43  168 1    
    90   44   45 am   BACKBONE|DICT|INTERRES
    91   44  169 1    
    92   45   46 2    
    93   45   47 1    
    94   47   48 1    
    95   47   49 1    
    96   47  170 1    
    97   48  171 1    
    98   48  172 1    
    99   48  173 1    
   100   49   50 am   BACKBONE|DICT|INTERRES
   101   49  174 1    
   102   50   51 2    
   103   50   52 1    
   104   52   53 1    
   105   52   54 1    
   106   52  175 1    
   107   53  176 1    
   108   53  177 1    
   109   53  178 1    
   110   54   55 am   BACKBONE|DICT|INTERRES
   111   54  179 1    
   112   55   56 2    
   113   55   57 1    
   114   57   58 1    
   115   57   59 1    
   116   57  180 1    
   117   58  181 1    
   118   58  182 1    
   119   58  183 1    
   120   59   60 am   BACKBONE|DICT|INTERRES
   121   59  184 1    
   122   60   61 2    
   123   60   62 1    
   124   62   63 1    
   125   62   64 1    
   126   62  185 1    
   127   63  186 1    
   128   63  187 1    
   129   63  188 1    
   130   64   65 am   BACKBONE|DICT|INTERRES
   131   64  189 1    
   132   65   66 2    
   133   67   68 2    
   134   67   69 am   BACKBONE|DICT|INTERRES
   135   69   70 1    
   136   69  190 1    
   137   70   71 1    
   138   70   72 1    
   139   70  191 1    
   140   71  192 1    
   141   71  193 1    
   142   71  194 1    
   143   72   73 2    
   144   72   74 am   BACKBONE|DICT|INTERRES
   145   74   75 1    
   146   74  195 1    
   147   75   76 1    
   148   75   77 1    
   149   75  196 1    
   150   76  197 1    
   151   76  198 1    
   152   76  199 1    
   153   77   78 2    
   154   77   79 am   BACKBONE|DICT|INTERRES
   155   79   80 1    
   156   79  200 1    
   157   80   81 1    
   158   80   82 1    
   159   80  201 1    
   160   81  202 1    
   161   81  203 1    
   162   81  204 1    
   163   82   83 2    
   164   82   84 am   BACKBONE|DICT|INTERRES
   165   84   85 1    
   166   84  205 1    
   167   85   86 1    
   168   85   87 1    
   169   85  206 1    
   170   86  207 1    
   171   86  208 1    
   172   86  209 1    
   173   87   88 2    
   174   87   89 am   BACKBONE|DICT|INTERRES
   175   89   90 1    
   176   89  210 1    
   177   90   91 1    
   178   90   92 1    
   179   90  211 1    
   180   91  212 1    
   181   91  213 1    
   182   91  214 1    
   183   92   93 2    
   184   92   94 am   BACKBONE|DICT|INTERRES
   185   94   95 1    
   186   94  215 1    
   187   95   96 1    
   188   95   97 1    
   189   95  216 1    
   190   96  217 1    
   191   96  218 1    
   192   96  219 1    
   193   97   98 2    
   194   97   99 am   BACKBONE|DICT|INTERRES
   195   99  100 1    
   196   99  220 1    
   197  100  101 1    
   198  100  102 1    
   199  100  221 1    
   200  101  222 1    
   201  101  223 1    
   202  101  224 1    
   203  102  103 2    
   204  102  104 am   BACKBONE|DICT|INTERRES
   205  104  105 1    
   206  104  225 1    
   207  105  106 1    
   208  105  107 1    
   209  105  226 1    
   210  106  227 1    
   211  106  228 1    
   212  106  229 1    
   213  107  108 2    
   214  107  109 am   BACKBONE|DICT|INTERRES
   215  109  110 1    
   216  109  230 1    
   217  110  111 1    
   218  110  112 1    
   219  110  231 1    
   220  111  232 1    
   221  111  233 1    
   222  111  234 1    
   223  112  113 2    
   224  112  114 am   BACKBONE|DICT|INTERRES
   225  114  115 1    
   226  114  235 1    
   227  115  116 1    
   228  115  117 1    
   229  115  236 1    
   230  116  237 1    
   231  116  238 1    
   232  116  239 1    
   233  117  118 2    
   234  117  119 am   BACKBONE|DICT|INTERRES
   235  119  120 1    
   236  119  240 1    
   237  120  121 1    
   238  120  124 1    
   239  120  241 1    
   240  121  122 am   BACKBONE|DICT|INTERRES
   241  121  123 2    
   242  122  242 1    
   243  122  243 1    
   244  124  125 1    
   245  124  244 1    
   246  124  245 1    
   247  125  126 1    
   248  126  246 1    
   249  126  247 1    
@<TRIPOS>SUBSTRUCTURE
     1 UNK         1 GROUP             0       ****    0 ROOT    
