@<TRIPOS>MOLECULE
3R540
247   249    1
SMALL
USER_CHARGES


@<TRIPOS>ATOM
      1 CA         -1.7819  -13.2233  -45.2403 C.3       0 UNK        -0.1800 
      2 C          -0.7558  -12.6424  -46.2000 C.2       0 UNK         0.5000 
      3 O          -0.8565  -11.4678  -46.5548 O.2       0 UNK        -0.5000 
      4 N           0.2315  -13.4486  -46.6201 N.am      1 UNK        -0.5000 
      5 CA          1.3117  -13.0131  -47.5187 C.3       1 UNK         0.1400 
      6 C6          2.0500  -14.2127  -48.1700 C.3       23 UNK        -0.0398 
      7 S7          2.4966  -13.8743  -49.9071 S.3       23 UNK        -0.2404 
      8 C8          2.4932  -15.5540  -50.6175 C.3       23 UNK        -0.0205 
      9 C9          1.1475  -16.0333  -51.1647 C.ar      23 UNK        -0.0193 
     10 C10         1.1457  -16.8982  -52.2615 C.ar      23 UNK        -0.1150 
     11 C11        -0.0493  -17.4069  -52.7742 C.ar      23 UNK        -0.0193 
     12 C12        -1.2588  -17.0565  -52.1692 C.ar      23 UNK        -0.1150 
     13 C13        -1.2862  -16.1867  -51.0740 C.ar      23 UNK        -0.0193 
     14 C14        -0.0772  -15.6678  -50.5909 C.ar      23 UNK        -0.1150 
     15 C15        -2.6455  -15.8257  -50.4675 C.3       23 UNK        -0.0205 
     16 S16        -2.6258  -15.0947  -48.7873 S.3       23 UNK        -0.2404 
     17 C17        -1.8161  -16.3360  -47.7117 C.3       23 UNK        -0.0398 
     18 CA         -2.0659  -17.8294  -48.0206 C.3       11 UNK         0.1400 
     19 N          -1.1140  -18.6735  -47.3025 N.am      11 UNK        -0.5000 
     20 C          -0.8608  -19.9550  -47.5954 C.2       10 UNK         0.5000 
     21 O          -1.3808  -20.5649  -48.5300 O.2       10 UNK        -0.5000 
     22 CA          0.1171  -20.6865  -46.6607 C.3       10 UNK         0.1400 
     23 CB          1.5659  -20.4322  -47.1020 C.3       10 UNK        -0.1800 
     24 N          -0.0443  -20.3064  -45.2545 N.am      10 UNK        -0.5000 
     25 C          -1.1596  -20.5206  -44.5414 C.2       9 UNK         0.5000 
     26 O          -2.1678  -21.0578  -44.9976 O.2       9 UNK        -0.5000 
     27 CA         -1.1737  -20.0224  -43.0877 C.3       9 UNK         0.1400 
     28 CB         -0.4042  -20.9921  -42.1790 C.3       9 UNK        -0.1800 
     29 N          -0.6503  -18.6654  -42.9239 N.am      9 UNK        -0.5000 
     30 C          -1.1600  -17.5662  -43.4990 C.2       8 UNK         0.5000 
     31 O          -2.0975  -17.5780  -44.2974 O.2       8 UNK        -0.5000 
     32 CA         -0.4784  -16.2312  -43.1552 C.3       8 UNK         0.1400 
     33 CB         -0.7628  -15.8000  -41.7088 C.3       8 UNK        -0.1800 
     34 N           0.9602  -16.2958  -43.3804 N.am      8 UNK        -0.5000 
     35 C           1.5329  -16.3815  -44.5871 C.2       7 UNK         0.5000 
     36 O           0.9167  -16.2576  -45.6476 O.2       7 UNK        -0.5000 
     37 CA          3.0436  -16.6728  -44.6106 C.3       7 UNK         0.1400 
     38 CB          3.8481  -15.3671  -44.5898 C.3       7 UNK        -0.1800 
     39 N           3.4710  -17.5127  -43.4904 N.am      7 UNK        -0.5000 
     40 C           3.1640  -18.8092  -43.3460 C.2       6 UNK         0.5000 
     41 O           2.4862  -19.4473  -44.1504 O.2       6 UNK        -0.5000 
     42 CA          3.6707  -19.4957  -42.0647 C.3       6 UNK         0.1400 
     43 CB          5.1345  -19.9318  -42.2257 C.3       6 UNK        -0.1800 
     44 N           3.5443  -18.6414  -40.8827 N.am      6 UNK        -0.5000 
     45 C           2.3743  -18.2662  -40.3473 C.2       5 UNK         0.5000 
     46 O           1.2795  -18.6191  -40.7827 O.2       5 UNK        -0.5000 
     47 CA          2.4358  -17.2934  -39.1561 C.3       5 UNK         0.1400 
     48 CB          2.6453  -18.0602  -37.8419 C.3       5 UNK        -0.1800 
     49 N           3.4688  -16.2617  -39.2902 N.am      5 UNK        -0.5000 
     50 C           3.5183  -15.3591  -40.2786 C.2       4 UNK         0.5000 
     51 O           2.7445  -15.3530  -41.2379 O.2       4 UNK        -0.5000 
     52 CA          4.6494  -14.3174  -40.2043 C.3       4 UNK         0.1400 
     53 CB          5.8516  -14.7755  -41.0444 C.3       4 UNK        -0.1800 
     54 N           4.2123  -13.0041  -40.6779 N.am      4 UNK        -0.5000 
     55 C           3.2898  -12.2373  -40.0786 C.2       3 UNK         0.5000 
     56 O           2.7635  -12.5223  -39.0016 O.2       3 UNK        -0.5000 
     57 CA          2.8972  -10.9198  -40.7809 C.3       3 UNK         0.1400 
     58 CB          3.5280   -9.7184  -40.0589 C.3       3 UNK        -0.1800 
     59 N           3.2664  -10.8622  -42.1991 N.am      3 UNK        -0.5000 
     60 C           2.6707  -11.5649  -43.1702 C.2       2 UNK         0.5000 
     61 O           1.7335  -12.3447  -42.9757 O.2       2 UNK        -0.5000 
     62 CA          3.2205  -11.3675  -44.5926 C.3       2 UNK         0.1400 
     63 CB          4.7113  -11.7500  -44.6937 C.3       2 UNK        -0.1800 
     64 N           2.4210  -12.1868  -45.4930 N.am      2 UNK        -0.5000 
     65 C           2.3065  -12.0568  -46.8188 C.2       1 UNK         0.5000 
     66 O           2.9295  -11.2248  -47.4797 O.2       1 UNK        -0.5000 
     67 C          -3.5167  -18.2509  -47.7146 C.2       11 UNK         0.5000 
     68 O          -4.3065  -18.4099  -48.6447 O.2       11 UNK        -0.5000 
     69 N          -3.8288  -18.4777  -46.4292 N.am      12 UNK        -0.5000 
     70 CA         -5.1394  -18.9298  -45.9531 C.3       12 UNK         0.1400 
     71 CB         -5.1565  -18.9189  -44.4172 C.3       12 UNK        -0.1800 
     72 C          -5.5349  -20.3173  -46.4927 C.2       12 UNK         0.5000 
     73 O          -6.6923  -20.5220  -46.8595 O.2       12 UNK        -0.5000 
     74 N          -4.5577  -21.2300  -46.5680 N.am      13 UNK        -0.5000 
     75 CA         -4.6979  -22.5565  -47.1685 C.3       13 UNK         0.1400 
     76 CB         -3.5627  -23.4569  -46.6557 C.3       13 UNK        -0.1800 
     77 C          -4.6906  -22.5367  -48.7084 C.2       13 UNK         0.5000 
     78 O          -4.9974  -23.5668  -49.3066 O.2       13 UNK        -0.5000 
     79 N          -4.3141  -21.3989  -49.3158 N.am      14 UNK        -0.5000 
     80 CA         -4.0919  -21.1717  -50.7490 C.3       14 UNK         0.1400 
     81 CB         -5.4327  -21.1335  -51.5070 C.3       14 UNK        -0.1800 
     82 C          -3.1062  -22.1995  -51.3360 C.2       14 UNK         0.5000 
     83 O          -3.4136  -22.8581  -52.3301 O.2       14 UNK        -0.5000 
     84 N          -1.9742  -22.3737  -50.6431 N.am      15 UNK        -0.5000 
     85 CA         -0.9676  -23.4312  -50.7763 C.3       15 UNK         0.1400 
     86 CB         -0.3484  -23.4788  -52.1838 C.3       15 UNK        -0.1800 
     87 C          -1.4712  -24.8196  -50.3369 C.2       15 UNK         0.5000 
     88 O          -0.7861  -25.4789  -49.5538 O.2       15 UNK        -0.5000 
     89 N          -2.6491  -25.2348  -50.8159 N.am      16 UNK        -0.5000 
     90 CA         -3.3083  -26.4834  -50.4577 C.3       16 UNK         0.1400 
     91 CB         -2.6446  -27.6693  -51.1818 C.3       16 UNK        -0.1800 
     92 C          -4.8046  -26.4158  -50.7927 C.2       16 UNK         0.5000 
     93 O          -5.1981  -25.7929  -51.7855 O.2       16 UNK        -0.5000 
     94 N          -5.6027  -27.0971  -49.9581 N.am      17 UNK        -0.5000 
     95 CA         -7.0325  -27.4024  -50.1074 C.3       17 UNK         0.1400 
     96 CB         -7.2348  -28.3442  -51.3134 C.3       17 UNK        -0.1800 
     97 C          -7.9864  -26.1901  -50.1815 C.2       17 UNK         0.5000 
     98 O          -9.1707  -26.3872  -50.4581 O.2       17 UNK        -0.5000 
     99 N          -7.4723  -24.9688  -49.9659 N.am      18 UNK        -0.5000 
    100 CA        -8.1273  -23.6822  -50.2295 C.3       18 UNK         0.1400 
    101 CB        -9.3225  -23.4581  -49.2796 C.3       18 UNK        -0.1800 
    102 C         -8.4897  -23.5056  -51.7218 C.2       18 UNK         0.5000 
    103 O         -9.4629  -22.8167  -52.0345 O.2       18 UNK        -0.5000 
    104 N         -7.7213  -24.1511  -52.6145 N.am      19 UNK        -0.5000 
    105 CA        -8.0621  -24.2822  -54.0308 C.3       19 UNK         0.1400 
    106 CB        -8.9808  -25.5036  -54.2174 C.3       19 UNK        -0.1800 
    107 C         -6.8499  -24.3726  -54.9716 C.2       19 UNK         0.5000 
    108 O         -7.0230  -24.0998  -56.1607 O.2       19 UNK        -0.5000 
    109 N         -5.6624  -24.7588  -54.4760 N.am      20 UNK        -0.5000 
    110 CA        -4.4652  -24.9202  -55.3112 C.3       20 UNK         0.1400 
    111 CB        -3.3759  -25.6659  -54.5279 C.3       20 UNK        -0.1800 
    112 C         -3.9269  -23.5908  -55.8729 C.2       20 UNK         0.5000 
    113 O         -3.4278  -23.5670  -56.9991 O.2       20 UNK        -0.5000 
    114 N         -4.0396  -22.5165  -55.0775 N.am      21 UNK        -0.5000 
    115 CA        -3.6816  -21.1267  -55.3882 C.3       21 UNK         0.1400 
    116 CB        -4.6790  -20.5383  -56.4063 C.3       21 UNK        -0.1800 
    117 C         -2.2097  -20.9546  -55.8197 C.2       21 UNK         0.5000 
    118 O         -1.9068  -20.1210  -56.6750 O.2       21 UNK        -0.5000 
    119 N         -1.3310  -21.7717  -55.2252 N.am      22 UNK        -0.5000 
    120 CA         0.1000  -21.9070  -55.5505 C.3       22 UNK         0.1400 
    121 C          0.3930  -22.5494  -56.9432 C.2       22 UNK         0.5000 
    122 N         -0.5765  -23.1436  -57.6300 N.am      22 UNK        -0.7600 
    123 O          1.5324  -22.5424  -57.4017 O.2       22 UNK        -0.5000 
    124 C124        0.9194  -20.6049  -55.3195 C.3       23 UNK        -0.0398 
    125 S125        0.7426  -19.9186  -53.6352 S.3       23 UNK        -0.2404 
    126 C126       -0.0226  -18.3087  -53.9988 C.3       23 UNK        -0.0205 
    127 H127       -2.7419  -12.7210  -45.3604 H         1 UNK         0.0600 
    128 H128       -1.4519  -13.0881  -44.2101 H         1 UNK         0.0600 
    129 H129       -1.9404  -14.2831  -45.4229 H         1 UNK         0.0600 
    130 H130        0.2858  -14.4064  -46.2890 H         1 UNK         0.3000 
    131 H131        0.8305  -12.4367  -48.3124 H         1 UNK         0.0600 
    132 H132        2.9549  -14.4865  -47.6269 H         1 UNK         0.0800 
    133 H133        1.4270  -15.1060  -48.1421 H         1 UNK         0.0800 
    134 H134        3.2321  -15.5612  -51.4204 H         1 UNK         0.0800 
    135 H135        2.8493  -16.2686  -49.8743 H         1 UNK         0.0800 
    136 H136        2.0811  -17.1848  -52.7218 H         1 UNK         0.1150 
    137 H137       -2.1857  -17.4512  -52.5615 H         1 UNK         0.1150 
    138 H138       -0.0913  -14.9766  -49.7649 H         1 UNK         0.1150 
    139 H139       -3.1237  -15.1063  -51.1331 H         1 UNK         0.0800 
    140 H140       -3.2954  -16.7013  -50.4646 H         1 UNK         0.0800 
    141 H141       -2.0910  -16.1227  -46.6792 H         1 UNK         0.0800 
    142 H142       -0.7463  -16.1388  -47.7698 H         1 UNK         0.0800 
    143 H143       -1.8867  -18.0050  -49.0815 H         1 UNK         0.0600 
    144 H144       -0.6568  -18.2624  -46.5002 H         1 UNK         0.3000 
    145 H145       -0.0841  -21.7565  -46.7440 H         1 UNK         0.0600 
    146 H146        1.7121  -20.7091  -48.1469 H         1 UNK         0.0600 
    147 H147        1.8394  -19.3813  -46.9973 H         1 UNK         0.0600 
    148 H148        2.2665  -21.0202  -46.5089 H         1 UNK         0.0600 
    149 H149        0.7631  -19.8852  -44.8005 H         1 UNK         0.3000 
    150 H150       -2.2144  -20.0093  -42.7580 H         1 UNK         0.0600 
    151 H151       -0.7801  -22.0106  -42.2844 H         1 UNK         0.0600 
    152 H152       -0.5089  -20.7153  -41.1298 H         1 UNK         0.0600 
    153 H153        0.6598  -21.0070  -42.4170 H         1 UNK         0.0600 
    154 H154        0.1187  -18.5627  -42.2663 H         1 UNK         0.3000 
    155 H155       -0.8892  -15.4690  -43.8140 H         1 UNK         0.0600 
    156 H156       -1.8354  -15.7129  -41.5323 H         1 UNK         0.0600 
    157 H157       -0.3164  -14.8279  -41.4966 H         1 UNK         0.0600 
    158 H158       -0.3671  -16.5115  -40.9846 H         1 UNK         0.0600 
    159 H159        1.5564  -16.3009  -42.5592 H         1 UNK         0.3000 
    160 H160        3.2668  -17.2016  -45.5396 H         1 UNK         0.0600 
    161 H161        3.6265  -14.7724  -43.7032 H         1 UNK         0.0600 
    162 H162        3.6182  -14.7534  -45.4583 H         1 UNK         0.0600 
    163 H163        4.9206  -15.5609  -44.6076 H         1 UNK         0.0600 
    164 H164        3.9809  -17.0535  -42.7510 H         1 UNK         0.3000 
    165 H165        3.0652  -20.3902  -41.9045 H         1 UNK         0.0600 
    166 H166        5.4777  -20.4885  -41.3535 H         1 UNK         0.0600 
    167 H167        5.2540  -20.5827  -43.0929 H         1 UNK         0.0600 
    168 H168        5.7989  -19.0777  -42.3620 H         1 UNK         0.0600 
    169 H169        4.3983  -18.3031  -40.4645 H         1 UNK         0.3000 
    170 H170        1.4707  -16.7851  -39.1017 H         1 UNK         0.0600 
    171 H171        1.8779  -18.8240  -37.7091 H         1 UNK         0.0600 
    172 H172        3.6143  -18.5603  -37.8162 H         1 UNK         0.0600 
    173 H173        2.5885  -17.3924  -36.9821 H         1 UNK         0.0600 
    174 H174        4.1499  -16.2109  -38.5463 H         1 UNK         0.3000 
    175 H175        4.9675  -14.2140  -39.1649 H         1 UNK         0.0600 
    176 H176        5.5957  -14.8673  -42.1003 H         1 UNK         0.0600 
    177 H177        6.6807  -14.0725  -40.9615 H         1 UNK         0.0600 
    178 H178        6.2172  -15.7470  -40.7094 H         1 UNK         0.0600 
    179 H179        4.5733  -12.7008  -41.5687 H         1 UNK         0.3000 
    180 H180        1.8114  -10.8275  -40.7082 H         1 UNK         0.0600 
    181 H181        4.6173   -9.7464  -40.1079 H         1 UNK         0.0600 
    182 H182        3.2474   -9.7032  -39.0048 H         1 UNK         0.0600 
    183 H183        3.1951   -8.7762  -40.4946 H         1 UNK         0.0600 
    184 H184        4.0249  -10.2396  -42.4379 H         1 UNK         0.3000 
    185 H185        3.0907  -10.3178  -44.8630 H         1 UNK         0.0600 
    186 H186        5.3315  -11.0812  -44.0965 H         1 UNK         0.0600 
    187 H187        4.8956  -12.7646  -44.3429 H         1 UNK         0.0600 
    188 H188        5.0725  -11.6828  -45.7199 H         1 UNK         0.0600 
    189 H189        1.8128  -12.8345  -45.0061 H         1 UNK         0.3000 
    190 H190       -3.1281  -18.3040  -45.7125 H         1 UNK         0.3000 
    191 H191       -5.8839  -18.2136  -46.3066 H         1 UNK         0.0600 
    192 H192       -4.4081  -19.5946  -44.0023 H         1 UNK         0.0600 
    193 H193       -4.9569  -17.9203  -44.0279 H         1 UNK         0.0600 
    194 H194       -6.1294  -19.2294  -44.0342 H         1 UNK         0.0600 
    195 H195       -3.6468  -21.0083  -46.1724 H         1 UNK         0.3000 
    196 H196       -5.6489  -22.9881  -46.8500 H         1 UNK         0.0600 
    197 H197       -3.5749  -23.5271  -45.5679 H         1 UNK         0.0600 
    198 H198       -2.5849  -23.0778  -46.9565 H         1 UNK         0.0600 
    199 H199       -3.6557  -24.4705  -47.0481 H         1 UNK         0.0600 
    200 H200       -4.0958  -20.6073  -48.7248 H         1 UNK         0.3000 
    201 H201       -3.6226  -20.1911  -50.8406 H         1 UNK         0.0600 
    202 H202       -5.2944  -20.7700  -52.5251 H         1 UNK         0.0600 
    203 H203       -6.1478  -20.4718  -51.0182 H         1 UNK         0.0600 
    204 H204       -5.8780  -22.1242  -51.5764 H         1 UNK         0.0600 
    205 H205       -1.8340  -21.7635  -49.8389 H         1 UNK         0.3000 
    206 H206       -0.1713  -23.1532  -50.0838 H         1 UNK         0.0600 
    207 H207        0.0402  -22.5023  -52.4656 H         1 UNK         0.0600 
    208 H208       -1.0649  -23.7943  -52.9414 H         1 UNK         0.0600 
    209 H209        0.4847  -24.1816  -52.2159 H         1 UNK         0.0600 
    210 H210       -3.1837  -24.6142  -51.4185 H         1 UNK         0.3000 
    211 H211       -3.2094  -26.6238  -49.3791 H         1 UNK         0.0600 
    212 H212       -1.6059  -27.7931  -50.8759 H         1 UNK         0.0600 
    213 H213       -3.1592  -28.6045  -50.9575 H         1 UNK         0.0600 
    214 H214       -2.6593  -27.5379  -52.2634 H         1 UNK         0.0600 
    215 H215       -5.1693  -27.5322  -49.1557 H         1 UNK         0.3000 
    216 H216       -7.3186  -27.9499  -49.2084 H         1 UNK         0.0600 
    217 H217       -8.2629  -28.7041  -51.3680 H         1 UNK         0.0600 
    218 H218       -7.0138  -27.8441  -52.2570 H         1 UNK         0.0600 
    219 H219       -6.5919  -29.2215  -51.2412 H         1 UNK         0.0600 
    220 H220       -6.4814  -24.8947  -49.7562 H         1 UNK         0.3000 
    221 H221       -7.3993  -22.9054  -50.0033 H         1 UNK         0.0600 
    222 H222       -9.0313  -23.6063  -48.2397 H         1 UNK         0.0600 
    223 H223       -9.7020  -22.4393  -49.3658 H         1 UNK         0.0600 
    224 H224      -10.1508  -24.1325  -49.4973 H         1 UNK         0.0600 
    225 H225       -6.9303  -24.6874  -52.2756 H         1 UNK         0.3000 
    226 H226       -8.6102  -23.3924  -54.3481 H         1 UNK         0.0600 
    227 H227       -9.9057  -25.3941  -53.6507 H         1 UNK         0.0600 
    228 H228       -9.2571  -25.6340  -55.2645 H         1 UNK         0.0600 
    229 H229       -8.4945  -26.4221  -53.8871 H         1 UNK         0.0600 
    230 H230       -5.5595  -25.0042  -53.4960 H         1 UNK         0.3000 
    231 H231       -4.7373  -25.5430  -56.1661 H         1 UNK         0.0600 
    232 H232       -2.4805  -25.8053  -55.1348 H         1 UNK         0.0600 
    233 H233       -3.7226  -26.6541  -54.2268 H         1 UNK         0.0600 
    234 H234       -3.0824  -25.1258  -53.6294 H         1 UNK         0.0600 
    235 H235       -4.3355  -22.6849  -54.1215 H         1 UNK         0.3000 
    236 H236       -3.7873  -20.5668  -54.4585 H         1 UNK         0.0600 
    237 H237       -5.7069  -20.6575  -56.0634 H         1 UNK         0.0600 
    238 H238       -4.5083  -19.4712  -56.5531 H         1 UNK         0.0600 
    239 H239       -4.5928  -21.0223  -57.3798 H         1 UNK         0.0600 
    240 H240       -1.6888  -22.4169  -54.5359 H         1 UNK         0.3000 
    241 H241        0.4805  -22.6440  -54.8440 H         1 UNK         0.0600 
    242 H242       -0.3592  -23.5609  -58.5209 H         1 UNK         0.3800 
    243 H243       -1.5329  -23.1713  -57.2906 H         1 UNK         0.3800 
    244 H244        1.9827  -20.7998  -55.4678 H         1 UNK         0.0800 
    245 H245        0.6533  -19.8514  -56.0616 H         1 UNK         0.0800 
    246 H246        0.5390  -17.8077  -54.7887 H         1 UNK         0.0800 
    247 H247       -1.0293  -18.4684  -54.3871 H         1 UNK         0.0800 
@<TRIPOS>BOND
     1    1    2 1    
     2    1  127 1    
     3    1  128 1    
     4    1  129 1    
     5    2    3 2    
     6    2    4 am   BACKBONE|DICT|INTERRES
     7    4    5 1    
     8    4  130 1    
     9    5    6 1    
    10    5   65 1    
    11    5  131 1    
    12    6    7 1    
    13    6  132 1    
    14    6  133 1    
    15    7    8 1    
    16    8    9 1    
    17    8  134 1    
    18    8  135 1    
    19    9   10 ar   
    20    9   14 ar   
    21   10   11 ar   
    22   10  136 1    
    23   11   12 ar   
    24   11  126 1    
    25   12   13 ar   
    26   12  137 1    
    27   13   14 ar   
    28   13   15 1    
    29   14  138 1    
    30   15   16 1    
    31   15  139 1    
    32   15  140 1    
    33   16   17 1    
    34   17   18 1    
    35   17  141 1    
    36   17  142 1    
    37   18   19 1    
    38   18   67 1    
    39   18  143 1    
    40   19   20 am   BACKBONE|DICT|INTERRES
    41   19  144 1    
    42   20   21 2    
    43   20   22 1    
    44   22   23 1    
    45   22   24 1    
    46   22  145 1    
    47   23  146 1    
    48   23  147 1    
    49   23  148 1    
    50   24   25 am   BACKBONE|DICT|INTERRES
    51   24  149 1    
    52   25   26 2    
    53   25   27 1    
    54   27   28 1    
    55   27   29 1    
    56   27  150 1    
    57   28  151 1    
    58   28  152 1    
    59   28  153 1    
    60   29   30 am   BACKBONE|DICT|INTERRES
    61   29  154 1    
    62   30   31 2    
    63   30   32 1    
    64   32   33 1    
    65   32   34 1    
    66   32  155 1    
    67   33  156 1    
    68   33  157 1    
    69   33  158 1    
    70   34   35 am   BACKBONE|DICT|INTERRES
    71   34  159 1    
    72   35   36 2    
    73   35   37 1    
    74   37   38 1    
    75   37   39 1    
    76   37  160 1    
    77   38  161 1    
    78   38  162 1    
    79   38  163 1    
    80   39   40 am   BACKBONE|DICT|INTERRES
    81   39  164 1    
    82   40   41 2    
    83   40   42 1    
    84   42   43 1    
    85   42   44 1    
    86   42  165 1    
    87   43  166 1    
    88   43  167 1    
    89   43  168 1    
    90   44   45 am   BACKBONE|DICT|INTERRES
    91   44  169 1    
    92   45   46 2    
    93   45   47 1    
    94   47   48 1    
    95   47   49 1    
    96   47  170 1    
    97   48  171 1    
    98   48  172 1    
    99   48  173 1    
   100   49   50 am   BACKBONE|DICT|INTERRES
   101   49  174 1    
   102   50   51 2    
   103   50   52 1    
   104   52   53 1    
   105   52   54 1    
   106   52  175 1    
   107   53  176 1    
   108   53  177 1    
   109   53  178 1    
   110   54   55 am   BACKBONE|DICT|INTERRES
   111   54  179 1    
   112   55   56 2    
   113   55   57 1    
   114   57   58 1    
   115   57   59 1    
   116   57  180 1    
   117   58  181 1    
   118   58  182 1    
   119   58  183 1    
   120   59   60 am   BACKBONE|DICT|INTERRES
   121   59  184 1    
   122   60   61 2    
   123   60   62 1    
   124   62   63 1    
   125   62   64 1    
   126   62  185 1    
   127   63  186 1    
   128   63  187 1    
   129   63  188 1    
   130   64   65 am   BACKBONE|DICT|INTERRES
   131   64  189 1    
   132   65   66 2    
   133   67   68 2    
   134   67   69 am   BACKBONE|DICT|INTERRES
   135   69   70 1    
   136   69  190 1    
   137   70   71 1    
   138   70   72 1    
   139   70  191 1    
   140   71  192 1    
   141   71  193 1    
   142   71  194 1    
   143   72   73 2    
   144   72   74 am   BACKBONE|DICT|INTERRES
   145   74   75 1    
   146   74  195 1    
   147   75   76 1    
   148   75   77 1    
   149   75  196 1    
   150   76  197 1    
   151   76  198 1    
   152   76  199 1    
   153   77   78 2    
   154   77   79 am   BACKBONE|DICT|INTERRES
   155   79   80 1    
   156   79  200 1    
   157   80   81 1    
   158   80   82 1    
   159   80  201 1    
   160   81  202 1    
   161   81  203 1    
   162   81  204 1    
   163   82   83 2    
   164   82   84 am   BACKBONE|DICT|INTERRES
   165   84   85 1    
   166   84  205 1    
   167   85   86 1    
   168   85   87 1    
   169   85  206 1    
   170   86  207 1    
   171   86  208 1    
   172   86  209 1    
   173   87   88 2    
   174   87   89 am   BACKBONE|DICT|INTERRES
   175   89   90 1    
   176   89  210 1    
   177   90   91 1    
   178   90   92 1    
   179   90  211 1    
   180   91  212 1    
   181   91  213 1    
   182   91  214 1    
   183   92   93 2    
   184   92   94 am   BACKBONE|DICT|INTERRES
   185   94   95 1    
   186   94  215 1    
   187   95   96 1    
   188   95   97 1    
   189   95  216 1    
   190   96  217 1    
   191   96  218 1    
   192   96  219 1    
   193   97   98 2    
   194   97   99 am   BACKBONE|DICT|INTERRES
   195   99  100 1    
   196   99  220 1    
   197  100  101 1    
   198  100  102 1    
   199  100  221 1    
   200  101  222 1    
   201  101  223 1    
   202  101  224 1    
   203  102  103 2    
   204  102  104 am   BACKBONE|DICT|INTERRES
   205  104  105 1    
   206  104  225 1    
   207  105  106 1    
   208  105  107 1    
   209  105  226 1    
   210  106  227 1    
   211  106  228 1    
   212  106  229 1    
   213  107  108 2    
   214  107  109 am   BACKBONE|DICT|INTERRES
   215  109  110 1    
   216  109  230 1    
   217  110  111 1    
   218  110  112 1    
   219  110  231 1    
   220  111  232 1    
   221  111  233 1    
   222  111  234 1    
   223  112  113 2    
   224  112  114 am   BACKBONE|DICT|INTERRES
   225  114  115 1    
   226  114  235 1    
   227  115  116 1    
   228  115  117 1    
   229  115  236 1    
   230  116  237 1    
   231  116  238 1    
   232  116  239 1    
   233  117  118 2    
   234  117  119 am   BACKBONE|DICT|INTERRES
   235  119  120 1    
   236  119  240 1    
   237  120  121 1    
   238  120  124 1    
   239  120  241 1    
   240  121  122 am   BACKBONE|DICT|INTERRES
   241  121  123 2    
   242  122  242 1    
   243  122  243 1    
   244  124  125 1    
   245  124  244 1    
   246  124  245 1    
   247  125  126 1    
   248  126  246 1    
   249  126  247 1    
@<TRIPOS>SUBSTRUCTURE
     1 UNK         1 GROUP             0       ****    0 ROOT    
