@<TRIPOS>MOLECULE
3R540
247   249    1
SMALL
USER_CHARGES


@<TRIPOS>ATOM
      1 CA          2.1641  -11.2550  -45.8283 C.3       0 UNK        -0.1800 
      2 C           1.1007  -12.3505  -45.8548 C.2       0 UNK         0.5000 
      3 O           1.4202  -13.4833  -46.2001 O.2       0 UNK        -0.5000 
      4 N          -0.1691  -12.0639  -45.5312 N.am      1 UNK        -0.5000 
      5 CA         -0.7306  -10.7199  -45.3241 C.3       1 UNK         0.1400 
      6 C6         -2.0117  -10.7451  -44.4508 C.3       23 UNK        -0.0398 
      7 S7         -3.4375  -11.6170  -45.1913 S.3       23 UNK        -0.2404 
      8 C8         -3.3549  -13.2720  -44.4142 C.3       23 UNK        -0.0205 
      9 C9         -3.4482  -14.4576  -45.3793 C.ar      23 UNK        -0.0193 
     10 C10        -3.6974  -14.3091  -46.7497 C.ar      23 UNK        -0.1150 
     11 C11        -3.7296  -15.4161  -47.6023 C.ar      23 UNK        -0.0193 
     12 C12        -3.5456  -16.6960  -47.0716 C.ar      23 UNK        -0.1150 
     13 C13        -3.3222  -16.8676  -45.7019 C.ar      23 UNK        -0.0193 
     14 C14        -3.2719  -15.7464  -44.8673 C.ar      23 UNK        -0.1150 
     15 C15        -3.1269  -18.2595  -45.1205 C.3       23 UNK        -0.0205 
     16 S16        -4.6831  -19.1962  -45.1251 S.3       23 UNK        -0.2404 
     17 C17        -4.3315  -20.5430  -43.9464 C.3       23 UNK        -0.0398 
     18 CA         -3.9715  -21.8650  -44.6649 C.3       11 UNK         0.1400 
     19 N          -2.5855  -21.8720  -45.1494 N.am      11 UNK        -0.5000 
     20 C          -2.0690  -22.8188  -45.9451 C.2       10 UNK         0.5000 
     21 O          -2.7299  -23.7475  -46.4044 O.2       10 UNK        -0.5000 
     22 CA         -0.5629  -22.7685  -46.2462 C.3       10 UNK         0.1400 
     23 CB         -0.3286  -22.1146  -47.6114 C.3       10 UNK        -0.1800 
     24 N           0.2395  -22.0894  -45.2270 N.am      10 UNK        -0.5000 
     25 C           0.3073  -22.4345  -43.9303 C.2       9 UNK         0.5000 
     26 O          -0.3321  -23.3679  -43.4427 O.2       9 UNK        -0.5000 
     27 CA          1.1996  -21.5745  -43.0154 C.3       9 UNK         0.1400 
     28 CB          2.5345  -22.2846  -42.7546 C.3       9 UNK        -0.1800 
     29 N           1.4360  -20.2308  -43.5554 N.am      9 UNK        -0.5000 
     30 C           0.4779  -19.2941  -43.6397 C.2       8 UNK         0.5000 
     31 O          -0.6630  -19.4720  -43.2108 O.2       8 UNK        -0.5000 
     32 CA          0.7905  -17.9840  -44.3867 C.3       8 UNK         0.1400 
     33 CB          0.3059  -16.7326  -43.6236 C.3       8 UNK        -0.1800 
     34 N           2.1774  -17.8594  -44.8449 N.am      8 UNK        -0.5000 
     35 C           3.2695  -17.5531  -44.1293 C.2       7 UNK         0.5000 
     36 O           3.2590  -17.3032  -42.9233 O.2       7 UNK        -0.5000 
     37 CA          4.6029  -17.5575  -44.9127 C.3       7 UNK         0.1400 
     38 CB          5.8439  -17.5696  -43.9955 C.3       7 UNK        -0.1800 
     39 N           4.6786  -18.6415  -45.9020 N.am      7 UNK        -0.5000 
     40 C           4.5609  -19.9566  -45.6584 C.2       6 UNK         0.5000 
     41 O           4.4251  -20.4261  -44.5292 O.2       6 UNK        -0.5000 
     42 CA          4.5373  -20.8895  -46.8905 C.3       6 UNK         0.1400 
     43 CB          3.9217  -22.2705  -46.5804 C.3       6 UNK        -0.1800 
     44 N           3.8766  -20.2964  -48.0612 N.am      6 UNK        -0.5000 
     45 C           2.6281  -19.8119  -48.1187 C.2       5 UNK         0.5000 
     46 O           1.8513  -19.7795  -47.1587 O.2       5 UNK        -0.5000 
     47 CA          2.1815  -19.2659  -49.4861 C.3       5 UNK         0.1400 
     48 CB          1.5206  -20.3656  -50.3311 C.3       5 UNK        -0.1800 
     49 N           1.2477  -18.1531  -49.3308 N.am      5 UNK        -0.5000 
     50 C           1.5992  -16.9324  -48.9118 C.2       4 UNK         0.5000 
     51 O           2.7584  -16.6111  -48.6355 O.2       4 UNK        -0.5000 
     52 CA          0.4531  -15.9187  -48.7446 C.3       4 UNK         0.1400 
     53 CB         -0.1629  -16.0462  -47.3483 C.3       4 UNK        -0.1800 
     54 N           0.9212  -14.5490  -48.9341 N.am      4 UNK        -0.5000 
     55 C           1.2388  -14.0268  -50.1257 C.2       3 UNK         0.5000 
     56 O           1.0724  -14.6223  -51.1937 O.2       3 UNK        -0.5000 
     57 CA          1.8320  -12.6040  -50.0980 C.3       3 UNK         0.1400 
     58 CB          2.3755  -12.1406  -51.4666 C.3       3 UNK        -0.1800 
     59 N           0.8928  -11.6291  -49.5304 N.am      3 UNK        -0.5000 
     60 C          -0.2753  -11.2094  -50.0441 C.2       2 UNK         0.5000 
     61 O          -0.7021  -11.5364  -51.1511 O.2       2 UNK        -0.5000 
     62 CA         -1.1019  -10.2688  -49.1446 C.3       2 UNK         0.1400 
     63 CB         -2.5741  -10.1363  -49.5779 C.3       2 UNK        -0.1800 
     64 N          -1.0361  -10.7388  -47.7631 N.am      2 UNK        -0.5000 
     65 C          -0.9384   -9.9758  -46.6664 C.2       1 UNK         0.5000 
     66 O          -0.9561   -8.7448  -46.6839 O.2       1 UNK        -0.5000 
     67 C          -4.3109  -23.0911  -43.7868 C.2       11 UNK         0.5000 
     68 O          -5.4730  -23.4978  -43.7594 O.2       11 UNK        -0.5000 
     69 N          -3.3046  -23.6745  -43.1223 N.am      12 UNK        -0.5000 
     70 CA         -3.4241  -24.9316  -42.3883 C.3       12 UNK         0.1400 
     71 CB         -2.7214  -24.7876  -41.0287 C.3       12 UNK        -0.1800 
     72 C          -2.8146  -26.0956  -43.1874 C.2       12 UNK         0.5000 
     73 O          -3.4107  -27.1715  -43.2449 O.2       12 UNK        -0.5000 
     74 N          -1.6270  -25.8716  -43.7648 N.am      13 UNK        -0.5000 
     75 CA         -0.7797  -26.9206  -44.3282 C.3       13 UNK         0.1400 
     76 CB          0.6782  -26.4324  -44.3103 C.3       13 UNK        -0.1800 
     77 C          -1.1605  -27.3805  -45.7466 C.2       13 UNK         0.5000 
     78 O          -0.8217  -28.5102  -46.1033 O.2       13 UNK        -0.5000 
     79 N          -1.7982  -26.5159  -46.5487 N.am      14 UNK        -0.5000 
     80 CA         -1.9430  -26.7250  -47.9942 C.3       14 UNK         0.1400 
     81 CB         -0.6843  -26.1930  -48.7066 C.3       14 UNK        -0.1800 
     82 C          -3.2508  -26.1523  -48.5735 C.2       14 UNK         0.5000 
     83 O          -3.3226  -25.9090  -49.7779 O.2       14 UNK        -0.5000 
     84 N          -4.2677  -25.9753  -47.7175 N.am      15 UNK        -0.5000 
     85 CA         -5.6268  -25.5228  -48.0395 C.3       15 UNK         0.1400 
     86 CB         -6.3880  -26.6129  -48.8230 C.3       15 UNK        -0.1800 
     87 C          -5.6993  -24.1270  -48.7019 C.2       15 UNK         0.5000 
     88 O          -6.4929  -23.9160  -49.6223 O.2       15 UNK        -0.5000 
     89 N          -4.8914  -23.1889  -48.1872 N.am      16 UNK        -0.5000 
     90 CA         -4.8757  -21.7569  -48.5032 C.3       16 UNK         0.1400 
     91 CB         -6.1611  -21.0792  -47.9710 C.3       16 UNK        -0.1800 
     92 C          -4.6131  -21.4860  -49.9978 C.2       16 UNK         0.5000 
     93 O          -3.5054  -21.7365  -50.4733 O.2       16 UNK        -0.5000 
     94 N          -5.6289  -20.9855  -50.7152 N.am      17 UNK        -0.5000 
     95 CA         -5.5921  -20.6264  -52.1347 C.3       17 UNK         0.1400 
     96 CB         -6.9420  -20.0087  -52.5273 C.3       17 UNK        -0.1800 
     97 C          -5.2367  -21.7910  -53.0792 C.2       17 UNK         0.5000 
     98 O          -4.7405  -21.5386  -54.1769 O.2       17 UNK        -0.5000 
     99 N          -5.4339  -23.0401  -52.6314 N.am      18 UNK        -0.5000 
    100 CA        -4.9983  -24.2524  -53.3309 C.3       18 UNK         0.1400 
    101 CB        -5.5808  -25.4796  -52.6186 C.3       18 UNK        -0.1800 
    102 C         -3.4632  -24.3714  -53.4601 C.2       18 UNK         0.5000 
    103 O         -2.9868  -25.0404  -54.3775 O.2       18 UNK        -0.5000 
    104 N         -2.7184  -23.6881  -52.5789 N.am      19 UNK        -0.5000 
    105 CA        -1.2613  -23.5526  -52.6260 C.3       19 UNK         0.1400 
    106 CB        -0.7484  -23.3814  -51.1882 C.3       19 UNK        -0.1800 
    107 C         -0.8041  -22.3612  -53.4947 C.2       19 UNK         0.5000 
    108 O          0.3928  -22.0754  -53.5307 O.2       19 UNK        -0.5000 
    109 N         -1.7553  -21.6635  -54.1369 N.am      20 UNK        -0.5000 
    110 CA        -1.6026  -20.4096  -54.8834 C.3       20 UNK         0.1400 
    111 CB        -0.6302  -20.5640  -56.0718 C.3       20 UNK        -0.1800 
    112 C         -1.2692  -19.2055  -53.9768 C.2       20 UNK         0.5000 
    113 O         -0.7084  -18.2154  -54.4530 O.2       20 UNK        -0.5000 
    114 N         -1.6405  -19.2966  -52.6893 N.am      21 UNK        -0.5000 
    115 CA        -1.4969  -18.2359  -51.6941 C.3       21 UNK         0.1400 
    116 CB        -1.9912  -18.7468  -50.3292 C.3       21 UNK        -0.1800 
    117 C         -2.2760  -16.9762  -52.1046 C.2       21 UNK         0.5000 
    118 O         -3.4739  -17.0722  -52.3802 O.2       21 UNK        -0.5000 
    119 N         -1.5796  -15.8349  -52.1370 N.am      22 UNK        -0.5000 
    120 CA        -2.1144  -14.5151  -52.5102 C.3       22 UNK         0.1400 
    121 C         -2.4956  -14.3718  -54.0163 C.2       22 UNK         0.5000 
    122 N         -2.0799  -15.2761  -54.8972 N.am      22 UNK        -0.7600 
    123 O         -3.1546  -13.4110  -54.4050 O.2       22 UNK        -0.5000 
    124 C124       -3.2344  -14.0133  -51.5543 C.3       23 UNK        -0.0398 
    125 S125       -2.7326  -14.0657  -49.7996 S.3       23 UNK        -0.2404 
    126 C126       -3.9560  -15.2159  -49.0941 C.3       23 UNK        -0.0205 
    127 H127        2.2501  -10.8257  -44.8303 H         1 UNK         0.0600 
    128 H128        1.9353  -10.4593  -46.5362 H         1 UNK         0.0600 
    129 H129        3.1382  -11.6653  -46.0953 H         1 UNK         0.0600 
    130 H130       -0.8449  -12.8143  -45.5252 H         1 UNK         0.3000 
    131 H131       -0.0015  -10.1334  -44.7628 H         1 UNK         0.0600 
    132 H132       -2.3283   -9.7222  -44.2395 H         1 UNK         0.0800 
    133 H133       -1.7857  -11.1771  -43.4753 H         1 UNK         0.0800 
    134 H134       -4.1658  -13.3477  -43.6886 H         1 UNK         0.0800 
    135 H135       -2.4281  -13.3667  -43.8473 H         1 UNK         0.0800 
    136 H136       -3.8492  -13.3315  -47.1815 H         1 UNK         0.1150 
    137 H137       -3.5784  -17.5609  -47.7188 H         1 UNK         0.1150 
    138 H138       -3.0927  -15.8761  -43.8091 H         1 UNK         0.1150 
    139 H139       -2.7580  -18.1848  -44.0975 H         1 UNK         0.0800 
    140 H140       -2.3706  -18.7993  -45.6916 H         1 UNK         0.0800 
    141 H141       -5.2377  -20.6591  -43.3484 H         1 UNK         0.0800 
    142 H142       -3.5491  -20.2502  -43.2442 H         1 UNK         0.0800 
    143 H143       -4.6137  -21.9605  -45.5397 H         1 UNK         0.0600 
    144 H144       -1.9745  -21.1531  -44.7884 H         1 UNK         0.3000 
    145 H145       -0.2144  -23.8010  -46.3022 H         1 UNK         0.0600 
    146 H146       -0.9562  -22.5710  -48.3774 H         1 UNK         0.0600 
    147 H147        0.7073  -22.2361  -47.9273 H         1 UNK         0.0600 
    148 H148       -0.5593  -21.0488  -47.5930 H         1 UNK         0.0600 
    149 H149        0.7930  -21.3042  -45.5448 H         1 UNK         0.3000 
    150 H150        0.6840  -21.4693  -42.0586 H         1 UNK         0.0600 
    151 H151        3.0587  -22.5128  -43.6823 H         1 UNK         0.0600 
    152 H152        2.3749  -23.2293  -42.2332 H         1 UNK         0.0600 
    153 H153        3.1939  -21.6770  -42.1346 H         1 UNK         0.0600 
    154 H154        2.3605  -20.0402  -43.9243 H         1 UNK         0.3000 
    155 H155        0.2006  -18.0475  -45.3002 H         1 UNK         0.0600 
    156 H156        0.7598  -16.6558  -42.6358 H         1 UNK         0.0600 
    157 H157       -0.7733  -16.7611  -43.4760 H         1 UNK         0.0600 
    158 H158        0.5323  -15.8173  -44.1703 H         1 UNK         0.0600 
    159 H159        2.3192  -18.1339  -45.8100 H         1 UNK         0.3000 
    160 H160        4.6214  -16.6249  -45.4786 H         1 UNK         0.0600 
    161 H161        5.8659  -18.4510  -43.3539 H         1 UNK         0.0600 
    162 H162        5.8590  -16.6930  -43.3467 H         1 UNK         0.0600 
    163 H163        6.7648  -17.5560  -44.5782 H         1 UNK         0.0600 
    164 H164        4.7598  -18.3482  -46.8658 H         1 UNK         0.3000 
    165 H165        5.5802  -21.0473  -47.1688 H         1 UNK         0.0600 
    166 H166        4.4811  -22.7836  -45.7975 H         1 UNK         0.0600 
    167 H167        2.8886  -22.1865  -46.2449 H         1 UNK         0.0600 
    168 H168        3.9347  -22.9141  -47.4599 H         1 UNK         0.0600 
    169 H169        4.4392  -20.2662  -48.9003 H         1 UNK         0.3000 
    170 H170        3.0612  -18.9040  -50.0229 H         1 UNK         0.0600 
    171 H171        1.2623  -20.0009  -51.3257 H         1 UNK         0.0600 
    172 H172        2.1902  -21.2161  -50.4646 H         1 UNK         0.0600 
    173 H173        0.6095  -20.7390  -49.8679 H         1 UNK         0.0600 
    174 H174        0.2725  -18.3748  -49.4478 H         1 UNK         0.3000 
    175 H175       -0.3217  -16.1205  -49.4854 H         1 UNK         0.0600 
    176 H176       -0.6595  -17.0089  -47.2300 H         1 UNK         0.0600 
    177 H177        0.5963  -15.9652  -46.5714 H         1 UNK         0.0600 
    178 H178       -0.9036  -15.2680  -47.1687 H         1 UNK         0.0600 
    179 H179        1.1337  -14.0392  -48.0829 H         1 UNK         0.3000 
    180 H180        2.6815  -12.6414  -49.4141 H         1 UNK         0.0600 
    181 H181        1.6017  -12.1253  -52.2344 H         1 UNK         0.0600 
    182 H182        3.1618  -12.8107  -51.8158 H         1 UNK         0.0600 
    183 H183        2.8049  -11.1410  -51.4026 H         1 UNK         0.0600 
    184 H184        1.1452  -11.2718  -48.6217 H         1 UNK         0.3000 
    185 H185       -0.6331   -9.2856  -49.2201 H         1 UNK         0.0600 
    186 H186       -3.0948  -11.0926  -49.5273 H         1 UNK         0.0600 
    187 H187       -3.1090   -9.4323  -48.9404 H         1 UNK         0.0600 
    188 H188       -2.6525   -9.7702  -50.6021 H         1 UNK         0.0600 
    189 H189       -1.0257  -11.7429  -47.6476 H         1 UNK         0.3000 
    190 H190       -2.3681  -23.2991  -43.2186 H         1 UNK         0.3000 
    191 H191       -4.4722  -25.1712  -42.1970 H         1 UNK         0.0600 
    192 H192       -3.1845  -24.0036  -40.4295 H         1 UNK         0.0600 
    193 H193       -2.7840  -25.7140  -40.4563 H         1 UNK         0.0600 
    194 H194       -1.6647  -24.5409  -41.1414 H         1 UNK         0.0600 
    195 H195       -1.1897  -24.9604  -43.6510 H         1 UNK         0.3000 
    196 H196       -0.8418  -27.7963  -43.6781 H         1 UNK         0.0600 
    197 H197        1.3565  -27.2089  -44.6663 H         1 UNK         0.0600 
    198 H198        0.9931  -26.1651  -43.3012 H         1 UNK         0.0600 
    199 H199        0.8193  -25.5582  -44.9462 H         1 UNK         0.0600 
    200 H200       -2.0752  -25.6036  -46.2004 H         1 UNK         0.3000 
    201 H201       -2.0082  -27.7956  -48.1982 H         1 UNK         0.0600 
    202 H202       -0.7379  -26.3506  -49.7843 H         1 UNK         0.0600 
    203 H203        0.2129  -26.7036  -48.3567 H         1 UNK         0.0600 
    204 H204       -0.5492  -25.1267  -48.5271 H         1 UNK         0.0600 
    205 H205       -4.0975  -26.1896  -46.7455 H         1 UNK         0.3000 
    206 H206       -6.1344  -25.4085  -47.0806 H         1 UNK         0.0600 
    207 H207       -6.4075  -27.5510  -48.2685 H         1 UNK         0.0600 
    208 H208       -7.4244  -26.3224  -48.9990 H         1 UNK         0.0600 
    209 H209       -5.9337  -26.8113  -49.7928 H         1 UNK         0.0600 
    210 H210       -4.2001  -23.4918  -47.5050 H         1 UNK         0.3000 
    211 H211       -4.0289  -21.3287  -47.9650 H         1 UNK         0.0600 
    212 H212       -6.2849  -21.2449  -46.9020 H         1 UNK         0.0600 
    213 H213       -6.1261  -19.9991  -48.1211 H         1 UNK         0.0600 
    214 H214       -7.0621  -21.4562  -48.4561 H         1 UNK         0.0600 
    215 H215       -6.5111  -20.8452  -50.2448 H         1 UNK         0.3000 
    216 H216       -4.8194  -19.8646  -52.2585 H         1 UNK         0.0600 
    217 H217       -7.7619  -20.7152  -52.3914 H         1 UNK         0.0600 
    218 H218       -6.9422  -19.7019  -53.5742 H         1 UNK         0.0600 
    219 H219       -7.1583  -19.1217  -51.9316 H         1 UNK         0.0600 
    220 H220       -5.8306  -23.1678  -51.7078 H         1 UNK         0.3000 
    221 H221       -5.4090  -24.2198  -54.3421 H         1 UNK         0.0600 
    222 H222       -5.2066  -25.5536  -51.5989 H         1 UNK         0.0600 
    223 H223       -6.6691  -25.4352  -52.5746 H         1 UNK         0.0600 
    224 H224       -5.3102  -26.4006  -53.1363 H         1 UNK         0.0600 
    225 H225       -3.1829  -23.1608  -51.8455 H         1 UNK         0.3000 
    226 H226       -0.8254  -24.4631  -53.0417 H         1 UNK         0.0600 
    227 H227       -1.2079  -24.1072  -50.5207 H         1 UNK         0.0600 
    228 H228        0.3323  -23.5171  -51.1354 H         1 UNK         0.0600 
    229 H229       -0.9729  -22.3883  -50.7990 H         1 UNK         0.0600 
    230 H230       -2.7142  -21.9801  -54.0480 H         1 UNK         0.3000 
    231 H231       -2.5867  -20.1954  -55.3021 H         1 UNK         0.0600 
    232 H232        0.4037  -20.6698  -55.7431 H         1 UNK         0.0600 
    233 H233       -0.6733  -19.6916  -56.7248 H         1 UNK         0.0600 
    234 H234       -0.8824  -21.4340  -56.6780 H         1 UNK         0.0600 
    235 H235       -2.1090  -20.1372  -52.3859 H         1 UNK         0.3000 
    236 H236       -0.4348  -17.9954  -51.6214 H         1 UNK         0.0600 
    237 H237       -3.0617  -18.9525  -50.3493 H         1 UNK         0.0600 
    238 H238       -1.4868  -19.6658  -50.0328 H         1 UNK         0.0600 
    239 H239       -1.8261  -18.0076  -49.5457 H         1 UNK         0.0600 
    240 H240       -0.5921  -15.8300  -51.9115 H         1 UNK         0.3000 
    241 H241       -1.2729  -13.8335  -52.3895 H         1 UNK         0.0600 
    242 H242       -2.3223  -15.1669  -55.8692 H         1 UNK         0.3800 
    243 H243       -1.5428  -16.0809  -54.6023 H         1 UNK         0.3800 
    244 H244       -4.1515  -14.5857  -51.6983 H         1 UNK         0.0800 
    245 H245       -3.4864  -12.9769  -51.7842 H         1 UNK         0.0800 
    246 H246       -4.9600  -14.8199  -49.2516 H         1 UNK         0.0800 
    247 H247       -3.9037  -16.1670  -49.6253 H         1 UNK         0.0800 
@<TRIPOS>BOND
     1    1    2 1    
     2    1  127 1    
     3    1  128 1    
     4    1  129 1    
     5    2    3 2    
     6    2    4 am   BACKBONE|DICT|INTERRES
     7    4    5 1    
     8    4  130 1    
     9    5    6 1    
    10    5   65 1    
    11    5  131 1    
    12    6    7 1    
    13    6  132 1    
    14    6  133 1    
    15    7    8 1    
    16    8    9 1    
    17    8  134 1    
    18    8  135 1    
    19    9   10 ar   
    20    9   14 ar   
    21   10   11 ar   
    22   10  136 1    
    23   11   12 ar   
    24   11  126 1    
    25   12   13 ar   
    26   12  137 1    
    27   13   14 ar   
    28   13   15 1    
    29   14  138 1    
    30   15   16 1    
    31   15  139 1    
    32   15  140 1    
    33   16   17 1    
    34   17   18 1    
    35   17  141 1    
    36   17  142 1    
    37   18   19 1    
    38   18   67 1    
    39   18  143 1    
    40   19   20 am   BACKBONE|DICT|INTERRES
    41   19  144 1    
    42   20   21 2    
    43   20   22 1    
    44   22   23 1    
    45   22   24 1    
    46   22  145 1    
    47   23  146 1    
    48   23  147 1    
    49   23  148 1    
    50   24   25 am   BACKBONE|DICT|INTERRES
    51   24  149 1    
    52   25   26 2    
    53   25   27 1    
    54   27   28 1    
    55   27   29 1    
    56   27  150 1    
    57   28  151 1    
    58   28  152 1    
    59   28  153 1    
    60   29   30 am   BACKBONE|DICT|INTERRES
    61   29  154 1    
    62   30   31 2    
    63   30   32 1    
    64   32   33 1    
    65   32   34 1    
    66   32  155 1    
    67   33  156 1    
    68   33  157 1    
    69   33  158 1    
    70   34   35 am   BACKBONE|DICT|INTERRES
    71   34  159 1    
    72   35   36 2    
    73   35   37 1    
    74   37   38 1    
    75   37   39 1    
    76   37  160 1    
    77   38  161 1    
    78   38  162 1    
    79   38  163 1    
    80   39   40 am   BACKBONE|DICT|INTERRES
    81   39  164 1    
    82   40   41 2    
    83   40   42 1    
    84   42   43 1    
    85   42   44 1    
    86   42  165 1    
    87   43  166 1    
    88   43  167 1    
    89   43  168 1    
    90   44   45 am   BACKBONE|DICT|INTERRES
    91   44  169 1    
    92   45   46 2    
    93   45   47 1    
    94   47   48 1    
    95   47   49 1    
    96   47  170 1    
    97   48  171 1    
    98   48  172 1    
    99   48  173 1    
   100   49   50 am   BACKBONE|DICT|INTERRES
   101   49  174 1    
   102   50   51 2    
   103   50   52 1    
   104   52   53 1    
   105   52   54 1    
   106   52  175 1    
   107   53  176 1    
   108   53  177 1    
   109   53  178 1    
   110   54   55 am   BACKBONE|DICT|INTERRES
   111   54  179 1    
   112   55   56 2    
   113   55   57 1    
   114   57   58 1    
   115   57   59 1    
   116   57  180 1    
   117   58  181 1    
   118   58  182 1    
   119   58  183 1    
   120   59   60 am   BACKBONE|DICT|INTERRES
   121   59  184 1    
   122   60   61 2    
   123   60   62 1    
   124   62   63 1    
   125   62   64 1    
   126   62  185 1    
   127   63  186 1    
   128   63  187 1    
   129   63  188 1    
   130   64   65 am   BACKBONE|DICT|INTERRES
   131   64  189 1    
   132   65   66 2    
   133   67   68 2    
   134   67   69 am   BACKBONE|DICT|INTERRES
   135   69   70 1    
   136   69  190 1    
   137   70   71 1    
   138   70   72 1    
   139   70  191 1    
   140   71  192 1    
   141   71  193 1    
   142   71  194 1    
   143   72   73 2    
   144   72   74 am   BACKBONE|DICT|INTERRES
   145   74   75 1    
   146   74  195 1    
   147   75   76 1    
   148   75   77 1    
   149   75  196 1    
   150   76  197 1    
   151   76  198 1    
   152   76  199 1    
   153   77   78 2    
   154   77   79 am   BACKBONE|DICT|INTERRES
   155   79   80 1    
   156   79  200 1    
   157   80   81 1    
   158   80   82 1    
   159   80  201 1    
   160   81  202 1    
   161   81  203 1    
   162   81  204 1    
   163   82   83 2    
   164   82   84 am   BACKBONE|DICT|INTERRES
   165   84   85 1    
   166   84  205 1    
   167   85   86 1    
   168   85   87 1    
   169   85  206 1    
   170   86  207 1    
   171   86  208 1    
   172   86  209 1    
   173   87   88 2    
   174   87   89 am   BACKBONE|DICT|INTERRES
   175   89   90 1    
   176   89  210 1    
   177   90   91 1    
   178   90   92 1    
   179   90  211 1    
   180   91  212 1    
   181   91  213 1    
   182   91  214 1    
   183   92   93 2    
   184   92   94 am   BACKBONE|DICT|INTERRES
   185   94   95 1    
   186   94  215 1    
   187   95   96 1    
   188   95   97 1    
   189   95  216 1    
   190   96  217 1    
   191   96  218 1    
   192   96  219 1    
   193   97   98 2    
   194   97   99 am   BACKBONE|DICT|INTERRES
   195   99  100 1    
   196   99  220 1    
   197  100  101 1    
   198  100  102 1    
   199  100  221 1    
   200  101  222 1    
   201  101  223 1    
   202  101  224 1    
   203  102  103 2    
   204  102  104 am   BACKBONE|DICT|INTERRES
   205  104  105 1    
   206  104  225 1    
   207  105  106 1    
   208  105  107 1    
   209  105  226 1    
   210  106  227 1    
   211  106  228 1    
   212  106  229 1    
   213  107  108 2    
   214  107  109 am   BACKBONE|DICT|INTERRES
   215  109  110 1    
   216  109  230 1    
   217  110  111 1    
   218  110  112 1    
   219  110  231 1    
   220  111  232 1    
   221  111  233 1    
   222  111  234 1    
   223  112  113 2    
   224  112  114 am   BACKBONE|DICT|INTERRES
   225  114  115 1    
   226  114  235 1    
   227  115  116 1    
   228  115  117 1    
   229  115  236 1    
   230  116  237 1    
   231  116  238 1    
   232  116  239 1    
   233  117  118 2    
   234  117  119 am   BACKBONE|DICT|INTERRES
   235  119  120 1    
   236  119  240 1    
   237  120  121 1    
   238  120  124 1    
   239  120  241 1    
   240  121  122 am   BACKBONE|DICT|INTERRES
   241  121  123 2    
   242  122  242 1    
   243  122  243 1    
   244  124  125 1    
   245  124  244 1    
   246  124  245 1    
   247  125  126 1    
   248  126  246 1    
   249  126  247 1    
@<TRIPOS>SUBSTRUCTURE
     1 UNK         1 GROUP             0       ****    0 ROOT    
