@<TRIPOS>MOLECULE
3R540
247   249    1
SMALL
USER_CHARGES


@<TRIPOS>ATOM
      1 CA          6.8001  -11.0470  -47.1674 C.3       0 UNK        -0.1800 
      2 C           5.4216  -11.5971  -46.8350 C.2       0 UNK         0.5000 
      3 O           4.8541  -11.2347  -45.8065 O.2       0 UNK        -0.5000 
      4 N           4.8747  -12.4511  -47.7106 N.am      1 UNK        -0.5000 
      5 CA          3.5853  -13.1545  -47.5907 C.3       1 UNK         0.1400 
      6 C6          3.3870  -14.0733  -48.8235 C.3       23 UNK        -0.0398 
      7 S7          2.0112  -15.2657  -48.6942 S.3       23 UNK        -0.2404 
      8 C8          1.1768  -14.9633  -50.2813 C.3       23 UNK        -0.0205 
      9 C9         -0.0390  -15.8571  -50.4555 C.ar      23 UNK        -0.0193 
     10 C10        -1.3232  -15.3466  -50.2557 C.ar      23 UNK        -0.1150 
     11 C11        -2.4457  -16.1605  -50.4321 C.ar      23 UNK        -0.0193 
     12 C12        -2.2764  -17.5003  -50.7975 C.ar      23 UNK        -0.1150 
     13 C13        -0.9966  -18.0135  -51.0258 C.ar      23 UNK        -0.0193 
     14 C14         0.1176  -17.1887  -50.8476 C.ar      23 UNK        -0.1150 
     15 C15        -0.8083  -19.4397  -51.5149 C.3       23 UNK        -0.0205 
     16 S16        -0.3534  -20.5650  -50.1621 S.3       23 UNK        -0.2404 
     17 C17        -1.9764  -21.2682  -49.7303 C.3       23 UNK        -0.0398 
     18 CA         -1.8346  -22.4624  -48.7607 C.3       11 UNK         0.1400 
     19 N          -1.2932  -22.0818  -47.4517 N.am      11 UNK        -0.5000 
     20 C          -0.9026  -22.9544  -46.5112 C.2       10 UNK         0.5000 
     21 O          -0.9074  -24.1747  -46.6727 O.2       10 UNK        -0.5000 
     22 CA         -0.4940  -22.3938  -45.1369 C.3       10 UNK         0.1400 
     23 CB          1.0315  -22.2476  -45.0495 C.3       10 UNK        -0.1800 
     24 N          -1.1409  -21.1257  -44.7900 N.am      10 UNK        -0.5000 
     25 C          -2.4659  -20.9328  -44.7017 C.2       9 UNK         0.5000 
     26 O          -3.2980  -21.8194  -44.9004 O.2       9 UNK        -0.5000 
     27 CA         -2.9446  -19.5016  -44.3983 C.3       9 UNK         0.1400 
     28 CB         -2.9420  -19.2380  -42.8860 C.3       9 UNK        -0.1800 
     29 N          -2.1453  -18.4803  -45.0775 N.am      9 UNK        -0.5000 
     30 C          -2.0617  -18.3354  -46.4085 C.2       8 UNK         0.5000 
     31 O          -2.6929  -19.0255  -47.2075 O.2       8 UNK        -0.5000 
     32 CA         -1.0767  -17.2731  -46.9279 C.3       8 UNK         0.1400 
     33 CB         -1.6942  -15.8672  -46.8703 C.3       8 UNK        -0.1800 
     34 N           0.1756  -17.2903  -46.1734 N.am      8 UNK        -0.5000 
     35 C           1.0943  -18.2623  -46.2611 C.2       7 UNK         0.5000 
     36 O           1.0151  -19.2118  -47.0389 O.2       7 UNK        -0.5000 
     37 CA          2.2787  -18.1876  -45.2805 C.3       7 UNK         0.1400 
     38 CB          3.4327  -17.3648  -45.8731 C.3       7 UNK        -0.1800 
     39 N           1.8894  -17.6299  -43.9838 N.am      7 UNK        -0.5000 
     40 C           1.1386  -18.2831  -43.0833 C.2       6 UNK         0.5000 
     41 O           0.7320  -19.4325  -43.2468 O.2       6 UNK        -0.5000 
     42 CA          0.7315  -17.5180  -41.8070 C.3       6 UNK         0.1400 
     43 CB          1.7938  -17.6954  -40.7124 C.3       6 UNK        -0.1800 
     44 N           0.5120  -16.0902  -42.0365 N.am      6 UNK        -0.5000 
     45 C          -0.3996  -15.5798  -42.8756 C.2       5 UNK         0.5000 
     46 O          -1.2386  -16.2666  -43.4568 O.2       5 UNK        -0.5000 
     47 CA         -0.3348  -14.0650  -43.1604 C.3       5 UNK         0.1400 
     48 CB         -1.4393  -13.3262  -42.3912 C.3       5 UNK        -0.1800 
     49 N           0.9561  -13.4334  -42.8633 N.am      5 UNK        -0.5000 
     50 C           2.1423  -13.7743  -43.3842 C.2       4 UNK         0.5000 
     51 O           2.3025  -14.7225  -44.1541 O.2       4 UNK        -0.5000 
     52 CA          3.3410  -12.9098  -42.9551 C.3       4 UNK         0.1400 
     53 CB          4.6898  -13.5459  -43.3369 C.3       4 UNK        -0.1800 
     54 N           3.2596  -11.5809  -43.5531 N.am      4 UNK        -0.5000 
     55 C           2.4854  -10.5733  -43.1306 C.2       3 UNK         0.5000 
     56 O           1.7478  -10.6476  -42.1464 O.2       3 UNK        -0.5000 
     57 CA          2.5281   -9.2794  -43.9588 C.3       3 UNK         0.1400 
     58 CB          3.8142   -8.4903  -43.6661 C.3       3 UNK        -0.1800 
     59 N           2.4627   -9.5807  -45.3885 N.am      3 UNK        -0.5000 
     60 C           1.3643   -9.4626  -46.1468 C.2       2 UNK         0.5000 
     61 O           0.2924   -9.0178  -45.7340 O.2       2 UNK        -0.5000 
     62 CA          1.4710   -9.9157  -47.6188 C.3       2 UNK         0.1400 
     63 CB          1.8039   -8.7204  -48.5248 C.3       2 UNK        -0.1800 
     64 N           2.4635  -10.9696  -47.8404 N.am      2 UNK        -0.5000 
     65 C           2.3732  -12.2170  -47.3563 C.2       1 UNK         0.5000 
     66 O           1.4028  -12.6195  -46.7145 O.2       1 UNK        -0.5000 
     67 C          -3.1602  -23.2380  -48.6454 C.2       11 UNK         0.5000 
     68 O          -3.4066  -24.1260  -49.4601 O.2       11 UNK        -0.5000 
     69 N          -3.9838  -22.9174  -47.6407 N.am      12 UNK        -0.5000 
     70 CA         -5.2020  -23.6603  -47.3301 C.3       12 UNK         0.1400 
     71 CB         -6.2408  -22.7031  -46.7239 C.3       12 UNK        -0.1800 
     72 C          -4.9106  -24.8237  -46.3689 C.2       12 UNK         0.5000 
     73 O          -5.4237  -25.9240  -46.5723 O.2       12 UNK        -0.5000 
     74 N          -4.1180  -24.5478  -45.3255 N.am      13 UNK        -0.5000 
     75 CA         -3.9431  -25.4319  -44.1762 C.3       13 UNK         0.1400 
     76 CB         -3.4762  -24.5944  -42.9752 C.3       13 UNK        -0.1800 
     77 C          -2.9892  -26.6191  -44.3980 C.2       13 UNK         0.5000 
     78 O          -3.1724  -27.6403  -43.7329 O.2       13 UNK        -0.5000 
     79 N          -1.9776  -26.4743  -45.2667 N.am      14 UNK        -0.5000 
     80 CA         -0.8706  -27.4308  -45.3629 C.3       14 UNK         0.1400 
     81 CB          0.3251  -26.9032  -44.5506 C.3       14 UNK        -0.1800 
     82 C          -0.4480  -27.7463  -46.8040 C.2       14 UNK         0.5000 
     83 O          -0.2896  -28.9219  -47.1392 O.2       14 UNK        -0.5000 
     84 N          -0.2362  -26.7139  -47.6296 N.am      15 UNK        -0.5000 
     85 CA          0.3590  -26.8292  -48.9629 C.3       15 UNK         0.1400 
     86 CB          1.0569  -25.5091  -49.3268 C.3       15 UNK        -0.1800 
     87 C          -0.6614  -27.2866  -50.0229 C.2       15 UNK         0.5000 
     88 O          -1.0567  -26.5073  -50.8917 O.2       15 UNK        -0.5000 
     89 N          -1.0729  -28.5570  -49.9090 N.am      16 UNK        -0.5000 
     90 CA         -1.9111  -29.3292  -50.8368 C.3       16 UNK         0.1400 
     91 CB         -1.1818  -29.5152  -52.1840 C.3       16 UNK        -0.1800 
     92 C          -3.3460  -28.7913  -51.0263 C.2       16 UNK         0.5000 
     93 O          -4.0221  -29.1988  -51.9724 O.2       16 UNK        -0.5000 
     94 N          -3.7873  -27.9008  -50.1252 N.am      17 UNK        -0.5000 
     95 CA         -5.0698  -27.1911  -50.1378 C.3       17 UNK         0.1400 
     96 CB         -6.2360  -28.1580  -49.8464 C.3       17 UNK        -0.1800 
     97 C          -5.2745  -26.3538  -51.4194 C.2       17 UNK         0.5000 
     98 O          -6.3660  -26.3466  -51.9919 O.2       17 UNK        -0.5000 
     99 N          -4.2115  -25.6505  -51.8379 N.am      18 UNK        -0.5000 
    100 CA        -4.2139  -24.6765  -52.9331 C.3       18 UNK         0.1400 
    101 CB        -2.7741  -24.1981  -53.1761 C.3       18 UNK        -0.1800 
    102 C         -5.1410  -23.4731  -52.6653 C.2       18 UNK         0.5000 
    103 O         -5.7017  -22.9167  -53.6098 O.2       18 UNK        -0.5000 
    104 N         -5.3004  -23.1287  -51.3789 N.am      19 UNK        -0.5000 
    105 CA        -6.1910  -22.1109  -50.8244 C.3       19 UNK         0.1400 
    106 CB        -7.6646  -22.5521  -50.9652 C.3       19 UNK        -0.1800 
    107 C         -5.8818  -20.7085  -51.3796 C.2       19 UNK         0.5000 
    108 O         -4.7526  -20.2424  -51.2241 O.2       19 UNK        -0.5000 
    109 N         -6.8685  -20.0597  -52.0104 N.am      20 UNK        -0.5000 
    110 CA        -6.8192  -18.6908  -52.5305 C.3       20 UNK         0.1400 
    111 CB        -8.2613  -18.1852  -52.7146 C.3       20 UNK        -0.1800 
    112 C         -5.9641  -18.5167  -53.8087 C.2       20 UNK         0.5000 
    113 O         -6.3316  -17.7481  -54.6993 O.2       20 UNK        -0.5000 
    114 N         -4.8129  -19.1935  -53.8718 N.am      21 UNK        -0.5000 
    115 CA        -3.7966  -19.0783  -54.9182 C.3       21 UNK         0.1400 
    116 CB        -3.0631  -20.4272  -55.0343 C.3       21 UNK        -0.1800 
    117 C         -2.8451  -17.8978  -54.6234 C.2       21 UNK         0.5000 
    118 O         -1.6255  -18.0693  -54.6075 O.2       21 UNK        -0.5000 
    119 N         -3.4320  -16.7272  -54.3485 N.am      22 UNK        -0.5000 
    120 CA        -2.7535  -15.5343  -53.8148 C.3       22 UNK         0.1400 
    121 C         -1.9884  -14.6838  -54.8701 C.2       22 UNK         0.5000 
    122 N         -2.0661  -14.9915  -56.1590 N.am      22 UNK        -0.7600 
    123 O         -1.3068  -13.7267  -54.5134 O.2       22 UNK        -0.5000 
    124 C124       -3.7127  -14.6460  -52.9688 C.3       23 UNK        -0.0398 
    125 S125       -4.7883  -15.5768  -51.8143 S.3       23 UNK        -0.2404 
    126 C126       -3.8392  -15.5771  -50.2589 C.3       23 UNK        -0.0205 
    127 H127        7.1779  -11.4393  -48.1118 H         1 UNK         0.0600 
    128 H128        6.7615   -9.9602  -47.2403 H         1 UNK         0.0600 
    129 H129        7.5069  -11.3118  -46.3811 H         1 UNK         0.0600 
    130 H130        5.4069  -12.6806  -48.5380 H         1 UNK         0.3000 
    131 H131        3.6610  -13.7899  -46.7057 H         1 UNK         0.0600 
    132 H132        3.2709  -13.4675  -49.7239 H         1 UNK         0.0800 
    133 H133        4.2885  -14.6665  -48.9837 H         1 UNK         0.0800 
    134 H134        0.8868  -13.9131  -50.3422 H         1 UNK         0.0800 
    135 H135        1.8770  -15.1401  -51.0993 H         1 UNK         0.0800 
    136 H136       -1.4482  -14.3117  -49.9700 H         1 UNK         0.1150 
    137 H137       -3.1433  -18.1293  -50.9430 H         1 UNK         0.1150 
    138 H138        1.1093  -17.5833  -51.0191 H         1 UNK         0.1150 
    139 H139       -1.7098  -19.7915  -52.0177 H         1 UNK         0.0800 
    140 H140       -0.0198  -19.4592  -52.2686 H         1 UNK         0.0800 
    141 H141       -2.4524  -21.5928  -50.6576 H         1 UNK         0.0800 
    142 H142       -2.6149  -20.4880  -49.3153 H         1 UNK         0.0800 
    143 H143       -1.1269  -23.1535  -49.2128 H         1 UNK         0.0600 
    144 H144       -1.2544  -21.0913  -47.2507 H         1 UNK         0.3000 
    145 H145       -0.7988  -23.1277  -44.3899 H         1 UNK         0.0600 
    146 H146        1.3442  -21.9575  -44.0466 H         1 UNK         0.0600 
    147 H147        1.5280  -23.1909  -45.2815 H         1 UNK         0.0600 
    148 H148        1.4057  -21.5008  -45.7489 H         1 UNK         0.0600 
    149 H149       -0.5232  -20.3578  -44.5485 H         1 UNK         0.3000 
    150 H150       -3.9718  -19.4128  -44.7579 H         1 UNK         0.0600 
    151 H151       -3.5813  -19.9521  -42.3653 H         1 UNK         0.0600 
    152 H152       -3.3150  -18.2392  -42.6581 H         1 UNK         0.0600 
    153 H153       -1.9412  -19.3262  -42.4640 H         1 UNK         0.0600 
    154 H154       -1.6459  -17.8219  -44.4858 H         1 UNK         0.3000 
    155 H155       -0.8517  -17.5043  -47.9712 H         1 UNK         0.0600 
    156 H156       -2.6064  -15.8214  -47.4653 H         1 UNK         0.0600 
    157 H157       -1.0069  -15.1197  -47.2676 H         1 UNK         0.0600 
    158 H158       -1.9568  -15.5737  -45.8548 H         1 UNK         0.0600 
    159 H159        0.3132  -16.5547  -45.4965 H         1 UNK         0.3000 
    160 H160        2.6410  -19.2054  -45.1198 H         1 UNK         0.0600 
    161 H161        4.2909  -17.3456  -45.2015 H         1 UNK         0.0600 
    162 H162        3.1356  -16.3342  -46.0661 H         1 UNK         0.0600 
    163 H163        3.7670  -17.7895  -46.8204 H         1 UNK         0.0600 
    164 H164        2.1358  -16.6580  -43.8205 H         1 UNK         0.3000 
    165 H165       -0.2060  -17.9456  -41.4469 H         1 UNK         0.0600 
    166 H166        1.4814  -17.2265  -39.7792 H         1 UNK         0.0600 
    167 H167        1.9646  -18.7522  -40.5026 H         1 UNK         0.0600 
    168 H168        2.7501  -17.2598  -41.0049 H         1 UNK         0.0600 
    169 H169        1.1614  -15.4541  -41.5990 H         1 UNK         0.3000 
    170 H170       -0.5166  -13.9351  -44.2293 H         1 UNK         0.0600 
    171 H171       -2.4208  -13.7471  -42.6140 H         1 UNK         0.0600 
    172 H172       -1.2900  -13.3922  -41.3128 H         1 UNK         0.0600 
    173 H173       -1.4708  -12.2708  -42.6626 H         1 UNK         0.0600 
    174 H174        0.9287  -12.6054  -42.2791 H         1 UNK         0.3000 
    175 H175        3.3139  -12.8143  -41.8676 H         1 UNK         0.0600 
    176 H176        5.5247  -12.9327  -42.9976 H         1 UNK         0.0600 
    177 H177        4.8008  -14.5298  -42.8796 H         1 UNK         0.0600 
    178 H178        4.7871  -13.6733  -44.4156 H         1 UNK         0.0600 
    179 H179        3.8329  -11.4384  -44.3828 H         1 UNK         0.3000 
    180 H180        1.6799   -8.6608  -43.6583 H         1 UNK         0.0600 
    181 H181        4.7073   -9.0492  -43.9490 H         1 UNK         0.0600 
    182 H182        3.8951   -8.2559  -42.6039 H         1 UNK         0.0600 
    183 H183        3.8262   -7.5455  -44.2095 H         1 UNK         0.0600 
    184 H184        3.2896  -10.0073  -45.7924 H         1 UNK         0.3000 
    185 H185        0.4946  -10.3062  -47.9134 H         1 UNK         0.0600 
    186 H186        1.8025   -9.0090  -49.5761 H         1 UNK         0.0600 
    187 H187        1.0678   -7.9240  -48.4070 H         1 UNK         0.0600 
    188 H188        2.7829   -8.2995  -48.2920 H         1 UNK         0.0600 
    189 H189        3.2978  -10.7099  -48.3459 H         1 UNK         0.3000 
    190 H190       -3.6972  -22.2120  -46.9724 H         1 UNK         0.3000 
    191 H191       -5.6299  -24.0779  -48.2441 H         1 UNK         0.0600 
    192 H192       -5.8885  -22.2576  -45.7928 H         1 UNK         0.0600 
    193 H193       -7.1714  -23.2278  -46.5043 H         1 UNK         0.0600 
    194 H194       -6.4805  -21.8905  -47.4091 H         1 UNK         0.0600 
    195 H195       -3.7604  -23.6014  -45.2233 H         1 UNK         0.3000 
    196 H196       -4.9201  -25.8497  -43.9228 H         1 UNK         0.0600 
    197 H197       -2.5019  -24.1409  -43.1543 H         1 UNK         0.0600 
    198 H198       -3.3913  -25.2089  -42.0780 H         1 UNK         0.0600 
    199 H199       -4.1818  -23.7933  -42.7539 H         1 UNK         0.0600 
    200 H200       -1.8845  -25.6123  -45.7948 H         1 UNK         0.3000 
    201 H201       -1.1625  -28.3893  -44.9286 H         1 UNK         0.0600 
    202 H202        0.6540  -25.9259  -44.9065 H         1 UNK         0.0600 
    203 H203        1.1761  -27.5822  -44.6170 H         1 UNK         0.0600 
    204 H204        0.0703  -26.8050  -43.4952 H         1 UNK         0.0600 
    205 H205       -0.4217  -25.7689  -47.2984 H         1 UNK         0.3000 
    206 H206        1.1404  -27.5917  -48.9276 H         1 UNK         0.0600 
    207 H207        1.8120  -25.2441  -48.5866 H         1 UNK         0.0600 
    208 H208        1.5587  -25.5865  -50.2920 H         1 UNK         0.0600 
    209 H209        0.3516  -24.6863  -49.3924 H         1 UNK         0.0600 
    210 H210       -0.7448  -29.0642  -49.0921 H         1 UNK         0.3000 
    211 H211       -2.0231  -30.3160  -50.3856 H         1 UNK         0.0600 
    212 H212       -1.0919  -28.5739  -52.7273 H         1 UNK         0.0600 
    213 H213       -1.7159  -30.2142  -52.8287 H         1 UNK         0.0600 
    214 H214       -0.1787  -29.9159  -52.0380 H         1 UNK         0.0600 
    215 H215       -3.1402  -27.6224  -49.4018 H         1 UNK         0.3000 
    216 H216       -5.0279  -26.4750  -49.3163 H         1 UNK         0.0600 
    217 H217       -6.0682  -28.7080  -48.9205 H         1 UNK         0.0600 
    218 H218       -7.1741  -27.6135  -49.7325 H         1 UNK         0.0600 
    219 H219       -6.3739  -28.8832  -50.6487 H         1 UNK         0.0600 
    220 H220       -3.3579  -25.7092  -51.2953 H         1 UNK         0.3000 
    221 H221       -4.5708  -25.1811  -53.8329 H         1 UNK         0.0600 
    222 H222       -2.3595  -23.7079  -52.2940 H         1 UNK         0.0600 
    223 H223       -2.1199  -25.0320  -53.4315 H         1 UNK         0.0600 
    224 H224       -2.7316  -23.4852  -54.0005 H         1 UNK         0.0600 
    225 H225       -4.7253  -23.6241  -50.7027 H         1 UNK         0.3000 
    226 H226       -5.9665  -22.0580  -49.7599 H         1 UNK         0.0600 
    227 H227       -7.8222  -23.5243  -50.4976 H         1 UNK         0.0600 
    228 H228       -8.3377  -21.8496  -50.4720 H         1 UNK         0.0600 
    229 H229       -7.9718  -22.6382  -52.0081 H         1 UNK         0.0600 
    230 H230       -7.7434  -20.5467  -52.1390 H         1 UNK         0.3000 
    231 H231       -6.3537  -18.0705  -51.7631 H         1 UNK         0.0600 
    232 H232       -8.8305  -18.2675  -51.7885 H         1 UNK         0.0600 
    233 H233       -8.7883  -18.7486  -53.4855 H         1 UNK         0.0600 
    234 H234       -8.2759  -17.1339  -53.0054 H         1 UNK         0.0600 
    235 H235       -4.5636  -19.7439  -53.0555 H         1 UNK         0.3000 
    236 H236       -4.2807  -18.8768  -55.8758 H         1 UNK         0.0600 
    237 H237       -2.3164  -20.4016  -55.8288 H         1 UNK         0.0600 
    238 H238       -2.5520  -20.6908  -54.1081 H         1 UNK         0.0600 
    239 H239       -3.7591  -21.2328  -55.2697 H         1 UNK         0.0600 
    240 H240       -4.4420  -16.6805  -54.3946 H         1 UNK         0.3000 
    241 H241       -1.9743  -15.8929  -53.1420 H         1 UNK         0.0600 
    242 H242       -1.5645  -14.4373  -56.8353 H         1 UNK         0.3800 
    243 H243       -2.6155  -15.7795  -56.4624 H         1 UNK         0.3800 
    244 H244       -3.1452  -13.9046  -52.4037 H         1 UNK         0.0800 
    245 H245       -4.3712  -14.0793  -53.6291 H         1 UNK         0.0800 
    246 H246       -4.3796  -16.1643  -49.5152 H         1 UNK         0.0800 
    247 H247       -3.7917  -14.5582  -49.8716 H         1 UNK         0.0800 
@<TRIPOS>BOND
     1    1    2 1    
     2    1  127 1    
     3    1  128 1    
     4    1  129 1    
     5    2    3 2    
     6    2    4 am   BACKBONE|DICT|INTERRES
     7    4    5 1    
     8    4  130 1    
     9    5    6 1    
    10    5   65 1    
    11    5  131 1    
    12    6    7 1    
    13    6  132 1    
    14    6  133 1    
    15    7    8 1    
    16    8    9 1    
    17    8  134 1    
    18    8  135 1    
    19    9   10 ar   
    20    9   14 ar   
    21   10   11 ar   
    22   10  136 1    
    23   11   12 ar   
    24   11  126 1    
    25   12   13 ar   
    26   12  137 1    
    27   13   14 ar   
    28   13   15 1    
    29   14  138 1    
    30   15   16 1    
    31   15  139 1    
    32   15  140 1    
    33   16   17 1    
    34   17   18 1    
    35   17  141 1    
    36   17  142 1    
    37   18   19 1    
    38   18   67 1    
    39   18  143 1    
    40   19   20 am   BACKBONE|DICT|INTERRES
    41   19  144 1    
    42   20   21 2    
    43   20   22 1    
    44   22   23 1    
    45   22   24 1    
    46   22  145 1    
    47   23  146 1    
    48   23  147 1    
    49   23  148 1    
    50   24   25 am   BACKBONE|DICT|INTERRES
    51   24  149 1    
    52   25   26 2    
    53   25   27 1    
    54   27   28 1    
    55   27   29 1    
    56   27  150 1    
    57   28  151 1    
    58   28  152 1    
    59   28  153 1    
    60   29   30 am   BACKBONE|DICT|INTERRES
    61   29  154 1    
    62   30   31 2    
    63   30   32 1    
    64   32   33 1    
    65   32   34 1    
    66   32  155 1    
    67   33  156 1    
    68   33  157 1    
    69   33  158 1    
    70   34   35 am   BACKBONE|DICT|INTERRES
    71   34  159 1    
    72   35   36 2    
    73   35   37 1    
    74   37   38 1    
    75   37   39 1    
    76   37  160 1    
    77   38  161 1    
    78   38  162 1    
    79   38  163 1    
    80   39   40 am   BACKBONE|DICT|INTERRES
    81   39  164 1    
    82   40   41 2    
    83   40   42 1    
    84   42   43 1    
    85   42   44 1    
    86   42  165 1    
    87   43  166 1    
    88   43  167 1    
    89   43  168 1    
    90   44   45 am   BACKBONE|DICT|INTERRES
    91   44  169 1    
    92   45   46 2    
    93   45   47 1    
    94   47   48 1    
    95   47   49 1    
    96   47  170 1    
    97   48  171 1    
    98   48  172 1    
    99   48  173 1    
   100   49   50 am   BACKBONE|DICT|INTERRES
   101   49  174 1    
   102   50   51 2    
   103   50   52 1    
   104   52   53 1    
   105   52   54 1    
   106   52  175 1    
   107   53  176 1    
   108   53  177 1    
   109   53  178 1    
   110   54   55 am   BACKBONE|DICT|INTERRES
   111   54  179 1    
   112   55   56 2    
   113   55   57 1    
   114   57   58 1    
   115   57   59 1    
   116   57  180 1    
   117   58  181 1    
   118   58  182 1    
   119   58  183 1    
   120   59   60 am   BACKBONE|DICT|INTERRES
   121   59  184 1    
   122   60   61 2    
   123   60   62 1    
   124   62   63 1    
   125   62   64 1    
   126   62  185 1    
   127   63  186 1    
   128   63  187 1    
   129   63  188 1    
   130   64   65 am   BACKBONE|DICT|INTERRES
   131   64  189 1    
   132   65   66 2    
   133   67   68 2    
   134   67   69 am   BACKBONE|DICT|INTERRES
   135   69   70 1    
   136   69  190 1    
   137   70   71 1    
   138   70   72 1    
   139   70  191 1    
   140   71  192 1    
   141   71  193 1    
   142   71  194 1    
   143   72   73 2    
   144   72   74 am   BACKBONE|DICT|INTERRES
   145   74   75 1    
   146   74  195 1    
   147   75   76 1    
   148   75   77 1    
   149   75  196 1    
   150   76  197 1    
   151   76  198 1    
   152   76  199 1    
   153   77   78 2    
   154   77   79 am   BACKBONE|DICT|INTERRES
   155   79   80 1    
   156   79  200 1    
   157   80   81 1    
   158   80   82 1    
   159   80  201 1    
   160   81  202 1    
   161   81  203 1    
   162   81  204 1    
   163   82   83 2    
   164   82   84 am   BACKBONE|DICT|INTERRES
   165   84   85 1    
   166   84  205 1    
   167   85   86 1    
   168   85   87 1    
   169   85  206 1    
   170   86  207 1    
   171   86  208 1    
   172   86  209 1    
   173   87   88 2    
   174   87   89 am   BACKBONE|DICT|INTERRES
   175   89   90 1    
   176   89  210 1    
   177   90   91 1    
   178   90   92 1    
   179   90  211 1    
   180   91  212 1    
   181   91  213 1    
   182   91  214 1    
   183   92   93 2    
   184   92   94 am   BACKBONE|DICT|INTERRES
   185   94   95 1    
   186   94  215 1    
   187   95   96 1    
   188   95   97 1    
   189   95  216 1    
   190   96  217 1    
   191   96  218 1    
   192   96  219 1    
   193   97   98 2    
   194   97   99 am   BACKBONE|DICT|INTERRES
   195   99  100 1    
   196   99  220 1    
   197  100  101 1    
   198  100  102 1    
   199  100  221 1    
   200  101  222 1    
   201  101  223 1    
   202  101  224 1    
   203  102  103 2    
   204  102  104 am   BACKBONE|DICT|INTERRES
   205  104  105 1    
   206  104  225 1    
   207  105  106 1    
   208  105  107 1    
   209  105  226 1    
   210  106  227 1    
   211  106  228 1    
   212  106  229 1    
   213  107  108 2    
   214  107  109 am   BACKBONE|DICT|INTERRES
   215  109  110 1    
   216  109  230 1    
   217  110  111 1    
   218  110  112 1    
   219  110  231 1    
   220  111  232 1    
   221  111  233 1    
   222  111  234 1    
   223  112  113 2    
   224  112  114 am   BACKBONE|DICT|INTERRES
   225  114  115 1    
   226  114  235 1    
   227  115  116 1    
   228  115  117 1    
   229  115  236 1    
   230  116  237 1    
   231  116  238 1    
   232  116  239 1    
   233  117  118 2    
   234  117  119 am   BACKBONE|DICT|INTERRES
   235  119  120 1    
   236  119  240 1    
   237  120  121 1    
   238  120  124 1    
   239  120  241 1    
   240  121  122 am   BACKBONE|DICT|INTERRES
   241  121  123 2    
   242  122  242 1    
   243  122  243 1    
   244  124  125 1    
   245  124  244 1    
   246  124  245 1    
   247  125  126 1    
   248  126  246 1    
   249  126  247 1    
@<TRIPOS>SUBSTRUCTURE
     1 UNK         1 GROUP             0       ****    0 ROOT    
