@<TRIPOS>MOLECULE
3R540
247   249    1
SMALL
USER_CHARGES


@<TRIPOS>ATOM
      1 CA         -0.6530  -18.1398  -49.6446 C.3       0 UNK        -0.1800 
      2 C          -0.0639  -16.8637  -49.0620 C.2       0 UNK         0.5000 
      3 O          -0.2337  -16.5862  -47.8746 O.2       0 UNK        -0.5000 
      4 N           0.6243  -16.0771  -49.8971 N.am      1 UNK        -0.5000 
      5 CA          1.3624  -14.8434  -49.5929 C.3       1 UNK         0.1400 
      6 C6          2.5063  -15.0496  -48.5514 C.3       23 UNK        -0.0398 
      7 S7          4.1378  -14.5865  -49.2179 S.3       23 UNK        -0.2404 
      8 C8          4.9506  -16.2160  -49.3655 C.3       23 UNK        -0.0205 
      9 C9          4.1831  -17.2250  -50.2172 C.ar      23 UNK        -0.0193 
     10 C10         3.5972  -16.8497  -51.4315 C.ar      23 UNK        -0.1150 
     11 C11         2.8905  -17.7776  -52.2003 C.ar      23 UNK        -0.0193 
     12 C12         2.8119  -19.1051  -51.7713 C.ar      23 UNK        -0.1150 
     13 C13         3.4226  -19.5048  -50.5783 C.ar      23 UNK        -0.0193 
     14 C14         4.0893  -18.5563  -49.7971 C.ar      23 UNK        -0.1150 
     15 C15         3.4188  -20.9735  -50.1772 C.3       23 UNK        -0.0205 
     16 S16         1.7526  -21.5853  -49.7827 S.3       23 UNK        -0.2404 
     17 C17         1.6164  -21.2504  -47.9917 C.3       23 UNK        -0.0398 
     18 CA          0.6118  -22.2085  -47.3016 C.3       11 UNK         0.1400 
     19 N           0.7108  -22.1732  -45.8402 N.am      11 UNK        -0.5000 
     20 C           0.0624  -23.0081  -45.0124 C.2       10 UNK         0.5000 
     21 O          -0.6386  -23.9471  -45.3920 O.2       10 UNK        -0.5000 
     22 CA          0.1680  -22.7115  -43.5056 C.3       10 UNK         0.1400 
     23 CB          1.5035  -23.2144  -42.9382 C.3       10 UNK        -0.1800 
     24 N           0.0028  -21.2892  -43.2039 N.am      10 UNK        -0.5000 
     25 C          -1.1128  -20.5879  -43.4528 C.2       9 UNK         0.5000 
     26 O          -2.1470  -21.0824  -43.8994 O.2       9 UNK        -0.5000 
     27 CA         -1.0501  -19.0697  -43.2176 C.3       9 UNK         0.1400 
     28 CB         -1.2636  -18.7342  -41.7349 C.3       9 UNK        -0.1800 
     29 N           0.2028  -18.4752  -43.6824 N.am      9 UNK        -0.5000 
     30 C           0.6335  -18.4850  -44.9517 C.2       8 UNK         0.5000 
     31 O           0.0075  -18.9897  -45.8796 O.2       8 UNK        -0.5000 
     32 CA          2.0224  -17.8816  -45.2152 C.3       8 UNK         0.1400 
     33 CB          1.9855  -16.3452  -45.1838 C.3       8 UNK        -0.1800 
     34 N           3.0033  -18.3670  -44.2473 N.am      8 UNK        -0.5000 
     35 C           3.4199  -19.6379  -44.1600 C.2       7 UNK         0.5000 
     36 O           3.0652  -20.5307  -44.9305 O.2       7 UNK        -0.5000 
     37 CA          4.3595  -19.9680  -42.9860 C.3       7 UNK         0.1400 
     38 CB          5.8171  -19.6567  -43.3562 C.3       7 UNK        -0.1800 
     39 N           4.0030  -19.2438  -41.7629 N.am      7 UNK        -0.5000 
     40 C           2.8889  -19.4686  -41.0516 C.2       6 UNK         0.5000 
     41 O           2.0565  -20.3279  -41.3399 O.2       6 UNK        -0.5000 
     42 CA          2.6402  -18.5418  -39.8458 C.3       6 UNK         0.1400 
     43 CB          3.4403  -19.0147  -38.6230 C.3       6 UNK        -0.1800 
     44 N           2.9512  -17.1347  -40.1215 N.am      6 UNK        -0.5000 
     45 C           2.3305  -16.3958  -41.0500 C.2       5 UNK         0.5000 
     46 O           1.4533  -16.8389  -41.7924 O.2       5 UNK        -0.5000 
     47 CA          2.8074  -14.9442  -41.2204 C.3       5 UNK         0.1400 
     48 CB          4.0917  -14.9018  -42.0640 C.3       5 UNK        -0.1800 
     49 N           1.7835  -14.1400  -41.8877 N.am      5 UNK        -0.5000 
     50 C           0.7406  -13.5683  -41.2725 C.2       4 UNK         0.5000 
     51 O           0.5704  -13.5806  -40.0525 O.2       4 UNK        -0.5000 
     52 CA         -0.2841  -12.8658  -42.1807 C.3       4 UNK         0.1400 
     53 CB          0.2591  -11.5175  -42.6808 C.3       4 UNK        -0.1800 
     54 N          -0.6599  -13.6883  -43.3314 N.am      4 UNK        -0.5000 
     55 C          -1.5423  -14.6974  -43.2909 C.2       3 UNK         0.5000 
     56 O          -2.1180  -15.0498  -42.2608 O.2       3 UNK        -0.5000 
     57 CA         -1.8305  -15.4370  -44.6185 C.3       3 UNK         0.1400 
     58 CB         -3.2872  -15.9329  -44.7267 C.3       3 UNK        -0.1800 
     59 N          -1.4277  -14.6992  -45.8234 N.am      3 UNK        -0.5000 
     60 C          -1.9324  -13.5391  -46.2811 C.2       2 UNK         0.5000 
     61 O          -2.8741  -12.9497  -45.7508 O.2       2 UNK        -0.5000 
     62 CA         -1.2506  -12.8977  -47.5070 C.3       2 UNK         0.1400 
     63 CB         -0.4686  -11.6483  -47.0417 C.3       2 UNK        -0.1800 
     64 N          -0.3692  -13.8540  -48.1828 N.am      2 UNK        -0.5000 
     65 C           0.4560  -13.6517  -49.2138 C.2       1 UNK         0.5000 
     66 O           0.5338  -12.5981  -49.8466 O.2       1 UNK        -0.5000 
     67 C          -0.8367  -21.9638  -47.7718 C.2       11 UNK         0.5000 
     68 O          -1.3622  -22.7655  -48.5421 O.2       11 UNK        -0.5000 
     69 N          -1.4680  -20.8949  -47.2662 N.am      12 UNK        -0.5000 
     70 CA         -2.8449  -20.5150  -47.5739 C.3       12 UNK         0.1400 
     71 CB         -3.1906  -19.1892  -46.8806 C.3       12 UNK        -0.1800 
     72 C          -3.8640  -21.6067  -47.2102 C.2       12 UNK         0.5000 
     73 O          -4.7411  -21.8972  -48.0227 O.2       12 UNK        -0.5000 
     74 N          -3.7101  -22.2160  -46.0269 N.am      13 UNK        -0.5000 
     75 CA         -4.5249  -23.3352  -45.5556 C.3       13 UNK         0.1400 
     76 CB         -4.1711  -23.6567  -44.0957 C.3       13 UNK        -0.1800 
     77 C          -4.3840  -24.5844  -46.4426 C.2       13 UNK         0.5000 
     78 O          -5.3982  -25.1526  -46.8506 O.2       13 UNK        -0.5000 
     79 N          -3.1370  -24.9625  -46.7616 N.am      14 UNK        -0.5000 
     80 CA         -2.8111  -26.0876  -47.6431 C.3       14 UNK         0.1400 
     81 CB         -1.2935  -26.3243  -47.6291 C.3       14 UNK        -0.1800 
     82 C          -3.3165  -25.8905  -49.0853 C.2       14 UNK         0.5000 
     83 O          -3.7608  -26.8510  -49.7144 O.2       14 UNK        -0.5000 
     84 N          -3.2718  -24.6420  -49.5637 N.am      15 UNK        -0.5000 
     85 CA         -3.7389  -24.2121  -50.8794 C.3       15 UNK         0.1400 
     86 CB         -2.8937  -23.0098  -51.3251 C.3       15 UNK        -0.1800 
     87 C          -5.2488  -23.8963  -50.9395 C.2       15 UNK         0.5000 
     88 O          -5.6919  -23.3357  -51.9427 O.2       15 UNK        -0.5000 
     89 N          -6.0084  -24.2561  -49.8928 N.am      16 UNK        -0.5000 
     90 CA         -7.4643  -24.1286  -49.7656 C.3       16 UNK         0.1400 
     91 CB         -8.1820  -25.0288  -50.7937 C.3       16 UNK        -0.1800 
     92 C          -7.9310  -22.6608  -49.8212 C.2       16 UNK         0.5000 
     93 O          -8.6381  -22.2619  -50.7474 O.2       16 UNK        -0.5000 
     94 N          -7.4867  -21.8810  -48.8269 N.am      17 UNK        -0.5000 
     95 CA         -7.6726  -20.4326  -48.6796 C.3       17 UNK         0.1400 
     96 CB         -9.1642  -20.0587  -48.5470 C.3       17 UNK        -0.1800 
     97 C          -6.9339  -19.6493  -49.7833 C.2       17 UNK         0.5000 
     98 O          -7.4708  -18.6887  -50.3360 O.2       17 UNK        -0.5000 
     99 N          -5.7093  -20.1074  -50.0837 N.am      18 UNK        -0.5000 
    100 CA        -4.7581  -19.5893  -51.0746 C.3       18 UNK         0.1400 
    101 CB        -4.3731  -18.1306  -50.7560 C.3       18 UNK        -0.1800 
    102 C         -5.1901  -19.7557  -52.5469 C.2       18 UNK         0.5000 
    103 O         -4.4628  -19.2980  -53.4292 O.2       18 UNK        -0.5000 
    104 N         -6.3297  -20.4135  -52.8025 N.am      19 UNK        -0.5000 
    105 CA        -6.9463  -20.5730  -54.1212 C.3       19 UNK         0.1400 
    106 CB        -8.3179  -21.2433  -53.9558 C.3       19 UNK        -0.1800 
    107 C         -6.0844  -21.3555  -55.1278 C.2       19 UNK         0.5000 
    108 O         -6.0738  -21.0128  -56.3106 O.2       19 UNK        -0.5000 
    109 N         -5.3650  -22.3744  -54.6414 N.am      20 UNK        -0.5000 
    110 CA        -4.4262  -23.1759  -55.4300 C.3       20 UNK         0.1400 
    111 CB        -4.3593  -24.5900  -54.8318 C.3       20 UNK        -0.1800 
    112 C         -3.0182  -22.5479  -55.5155 C.2       20 UNK         0.5000 
    113 O         -2.1524  -23.1142  -56.1847 O.2       20 UNK        -0.5000 
    114 N         -2.8032  -21.4151  -54.8350 N.am      21 UNK        -0.5000 
    115 CA        -1.5532  -20.6639  -54.7976 C.3       21 UNK         0.1400 
    116 CB        -1.0378  -20.6238  -53.3417 C.3       21 UNK        -0.1800 
    117 C         -1.7788  -19.2715  -55.4188 C.2       21 UNK         0.5000 
    118 O         -2.4810  -19.1523  -56.4251 O.2       21 UNK        -0.5000 
    119 N         -1.1606  -18.2481  -54.8247 N.am      22 UNK        -0.5000 
    120 CA        -1.2079  -16.8378  -55.2353 C.3       22 UNK         0.1400 
    121 C         -2.4475  -16.0403  -54.7259 C.2       22 UNK         0.5000 
    122 N         -3.4358  -16.6530  -54.0864 N.am      22 UNK        -0.7600 
    123 O         -2.5296  -14.8328  -54.9349 O.2       22 UNK        -0.5000 
    124 C124        0.1372  -16.1256  -54.9211 C.3       23 UNK        -0.0398 
    125 S125        0.7279  -16.3735  -53.2069 S.3       23 UNK        -0.2404 
    126 C126        2.2374  -17.3473  -53.5042 C.3       23 UNK        -0.0205 
    127 H127       -0.4326  -18.2431  -50.7075 H         1 UNK         0.0600 
    128 H128       -1.7331  -18.1445  -49.5161 H         1 UNK         0.0600 
    129 H129       -0.2454  -19.0074  -49.1288 H         1 UNK         0.0600 
    130 H130        0.6902  -16.3587  -50.8673 H         1 UNK         0.3000 
    131 H131        1.8064  -14.5713  -50.5518 H         1 UNK         0.0600 
    132 H132        2.3503  -14.4686  -47.6408 H         1 UNK         0.0800 
    133 H133        2.5503  -16.0856  -48.2138 H         1 UNK         0.0800 
    134 H134        5.9398  -16.0749  -49.8023 H         1 UNK         0.0800 
    135 H135        5.1110  -16.6095  -48.3604 H         1 UNK         0.0800 
    136 H136        3.6761  -15.8281  -51.7750 H         1 UNK         0.1150 
    137 H137        2.2920  -19.8369  -52.3732 H         1 UNK         0.1150 
    138 H138        4.5620  -18.8621  -48.8742 H         1 UNK         0.1150 
    139 H139        3.8085  -21.5578  -51.0118 H         1 UNK         0.0800 
    140 H140        4.0962  -21.1581  -49.3423 H         1 UNK         0.0800 
    141 H141        1.3496  -20.2046  -47.8369 H         1 UNK         0.0800 
    142 H142        2.6016  -21.3792  -47.5421 H         1 UNK         0.0800 
    143 H143        0.8750  -23.2268  -47.5967 H         1 UNK         0.0600 
    144 H144        1.2885  -21.4402  -45.4427 H         1 UNK         0.3000 
    145 H145       -0.6376  -23.2522  -43.0045 H         1 UNK         0.0600 
    146 H146        1.5473  -23.0798  -41.8573 H         1 UNK         0.0600 
    147 H147        1.6373  -24.2780  -43.1393 H         1 UNK         0.0600 
    148 H148        2.3522  -22.6879  -43.3748 H         1 UNK         0.0600 
    149 H149        0.7936  -20.8178  -42.7752 H         1 UNK         0.3000 
    150 H150       -1.8623  -18.6153  -43.7873 H         1 UNK         0.0600 
    151 H151       -2.2079  -19.1431  -41.3736 H         1 UNK         0.0600 
    152 H152       -1.2933  -17.6562  -41.5756 H         1 UNK         0.0600 
    153 H153       -0.4674  -19.1410  -41.1112 H         1 UNK         0.0600 
    154 H154        0.7656  -18.0036  -42.9763 H         1 UNK         0.3000 
    155 H155        2.3404  -18.1939  -46.2126 H         1 UNK         0.0600 
    156 H156        1.6675  -15.9627  -44.2159 H         1 UNK         0.0600 
    157 H157        2.9649  -15.9230  -45.4088 H         1 UNK         0.0600 
    158 H158        1.2895  -15.9564  -45.9234 H         1 UNK         0.0600 
    159 H159        3.3111  -17.7135  -43.5443 H         1 UNK         0.3000 
    160 H160        4.2789  -21.0385  -42.7857 H         1 UNK         0.0600 
    161 H161        5.9682  -18.5933  -43.5463 H         1 UNK         0.0600 
    162 H162        6.1145  -20.1967  -44.2561 H         1 UNK         0.0600 
    163 H163        6.4984  -19.9557  -42.5594 H         1 UNK         0.0600 
    164 H164        4.6357  -18.5198  -41.4561 H         1 UNK         0.3000 
    165 H165        1.5781  -18.6039  -39.5995 H         1 UNK         0.0600 
    166 H166        3.1963  -18.4241  -37.7398 H         1 UNK         0.0600 
    167 H167        3.2147  -20.0559  -38.3880 H         1 UNK         0.0600 
    168 H168        4.5157  -18.9414  -38.7898 H         1 UNK         0.0600 
    169 H169        3.6722  -16.7115  -39.5548 H         1 UNK         0.3000 
    170 H170        3.0179  -14.5238  -40.2347 H         1 UNK         0.0600 
    171 H171        3.9407  -15.3255  -43.0572 H         1 UNK         0.0600 
    172 H172        4.4450  -13.8780  -42.1889 H         1 UNK         0.0600 
    173 H173        4.8958  -15.4632  -41.5867 H         1 UNK         0.0600 
    174 H174        1.8199  -14.1132  -42.8943 H         1 UNK         0.3000 
    175 H175       -1.1778  -12.6658  -41.5853 H         1 UNK         0.0600 
    176 H176       -0.4915  -10.9840  -43.2645 H         1 UNK         0.0600 
    177 H177        1.1434  -11.6413  -43.3071 H         1 UNK         0.0600 
    178 H178        0.5364  -10.8747  -41.8444 H         1 UNK         0.0600 
    179 H179       -0.2449  -13.4519  -44.2191 H         1 UNK         0.3000 
    180 H180       -1.1964  -16.3196  -44.6008 H         1 UNK         0.0600 
    181 H181       -4.0014  -15.1119  -44.6633 H         1 UNK         0.0600 
    182 H182       -3.5236  -16.6323  -43.9241 H         1 UNK         0.0600 
    183 H183       -3.4564  -16.4535  -45.6689 H         1 UNK         0.0600 
    184 H184       -0.6854  -15.1442  -46.3448 H         1 UNK         0.3000 
    185 H185       -2.0335  -12.5976  -48.2054 H         1 UNK         0.0600 
    186 H186       -1.0947  -10.9913  -46.4362 H         1 UNK         0.0600 
    187 H187        0.3987  -11.9195  -46.4387 H         1 UNK         0.0600 
    188 H188       -0.1191  -11.0508  -47.8827 H         1 UNK         0.0600 
    189 H189       -0.4304  -14.8199  -47.8696 H         1 UNK         0.3000 
    190 H190       -0.9513  -20.2652  -46.6527 H         1 UNK         0.3000 
    191 H191       -2.9002  -20.3570  -48.6521 H         1 UNK         0.0600 
    192 H192       -2.4961  -18.3989  -47.1660 H         1 UNK         0.0600 
    193 H193       -4.1932  -18.8563  -47.1519 H         1 UNK         0.0600 
    194 H194       -3.1571  -19.2821  -45.7952 H         1 UNK         0.0600 
    195 H195       -2.9864  -21.8836  -45.3940 H         1 UNK         0.3000 
    196 H196       -5.5702  -23.0213  -45.5886 H         1 UNK         0.0600 
    197 H197       -4.7656  -24.4916  -43.7227 H         1 UNK         0.0600 
    198 H198       -4.3669  -22.8026  -43.4472 H         1 UNK         0.0600 
    199 H199       -3.1197  -23.9244  -43.9850 H         1 UNK         0.0600 
    200 H200       -2.3512  -24.4430  -46.3820 H         1 UNK         0.3000 
    201 H201       -3.2986  -26.9779  -47.2409 H         1 UNK         0.0600 
    202 H202       -0.9391  -26.5479  -46.6227 H         1 UNK         0.0600 
    203 H203       -0.7474  -25.4513  -47.9886 H         1 UNK         0.0600 
    204 H204       -1.0223  -27.1678  -48.2651 H         1 UNK         0.0600 
    205 H205       -2.8243  -23.9261  -48.9964 H         1 UNK         0.3000 
    206 H206       -3.5637  -25.0224  -51.5885 H         1 UNK         0.0600 
    207 H207       -1.8421  -23.2844  -51.4072 H         1 UNK         0.0600 
    208 H208       -3.2067  -22.6307  -52.2973 H         1 UNK         0.0600 
    209 H209       -2.9641  -22.1935  -50.6087 H         1 UNK         0.0600 
    210 H210       -5.5392  -24.6627  -49.0934 H         1 UNK         0.3000 
    211 H211       -7.7200  -24.5009  -48.7724 H         1 UNK         0.0600 
    212 H212       -7.9918  -24.7120  -51.8197 H         1 UNK         0.0600 
    213 H213       -9.2617  -25.0062  -50.6418 H         1 UNK         0.0600 
    214 H214       -7.8618  -26.0663  -50.6992 H         1 UNK         0.0600 
    215 H215       -6.8136  -22.2854  -48.1862 H         1 UNK         0.3000 
    216 H216       -7.1857  -20.1606  -47.7419 H         1 UNK         0.0600 
    217 H217       -9.2780  -19.0059  -48.2865 H         1 UNK         0.0600 
    218 H218       -9.6484  -20.6408  -47.7630 H         1 UNK         0.0600 
    219 H219       -9.7121  -20.2231  -49.4751 H         1 UNK         0.0600 
    220 H220       -5.3870  -20.9090  -49.5480 H         1 UNK         0.3000 
    221 H221       -3.8549  -20.1854  -50.9627 H         1 UNK         0.0600 
    222 H222       -5.1847  -17.4388  -50.9825 H         1 UNK         0.0600 
    223 H223       -4.1154  -18.0081  -49.7043 H         1 UNK         0.0600 
    224 H224       -3.5082  -17.8176  -51.3418 H         1 UNK         0.0600 
    225 H225       -6.8380  -20.8078  -52.0229 H         1 UNK         0.3000 
    226 H226       -7.1024  -19.5730  -54.5307 H         1 UNK         0.0600 
    227 H227       -8.9660  -20.6608  -53.3006 H         1 UNK         0.0600 
    228 H228       -8.8260  -21.3399  -54.9161 H         1 UNK         0.0600 
    229 H229       -8.2246  -22.2434  -53.5298 H         1 UNK         0.0600 
    230 H230       -5.4621  -22.6158  -53.6566 H         1 UNK         0.3000 
    231 H231       -4.8028  -23.2654  -56.4509 H         1 UNK         0.0600 
    232 H232       -3.9014  -24.5840  -53.8446 H         1 UNK         0.0600 
    233 H233       -3.7665  -25.2538  -55.4621 H         1 UNK         0.0600 
    234 H234       -5.3526  -25.0300  -54.7400 H         1 UNK         0.0600 
    235 H235       -3.5929  -20.9591  -54.3934 H         1 UNK         0.3000 
    236 H236       -0.7925  -21.1525  -55.4091 H         1 UNK         0.0600 
    237 H237       -0.8937  -21.6323  -52.9557 H         1 UNK         0.0600 
    238 H238       -0.0704  -20.1262  -53.2680 H         1 UNK         0.0600 
    239 H239       -1.7336  -20.1099  -52.6771 H         1 UNK         0.0600 
    240 H240       -0.6297  -18.4252  -53.9849 H         1 UNK         0.3000 
    241 H241       -1.3131  -16.8207  -56.3216 H         1 UNK         0.0600 
    242 H242       -3.4553  -17.6582  -53.9566 H         1 UNK         0.3800 
    243 H243       -4.2245  -16.1062  -53.7828 H         1 UNK         0.3800 
    244 H244        0.8969  -16.4923  -55.6125 H         1 UNK         0.0800 
    245 H245        0.0754  -15.0540  -55.1169 H         1 UNK         0.0800 
    246 H246        1.9933  -18.2192  -54.1133 H         1 UNK         0.0800 
    247 H247        2.9441  -16.7520  -54.0844 H         1 UNK         0.0800 
@<TRIPOS>BOND
     1    1    2 1    
     2    1  127 1    
     3    1  128 1    
     4    1  129 1    
     5    2    3 2    
     6    2    4 am   BACKBONE|DICT|INTERRES
     7    4    5 1    
     8    4  130 1    
     9    5    6 1    
    10    5   65 1    
    11    5  131 1    
    12    6    7 1    
    13    6  132 1    
    14    6  133 1    
    15    7    8 1    
    16    8    9 1    
    17    8  134 1    
    18    8  135 1    
    19    9   10 ar   
    20    9   14 ar   
    21   10   11 ar   
    22   10  136 1    
    23   11   12 ar   
    24   11  126 1    
    25   12   13 ar   
    26   12  137 1    
    27   13   14 ar   
    28   13   15 1    
    29   14  138 1    
    30   15   16 1    
    31   15  139 1    
    32   15  140 1    
    33   16   17 1    
    34   17   18 1    
    35   17  141 1    
    36   17  142 1    
    37   18   19 1    
    38   18   67 1    
    39   18  143 1    
    40   19   20 am   BACKBONE|DICT|INTERRES
    41   19  144 1    
    42   20   21 2    
    43   20   22 1    
    44   22   23 1    
    45   22   24 1    
    46   22  145 1    
    47   23  146 1    
    48   23  147 1    
    49   23  148 1    
    50   24   25 am   BACKBONE|DICT|INTERRES
    51   24  149 1    
    52   25   26 2    
    53   25   27 1    
    54   27   28 1    
    55   27   29 1    
    56   27  150 1    
    57   28  151 1    
    58   28  152 1    
    59   28  153 1    
    60   29   30 am   BACKBONE|DICT|INTERRES
    61   29  154 1    
    62   30   31 2    
    63   30   32 1    
    64   32   33 1    
    65   32   34 1    
    66   32  155 1    
    67   33  156 1    
    68   33  157 1    
    69   33  158 1    
    70   34   35 am   BACKBONE|DICT|INTERRES
    71   34  159 1    
    72   35   36 2    
    73   35   37 1    
    74   37   38 1    
    75   37   39 1    
    76   37  160 1    
    77   38  161 1    
    78   38  162 1    
    79   38  163 1    
    80   39   40 am   BACKBONE|DICT|INTERRES
    81   39  164 1    
    82   40   41 2    
    83   40   42 1    
    84   42   43 1    
    85   42   44 1    
    86   42  165 1    
    87   43  166 1    
    88   43  167 1    
    89   43  168 1    
    90   44   45 am   BACKBONE|DICT|INTERRES
    91   44  169 1    
    92   45   46 2    
    93   45   47 1    
    94   47   48 1    
    95   47   49 1    
    96   47  170 1    
    97   48  171 1    
    98   48  172 1    
    99   48  173 1    
   100   49   50 am   BACKBONE|DICT|INTERRES
   101   49  174 1    
   102   50   51 2    
   103   50   52 1    
   104   52   53 1    
   105   52   54 1    
   106   52  175 1    
   107   53  176 1    
   108   53  177 1    
   109   53  178 1    
   110   54   55 am   BACKBONE|DICT|INTERRES
   111   54  179 1    
   112   55   56 2    
   113   55   57 1    
   114   57   58 1    
   115   57   59 1    
   116   57  180 1    
   117   58  181 1    
   118   58  182 1    
   119   58  183 1    
   120   59   60 am   BACKBONE|DICT|INTERRES
   121   59  184 1    
   122   60   61 2    
   123   60   62 1    
   124   62   63 1    
   125   62   64 1    
   126   62  185 1    
   127   63  186 1    
   128   63  187 1    
   129   63  188 1    
   130   64   65 am   BACKBONE|DICT|INTERRES
   131   64  189 1    
   132   65   66 2    
   133   67   68 2    
   134   67   69 am   BACKBONE|DICT|INTERRES
   135   69   70 1    
   136   69  190 1    
   137   70   71 1    
   138   70   72 1    
   139   70  191 1    
   140   71  192 1    
   141   71  193 1    
   142   71  194 1    
   143   72   73 2    
   144   72   74 am   BACKBONE|DICT|INTERRES
   145   74   75 1    
   146   74  195 1    
   147   75   76 1    
   148   75   77 1    
   149   75  196 1    
   150   76  197 1    
   151   76  198 1    
   152   76  199 1    
   153   77   78 2    
   154   77   79 am   BACKBONE|DICT|INTERRES
   155   79   80 1    
   156   79  200 1    
   157   80   81 1    
   158   80   82 1    
   159   80  201 1    
   160   81  202 1    
   161   81  203 1    
   162   81  204 1    
   163   82   83 2    
   164   82   84 am   BACKBONE|DICT|INTERRES
   165   84   85 1    
   166   84  205 1    
   167   85   86 1    
   168   85   87 1    
   169   85  206 1    
   170   86  207 1    
   171   86  208 1    
   172   86  209 1    
   173   87   88 2    
   174   87   89 am   BACKBONE|DICT|INTERRES
   175   89   90 1    
   176   89  210 1    
   177   90   91 1    
   178   90   92 1    
   179   90  211 1    
   180   91  212 1    
   181   91  213 1    
   182   91  214 1    
   183   92   93 2    
   184   92   94 am   BACKBONE|DICT|INTERRES
   185   94   95 1    
   186   94  215 1    
   187   95   96 1    
   188   95   97 1    
   189   95  216 1    
   190   96  217 1    
   191   96  218 1    
   192   96  219 1    
   193   97   98 2    
   194   97   99 am   BACKBONE|DICT|INTERRES
   195   99  100 1    
   196   99  220 1    
   197  100  101 1    
   198  100  102 1    
   199  100  221 1    
   200  101  222 1    
   201  101  223 1    
   202  101  224 1    
   203  102  103 2    
   204  102  104 am   BACKBONE|DICT|INTERRES
   205  104  105 1    
   206  104  225 1    
   207  105  106 1    
   208  105  107 1    
   209  105  226 1    
   210  106  227 1    
   211  106  228 1    
   212  106  229 1    
   213  107  108 2    
   214  107  109 am   BACKBONE|DICT|INTERRES
   215  109  110 1    
   216  109  230 1    
   217  110  111 1    
   218  110  112 1    
   219  110  231 1    
   220  111  232 1    
   221  111  233 1    
   222  111  234 1    
   223  112  113 2    
   224  112  114 am   BACKBONE|DICT|INTERRES
   225  114  115 1    
   226  114  235 1    
   227  115  116 1    
   228  115  117 1    
   229  115  236 1    
   230  116  237 1    
   231  116  238 1    
   232  116  239 1    
   233  117  118 2    
   234  117  119 am   BACKBONE|DICT|INTERRES
   235  119  120 1    
   236  119  240 1    
   237  120  121 1    
   238  120  124 1    
   239  120  241 1    
   240  121  122 am   BACKBONE|DICT|INTERRES
   241  121  123 2    
   242  122  242 1    
   243  122  243 1    
   244  124  125 1    
   245  124  244 1    
   246  124  245 1    
   247  125  126 1    
   248  126  246 1    
   249  126  247 1    
@<TRIPOS>SUBSTRUCTURE
     1 UNK         1 GROUP             0       ****    0 ROOT    
