@<TRIPOS>MOLECULE
3R540
247   249    1
SMALL
USER_CHARGES


@<TRIPOS>ATOM
      1 CA          1.5349  -15.0254  -40.5527 C.3       0 UNK        -0.1800 
      2 C           0.6510  -13.8018  -40.7545 C.2       0 UNK         0.5000 
      3 O           0.8700  -12.7757  -40.1116 O.2       0 UNK        -0.5000 
      4 N          -0.3509  -13.9224  -41.6332 N.am      1 UNK        -0.5000 
      5 CA         -1.2877  -12.8712  -42.0391 C.3       1 UNK         0.1400 
      6 C6         -2.6283  -13.4767  -42.5440 C.3       23 UNK        -0.0398 
      7 S7         -2.4423  -14.8265  -43.7683 S.3       23 UNK        -0.2404 
      8 C8         -4.1336  -14.9104  -44.4262 C.3       23 UNK        -0.0205 
      9 C9         -4.3430  -16.1945  -45.2099 C.ar      23 UNK        -0.0193 
     10 C10        -4.1526  -16.2236  -46.5934 C.ar      23 UNK        -0.1150 
     11 C11        -4.3348  -17.4101  -47.3105 C.ar      23 UNK        -0.0193 
     12 C12        -4.7027  -18.5760  -46.6299 C.ar      23 UNK        -0.1150 
     13 C13        -4.9046  -18.5570  -45.2448 C.ar      23 UNK        -0.0193 
     14 C14        -4.7309  -17.3594  -44.5447 C.ar      23 UNK        -0.1150 
     15 C15        -5.3449  -19.8208  -44.5134 C.3       23 UNK        -0.0205 
     16 S16        -4.3388  -20.2116  -43.0372 S.3       23 UNK        -0.2404 
     17 C17        -2.6294  -20.2513  -43.6822 C.3       23 UNK        -0.0398 
     18 CA         -2.3846  -21.2907  -44.7996 C.3       11 UNK         0.1400 
     19 N          -1.1198  -21.0420  -45.4918 N.am      11 UNK        -0.5000 
     20 C          -0.7577  -21.6341  -46.6374 C.2       10 UNK         0.5000 
     21 O          -1.4477  -22.4651  -47.2259 O.2       10 UNK        -0.5000 
     22 CA          0.6217  -21.2652  -47.1979 C.3       10 UNK         0.1400 
     23 CB          0.5474  -19.9390  -47.9658 C.3       10 UNK        -0.1800 
     24 N           1.6233  -21.1831  -46.1346 N.am      10 UNK        -0.5000 
     25 C           2.1145  -22.2567  -45.4971 C.2       9 UNK         0.5000 
     26 O           1.8134  -23.4164  -45.7812 O.2       9 UNK        -0.5000 
     27 CA          3.0727  -21.9911  -44.3212 C.3       9 UNK         0.1400 
     28 CB          4.4978  -21.7289  -44.8308 C.3       9 UNK        -0.1800 
     29 N           2.6489  -20.8751  -43.4741 N.am      9 UNK        -0.5000 
     30 C           1.5144  -20.8434  -42.7603 C.2       8 UNK         0.5000 
     31 O           0.6976  -21.7611  -42.7325 O.2       8 UNK        -0.5000 
     32 CA          1.2154  -19.5521  -41.9778 C.3       8 UNK         0.1400 
     33 CB          1.7784  -19.6414  -40.5520 C.3       8 UNK        -0.1800 
     34 N           1.7283  -18.3429  -42.6244 N.am      8 UNK        -0.5000 
     35 C           1.3520  -17.9034  -43.8324 C.2       7 UNK         0.5000 
     36 O           0.5413  -18.4980  -44.5503 O.2       7 UNK        -0.5000 
     37 CA          1.9997  -16.5791  -44.2821 C.3       7 UNK         0.1400 
     38 CB          3.5365  -16.7038  -44.3874 C.3       7 UNK        -0.1800 
     39 N           1.3938  -16.0586  -45.5112 N.am      7 UNK        -0.5000 
     40 C           1.5496  -16.5009  -46.7672 C.2       6 UNK         0.5000 
     41 O           2.3920  -17.3277  -47.1169 O.2       6 UNK        -0.5000 
     42 CA          0.5847  -15.9181  -47.8126 C.3       6 UNK         0.1400 
     43 CB         -0.7533  -15.4455  -47.2057 C.3       6 UNK        -0.1800 
     44 N           1.2173  -14.7905  -48.4848 N.am      6 UNK        -0.5000 
     45 C           1.8702  -14.8494  -49.6509 C.2       5 UNK         0.5000 
     46 O           2.0115  -15.8831  -50.3051 O.2       5 UNK        -0.5000 
     47 CA          2.4638  -13.5350  -50.1857 C.3       5 UNK         0.1400 
     48 CB          1.3882  -12.7051  -50.9050 C.3       5 UNK        -0.1800 
     49 N           3.0649  -12.7181  -49.1282 N.am      5 UNK        -0.5000 
     50 C           4.2746  -12.1441  -49.2061 C.2       4 UNK         0.5000 
     51 O           5.0345  -12.2828  -50.1660 O.2       4 UNK        -0.5000 
     52 CA          4.7212  -11.2420  -48.0348 C.3       4 UNK         0.1400 
     53 CB          4.5374   -9.7612  -48.4021 C.3       4 UNK        -0.1800 
     54 N           4.0111  -11.5042  -46.7836 N.am      4 UNK        -0.5000 
     55 C           4.1626  -12.6022  -46.0335 C.2       3 UNK         0.5000 
     56 O           4.9940  -13.4782  -46.2716 O.2       3 UNK        -0.5000 
     57 CA          3.2164  -12.7691  -44.8272 C.3       3 UNK         0.1400 
     58 CB          3.9563  -12.4963  -43.5094 C.3       3 UNK        -0.1800 
     59 N           1.9838  -11.9736  -44.8502 N.am      3 UNK        -0.5000 
     60 C           1.0401  -11.9884  -45.8002 C.2       2 UNK         0.5000 
     61 O           1.1765  -12.5533  -46.8856 O.2       2 UNK        -0.5000 
     62 CA         -0.2970  -11.3138  -45.4397 C.3       2 UNK         0.1400 
     63 CB         -1.2769  -11.2755  -46.6263 C.3       2 UNK        -0.1800 
     64 N          -0.9294  -12.0298  -44.3315 N.am      2 UNK        -0.5000 
     65 C          -0.6070  -11.9059  -43.0377 C.2       1 UNK         0.5000 
     66 O           0.2194  -11.0852  -42.6341 O.2       1 UNK        -0.5000 
     67 C          -2.5067  -22.7498  -44.3049 C.2       11 UNK         0.5000 
     68 O          -3.5612  -23.3599  -44.4818 O.2       11 UNK        -0.5000 
     69 N          -1.4125  -23.3146  -43.7730 N.am      12 UNK        -0.5000 
     70 CA         -1.3055  -24.7185  -43.3611 C.3       12 UNK         0.1400 
     71 CB          0.0338  -24.9353  -42.6410 C.3       12 UNK        -0.1800 
     72 C          -1.4540  -25.7157  -44.5277 C.2       12 UNK         0.5000 
     73 O          -1.9499  -26.8233  -44.3200 O.2       12 UNK        -0.5000 
     74 N          -1.0570  -25.2936  -45.7352 N.am      13 UNK        -0.5000 
     75 CA         -1.2384  -26.0280  -46.9882 C.3       13 UNK         0.1400 
     76 CB         -0.0984  -25.6452  -47.9477 C.3       13 UNK        -0.1800 
     77 C          -2.6132  -25.7679  -47.6411 C.2       13 UNK         0.5000 
     78 O          -2.8548  -26.2650  -48.7425 O.2       13 UNK        -0.5000 
     79 N          -3.4719  -24.9644  -46.9926 N.am      14 UNK        -0.5000 
     80 CA         -4.7809  -24.4974  -47.4606 C.3       14 UNK         0.1400 
     81 CB         -5.7858  -25.6664  -47.5234 C.3       14 UNK        -0.1800 
     82 C          -4.6847  -23.7096  -48.7828 C.2       14 UNK         0.5000 
     83 O          -5.5261  -23.8785  -49.6649 O.2       14 UNK        -0.5000 
     84 N          -3.6251  -22.8972  -48.9120 N.am      15 UNK        -0.5000 
     85 CA         -3.2322  -22.1368  -50.1013 C.3       15 UNK         0.1400 
     86 CB         -4.2693  -21.0439  -50.4053 C.3       15 UNK        -0.1800 
     87 C          -2.9301  -23.0581  -51.3027 C.2       15 UNK         0.5000 
     88 O          -3.3476  -22.7774  -52.4308 O.2       15 UNK        -0.5000 
     89 N          -2.2321  -24.1642  -50.9995 N.am      16 UNK        -0.5000 
     90 CA         -1.9261  -25.3099  -51.8608 C.3       16 UNK         0.1400 
     91 CB         -0.9793  -24.9031  -53.0073 C.3       16 UNK        -0.1800 
     92 C          -3.2139  -25.9966  -52.3525 C.2       16 UNK         0.5000 
     93 O          -3.4012  -26.1686  -53.5562 O.2       16 UNK        -0.5000 
     94 N          -4.1111  -26.3138  -51.4065 N.am      17 UNK        -0.5000 
     95 CA         -5.4731  -26.8234  -51.6255 C.3       17 UNK         0.1400 
     96 CB         -5.4279  -28.2893  -52.1022 C.3       17 UNK        -0.1800 
     97 C          -6.3023  -25.9087  -52.5576 C.2       17 UNK         0.5000 
     98 O          -6.9891  -26.3884  -53.4611 O.2       17 UNK        -0.5000 
     99 N          -6.1661  -24.5948  -52.3332 N.am      18 UNK        -0.5000 
    100 CA        -6.7111  -23.4665  -53.0912 C.3       18 UNK         0.1400 
    101 CB        -8.2521  -23.4647  -53.0346 C.3       18 UNK        -0.1800 
    102 C         -6.1806  -23.3208  -54.5356 C.2       18 UNK         0.5000 
    103 O         -6.6885  -22.4673  -55.2646 O.2       18 UNK        -0.5000 
    104 N         -5.1766  -24.1143  -54.9411 N.am      19 UNK        -0.5000 
    105 CA        -4.6053  -24.0704  -56.2891 C.3       19 UNK         0.1400 
    106 CB        -3.8793  -25.3876  -56.6001 C.3       19 UNK        -0.1800 
    107 C         -3.6596  -22.8748  -56.4914 C.2       19 UNK         0.5000 
    108 O         -3.6246  -22.3189  -57.5902 O.2       19 UNK        -0.5000 
    109 N         -2.9178  -22.4953  -55.4409 N.am      20 UNK        -0.5000 
    110 CA        -2.0411  -21.3230  -55.4539 C.3       20 UNK         0.1400 
    111 CB        -0.8392  -21.5523  -54.5241 C.3       20 UNK        -0.1800 
    112 C         -2.8025  -20.0541  -55.0444 C.2       20 UNK         0.5000 
    113 O         -2.4830  -18.9724  -55.5398 O.2       20 UNK        -0.5000 
    114 N         -3.7752  -20.2047  -54.1292 N.am      21 UNK        -0.5000 
    115 CA        -4.6634  -19.1579  -53.5987 C.3       21 UNK         0.1400 
    116 CB        -5.6226  -18.6655  -54.7014 C.3       21 UNK        -0.1800 
    117 C         -3.9153  -17.9939  -52.9037 C.2       21 UNK         0.5000 
    118 O         -4.4584  -16.8937  -52.7944 O.2       21 UNK        -0.5000 
    119 N         -2.6755  -18.2612  -52.4672 N.am      22 UNK        -0.5000 
    120 CA        -1.6906  -17.2907  -51.9604 C.3       22 UNK         0.1400 
    121 C         -1.2075  -16.2619  -53.0322 C.2       22 UNK         0.5000 
    122 N         -1.3420  -16.5360  -54.3257 N.am      22 UNK        -0.7600 
    123 O         -0.6815  -15.2054  -52.6961 O.2       22 UNK        -0.5000 
    124 C124       -2.1105  -16.6180  -50.6244 C.3       23 UNK        -0.0398 
    125 S125       -2.4431  -17.8223  -49.2868 S.3       23 UNK        -0.2404 
    126 C126       -4.1565  -17.4171  -48.8214 C.3       23 UNK        -0.0205 
    127 H127        1.7014  -15.1989  -39.4896 H         1 UNK         0.0600 
    128 H128        2.5028  -14.8721  -41.0298 H         1 UNK         0.0600 
    129 H129        1.0810  -15.9237  -40.9711 H         1 UNK         0.0600 
    130 H130       -0.4858  -14.8019  -42.1106 H         1 UNK         0.3000 
    131 H131       -1.5250  -12.2710  -41.1580 H         1 UNK         0.0600 
    132 H132       -3.1693  -13.8901  -41.6916 H         1 UNK         0.0800 
    133 H133       -3.2782  -12.6970  -42.9463 H         1 UNK         0.0800 
    134 H134       -4.8504  -14.8615  -43.6048 H         1 UNK         0.0800 
    135 H135       -4.3242  -14.0411  -45.0574 H         1 UNK         0.0800 
    136 H136       -3.8595  -15.3221  -47.1128 H         1 UNK         0.1150 
    137 H137       -4.8433  -19.4937  -47.1833 H         1 UNK         0.1150 
    138 H138       -4.8872  -17.3362  -43.4753 H         1 UNK         0.1150 
    139 H139       -6.3796  -19.6875  -44.1956 H         1 UNK         0.0800 
    140 H140       -5.3500  -20.6811  -45.1838 H         1 UNK         0.0800 
    141 H141       -1.9512  -20.4262  -42.8458 H         1 UNK         0.0800 
    142 H142       -2.3926  -19.2507  -44.0482 H         1 UNK         0.0800 
    143 H143       -3.1556  -21.1544  -45.5588 H         1 UNK         0.0600 
    144 H144       -0.4991  -20.3524  -45.0839 H         1 UNK         0.3000 
    145 H145        0.9222  -22.0464  -47.8996 H         1 UNK         0.0600 
    146 H146        1.5185  -19.6633  -48.3768 H         1 UNK         0.0600 
    147 H147       -0.1504  -20.0114  -48.8010 H         1 UNK         0.0600 
    148 H148        0.2057  -19.1240  -47.3272 H         1 UNK         0.0600 
    149 H149        1.8840  -20.2583  -45.8217 H         1 UNK         0.3000 
    150 H150        3.0917  -22.8906  -43.7020 H         1 UNK         0.0600 
    151 H151        4.8469  -22.5531  -45.4544 H         1 UNK         0.0600 
    152 H152        5.2005  -21.6292  -44.0034 H         1 UNK         0.0600 
    153 H153        4.5517  -20.8185  -45.4293 H         1 UNK         0.0600 
    154 H154        3.2578  -20.0713  -43.4411 H         1 UNK         0.3000 
    155 H155        0.1303  -19.4549  -41.9087 H         1 UNK         0.0600 
    156 H156        1.3936  -20.5216  -40.0350 H         1 UNK         0.0600 
    157 H157        1.4960  -18.7701  -39.9606 H         1 UNK         0.0600 
    158 H158        2.8670  -19.7102  -40.5517 H         1 UNK         0.0600 
    159 H159        2.4067  -17.8127  -42.0975 H         1 UNK         0.3000 
    160 H160        1.7763  -15.8373  -43.5146 H         1 UNK         0.0600 
    161 H161        3.8350  -17.5854  -44.9558 H         1 UNK         0.0600 
    162 H162        3.9917  -16.7894  -43.4004 H         1 UNK         0.0600 
    163 H163        3.9836  -15.8366  -44.8713 H         1 UNK         0.0600 
    164 H164        0.6395  -15.4047  -45.3634 H         1 UNK         0.3000 
    165 H165        0.3644  -16.7121  -48.5288 H         1 UNK         0.0600 
    166 H166       -1.4424  -15.1220  -47.9850 H         1 UNK         0.0600 
    167 H167       -1.2405  -16.2566  -46.6621 H         1 UNK         0.0600 
    168 H168       -0.6325  -14.6089  -46.5182 H         1 UNK         0.0600 
    169 H169        1.1723  -13.9056  -47.9836 H         1 UNK         0.3000 
    170 H170        3.2200  -13.8152  -50.9218 H         1 UNK         0.0600 
    171 H171        0.9276  -13.2770  -51.7107 H         1 UNK         0.0600 
    172 H172        0.5947  -12.3971  -50.2228 H         1 UNK         0.0600 
    173 H173        1.8161  -11.8063  -51.3492 H         1 UNK         0.0600 
    174 H174        2.5057  -12.5677  -48.2946 H         1 UNK         0.3000 
    175 H175        5.7852  -11.4231  -47.8688 H         1 UNK         0.0600 
    176 H176        3.4878   -9.5157  -48.5688 H         1 UNK         0.0600 
    177 H177        4.9151   -9.1089  -47.6145 H         1 UNK         0.0600 
    178 H178        5.0811   -9.5140  -49.3149 H         1 UNK         0.0600 
    179 H179        3.3008  -10.8395  -46.5149 H         1 UNK         0.3000 
    180 H180        2.9040  -13.8118  -44.8245 H         1 UNK         0.0600 
    181 H181        4.2602  -11.4518  -43.4307 H         1 UNK         0.0600 
    182 H182        4.8556  -13.1085  -43.4291 H         1 UNK         0.0600 
    183 H183        3.3291  -12.7296  -42.6485 H         1 UNK         0.0600 
    184 H184        1.7498  -11.4949  -43.9870 H         1 UNK         0.3000 
    185 H185       -0.0853  -10.2850  -45.1409 H         1 UNK         0.0600 
    186 H186       -1.5444  -12.2770  -46.9658 H         1 UNK         0.0600 
    187 H187       -2.1978  -10.7572  -46.3585 H         1 UNK         0.0600 
    188 H188       -0.8422  -10.7463  -47.4752 H         1 UNK         0.0600 
    189 H189       -1.5823  -12.7586  -44.5868 H         1 UNK         0.3000 
    190 H190       -0.5910  -22.7370  -43.6056 H         1 UNK         0.3000 
    191 H191       -2.1114  -24.9199  -42.6526 H         1 UNK         0.0600 
    192 H192        0.8795  -24.6975  -43.2877 H         1 UNK         0.0600 
    193 H193        0.1076  -24.3110  -41.7504 H         1 UNK         0.0600 
    194 H194        0.1445  -25.9719  -42.3202 H         1 UNK         0.0600 
    195 H195       -0.6569  -24.3681  -45.8148 H         1 UNK         0.3000 
    196 H196       -1.1703  -27.0999  -46.7928 H         1 UNK         0.0600 
    197 H197        0.8755  -25.8373  -47.4969 H         1 UNK         0.0600 
    198 H198       -0.1348  -24.5905  -48.2208 H         1 UNK         0.0600 
    199 H199       -0.1468  -26.2258  -48.8697 H         1 UNK         0.0600 
    200 H200       -3.1840  -24.5822  -46.0991 H         1 UNK         0.3000 
    201 H201       -5.1435  -23.7899  -46.7140 H         1 UNK         0.0600 
    202 H202       -6.7858  -25.3110  -47.7744 H         1 UNK         0.0600 
    203 H203       -5.8555  -26.1746  -46.5618 H         1 UNK         0.0600 
    204 H204       -5.5040  -26.4065  -48.2721 H         1 UNK         0.0600 
    205 H205       -2.9591  -22.8461  -48.1424 H         1 UNK         0.3000 
    206 H206       -2.2946  -21.6387  -49.8498 H         1 UNK         0.0600 
    207 H207       -4.5208  -20.4835  -49.5061 H         1 UNK         0.0600 
    208 H208       -5.1929  -21.4513  -50.8153 H         1 UNK         0.0600 
    209 H209       -3.8636  -20.3364  -51.1218 H         1 UNK         0.0600 
    210 H210       -1.9963  -24.2966  -50.0267 H         1 UNK         0.3000 
    211 H211       -1.4017  -26.0370  -51.2393 H         1 UNK         0.0600 
    212 H212       -0.1004  -24.3803  -52.6305 H         1 UNK         0.0600 
    213 H213       -0.6297  -25.7817  -53.5503 H         1 UNK         0.0600 
    214 H214       -1.4740  -24.2552  -53.7287 H         1 UNK         0.0600 
    215 H215       -3.8460  -26.1568  -50.4378 H         1 UNK         0.3000 
    216 H216       -5.9721  -26.8038  -50.6560 H         1 UNK         0.0600 
    217 H217       -6.4314  -28.7119  -52.1629 H         1 UNK         0.0600 
    218 H218       -4.9738  -28.3800  -53.0895 H         1 UNK         0.0600 
    219 H219       -4.8564  -28.9097  -51.4120 H         1 UNK         0.0600 
    220 H220       -5.6307  -24.3266  -51.5111 H         1 UNK         0.3000 
    221 H221       -6.3673  -22.5748  -52.5668 H         1 UNK         0.0600 
    222 H222       -8.6794  -24.2951  -53.5972 H         1 UNK         0.0600 
    223 H223       -8.6082  -23.5358  -52.0069 H         1 UNK         0.0600 
    224 H224       -8.6599  -22.5441  -53.4535 H         1 UNK         0.0600 
    225 H225       -4.7800  -24.7919  -54.2988 H         1 UNK         0.3000 
    226 H226       -5.4255  -23.9723  -57.0038 H         1 UNK         0.0600 
    227 H227       -4.5144  -26.2501  -56.3965 H         1 UNK         0.0600 
    228 H228       -3.5947  -25.4321  -57.6519 H         1 UNK         0.0600 
    229 H229       -2.9658  -25.4945  -56.0148 H         1 UNK         0.0600 
    230 H230       -3.0352  -22.9723  -54.5544 H         1 UNK         0.3000 
    231 H231       -1.6512  -21.1660  -56.4620 H         1 UNK         0.0600 
    232 H232       -0.1677  -20.6928  -54.5387 H         1 UNK         0.0600 
    233 H233       -0.2585  -22.4190  -54.8399 H         1 UNK         0.0600 
    234 H234       -1.1439  -21.7094  -53.4898 H         1 UNK         0.0600 
    235 H235       -3.9070  -21.1313  -53.7412 H         1 UNK         0.3000 
    236 H236       -5.2760  -19.6315  -52.8313 H         1 UNK         0.0600 
    237 H237       -6.1419  -19.5008  -55.1718 H         1 UNK         0.0600 
    238 H238       -6.3847  -18.0014  -54.2921 H         1 UNK         0.0600 
    239 H239       -5.0948  -18.1163  -55.4815 H         1 UNK         0.0600 
    240 H240       -2.3253  -19.1957  -52.6107 H         1 UNK         0.3000 
    241 H241       -0.7988  -17.8794  -51.7428 H         1 UNK         0.0600 
    242 H242       -1.0190  -15.8645  -55.0036 H         1 UNK         0.3800 
    243 H243       -1.7737  -17.3979  -54.6458 H         1 UNK         0.3800 
    244 H244       -1.3110  -15.9661  -50.2703 H         1 UNK         0.0800 
    245 H245       -2.9692  -15.9668  -50.7859 H         1 UNK         0.0800 
    246 H246       -4.8345  -18.1359  -49.2821 H         1 UNK         0.0800 
    247 H247       -4.4459  -16.4425  -49.2151 H         1 UNK         0.0800 
@<TRIPOS>BOND
     1    1    2 1    
     2    1  127 1    
     3    1  128 1    
     4    1  129 1    
     5    2    3 2    
     6    2    4 am   BACKBONE|DICT|INTERRES
     7    4    5 1    
     8    4  130 1    
     9    5    6 1    
    10    5   65 1    
    11    5  131 1    
    12    6    7 1    
    13    6  132 1    
    14    6  133 1    
    15    7    8 1    
    16    8    9 1    
    17    8  134 1    
    18    8  135 1    
    19    9   10 ar   
    20    9   14 ar   
    21   10   11 ar   
    22   10  136 1    
    23   11   12 ar   
    24   11  126 1    
    25   12   13 ar   
    26   12  137 1    
    27   13   14 ar   
    28   13   15 1    
    29   14  138 1    
    30   15   16 1    
    31   15  139 1    
    32   15  140 1    
    33   16   17 1    
    34   17   18 1    
    35   17  141 1    
    36   17  142 1    
    37   18   19 1    
    38   18   67 1    
    39   18  143 1    
    40   19   20 am   BACKBONE|DICT|INTERRES
    41   19  144 1    
    42   20   21 2    
    43   20   22 1    
    44   22   23 1    
    45   22   24 1    
    46   22  145 1    
    47   23  146 1    
    48   23  147 1    
    49   23  148 1    
    50   24   25 am   BACKBONE|DICT|INTERRES
    51   24  149 1    
    52   25   26 2    
    53   25   27 1    
    54   27   28 1    
    55   27   29 1    
    56   27  150 1    
    57   28  151 1    
    58   28  152 1    
    59   28  153 1    
    60   29   30 am   BACKBONE|DICT|INTERRES
    61   29  154 1    
    62   30   31 2    
    63   30   32 1    
    64   32   33 1    
    65   32   34 1    
    66   32  155 1    
    67   33  156 1    
    68   33  157 1    
    69   33  158 1    
    70   34   35 am   BACKBONE|DICT|INTERRES
    71   34  159 1    
    72   35   36 2    
    73   35   37 1    
    74   37   38 1    
    75   37   39 1    
    76   37  160 1    
    77   38  161 1    
    78   38  162 1    
    79   38  163 1    
    80   39   40 am   BACKBONE|DICT|INTERRES
    81   39  164 1    
    82   40   41 2    
    83   40   42 1    
    84   42   43 1    
    85   42   44 1    
    86   42  165 1    
    87   43  166 1    
    88   43  167 1    
    89   43  168 1    
    90   44   45 am   BACKBONE|DICT|INTERRES
    91   44  169 1    
    92   45   46 2    
    93   45   47 1    
    94   47   48 1    
    95   47   49 1    
    96   47  170 1    
    97   48  171 1    
    98   48  172 1    
    99   48  173 1    
   100   49   50 am   BACKBONE|DICT|INTERRES
   101   49  174 1    
   102   50   51 2    
   103   50   52 1    
   104   52   53 1    
   105   52   54 1    
   106   52  175 1    
   107   53  176 1    
   108   53  177 1    
   109   53  178 1    
   110   54   55 am   BACKBONE|DICT|INTERRES
   111   54  179 1    
   112   55   56 2    
   113   55   57 1    
   114   57   58 1    
   115   57   59 1    
   116   57  180 1    
   117   58  181 1    
   118   58  182 1    
   119   58  183 1    
   120   59   60 am   BACKBONE|DICT|INTERRES
   121   59  184 1    
   122   60   61 2    
   123   60   62 1    
   124   62   63 1    
   125   62   64 1    
   126   62  185 1    
   127   63  186 1    
   128   63  187 1    
   129   63  188 1    
   130   64   65 am   BACKBONE|DICT|INTERRES
   131   64  189 1    
   132   65   66 2    
   133   67   68 2    
   134   67   69 am   BACKBONE|DICT|INTERRES
   135   69   70 1    
   136   69  190 1    
   137   70   71 1    
   138   70   72 1    
   139   70  191 1    
   140   71  192 1    
   141   71  193 1    
   142   71  194 1    
   143   72   73 2    
   144   72   74 am   BACKBONE|DICT|INTERRES
   145   74   75 1    
   146   74  195 1    
   147   75   76 1    
   148   75   77 1    
   149   75  196 1    
   150   76  197 1    
   151   76  198 1    
   152   76  199 1    
   153   77   78 2    
   154   77   79 am   BACKBONE|DICT|INTERRES
   155   79   80 1    
   156   79  200 1    
   157   80   81 1    
   158   80   82 1    
   159   80  201 1    
   160   81  202 1    
   161   81  203 1    
   162   81  204 1    
   163   82   83 2    
   164   82   84 am   BACKBONE|DICT|INTERRES
   165   84   85 1    
   166   84  205 1    
   167   85   86 1    
   168   85   87 1    
   169   85  206 1    
   170   86  207 1    
   171   86  208 1    
   172   86  209 1    
   173   87   88 2    
   174   87   89 am   BACKBONE|DICT|INTERRES
   175   89   90 1    
   176   89  210 1    
   177   90   91 1    
   178   90   92 1    
   179   90  211 1    
   180   91  212 1    
   181   91  213 1    
   182   91  214 1    
   183   92   93 2    
   184   92   94 am   BACKBONE|DICT|INTERRES
   185   94   95 1    
   186   94  215 1    
   187   95   96 1    
   188   95   97 1    
   189   95  216 1    
   190   96  217 1    
   191   96  218 1    
   192   96  219 1    
   193   97   98 2    
   194   97   99 am   BACKBONE|DICT|INTERRES
   195   99  100 1    
   196   99  220 1    
   197  100  101 1    
   198  100  102 1    
   199  100  221 1    
   200  101  222 1    
   201  101  223 1    
   202  101  224 1    
   203  102  103 2    
   204  102  104 am   BACKBONE|DICT|INTERRES
   205  104  105 1    
   206  104  225 1    
   207  105  106 1    
   208  105  107 1    
   209  105  226 1    
   210  106  227 1    
   211  106  228 1    
   212  106  229 1    
   213  107  108 2    
   214  107  109 am   BACKBONE|DICT|INTERRES
   215  109  110 1    
   216  109  230 1    
   217  110  111 1    
   218  110  112 1    
   219  110  231 1    
   220  111  232 1    
   221  111  233 1    
   222  111  234 1    
   223  112  113 2    
   224  112  114 am   BACKBONE|DICT|INTERRES
   225  114  115 1    
   226  114  235 1    
   227  115  116 1    
   228  115  117 1    
   229  115  236 1    
   230  116  237 1    
   231  116  238 1    
   232  116  239 1    
   233  117  118 2    
   234  117  119 am   BACKBONE|DICT|INTERRES
   235  119  120 1    
   236  119  240 1    
   237  120  121 1    
   238  120  124 1    
   239  120  241 1    
   240  121  122 am   BACKBONE|DICT|INTERRES
   241  121  123 2    
   242  122  242 1    
   243  122  243 1    
   244  124  125 1    
   245  124  244 1    
   246  124  245 1    
   247  125  126 1    
   248  126  246 1    
   249  126  247 1    
@<TRIPOS>SUBSTRUCTURE
     1 UNK         1 GROUP             0       ****    0 ROOT    
