@<TRIPOS>MOLECULE
3R540
247   249    1
SMALL
USER_CHARGES


@<TRIPOS>ATOM
      1 CA          5.9713  -15.7250  -54.1051 C.3       0 UNK        -0.1800 
      2 C           5.6998  -17.1711  -53.7148 C.2       0 UNK         0.5000 
      3 O           6.1542  -18.0871  -54.4005 O.2       0 UNK        -0.5000 
      4 N           4.9648  -17.3764  -52.6180 N.am      1 UNK        -0.5000 
      5 CA          4.5673  -18.6891  -52.0971 C.3       1 UNK         0.1400 
      6 C6          3.2222  -19.1760  -52.7052 C.3       23 UNK        -0.0398 
      7 S7          1.7996  -18.0635  -52.3902 S.3       23 UNK        -0.2404 
      8 C8          0.7350  -19.1099  -51.3470 C.3       23 UNK        -0.0205 
      9 C9          0.0604  -18.3070  -50.2487 C.ar      23 UNK        -0.0193 
     10 C10        -1.2694  -17.8907  -50.3709 C.ar      23 UNK        -0.1150 
     11 C11        -1.8904  -17.1995  -49.3243 C.ar      23 UNK        -0.0193 
     12 C12        -1.1669  -16.9139  -48.1625 C.ar      23 UNK        -0.1150 
     13 C13         0.1619  -17.3239  -48.0336 C.ar      23 UNK        -0.0193 
     14 C14         0.7684  -18.0169  -49.0804 C.ar      23 UNK        -0.1150 
     15 C15         0.9445  -17.0119  -46.7705 C.3       23 UNK        -0.0205 
     16 S16         0.6053  -18.2045  -45.4412 S.3       23 UNK        -0.2404 
     17 C17         1.6425  -19.6414  -45.8711 C.3       23 UNK        -0.0398 
     18 CA          0.8924  -20.9979  -45.9379 C.3       11 UNK         0.1400 
     19 N          -0.0865  -21.2006  -44.8624 N.am      11 UNK        -0.5000 
     20 C          -0.5929  -22.3977  -44.5336 C.2       10 UNK         0.5000 
     21 O          -0.2550  -23.4518  -45.0720 O.2       10 UNK        -0.5000 
     22 CA         -1.6916  -22.4224  -43.4619 C.3       10 UNK         0.1400 
     23 CB         -1.0994  -22.2466  -42.0549 C.3       10 UNK        -0.1800 
     24 N          -2.7160  -21.4091  -43.7100 N.am      10 UNK        -0.5000 
     25 C          -3.6418  -21.5014  -44.6760 C.2       9 UNK         0.5000 
     26 O          -3.6947  -22.4322  -45.4780 O.2       9 UNK        -0.5000 
     27 CA         -4.6814  -20.3691  -44.7819 C.3       9 UNK         0.1400 
     28 CB         -5.9360  -20.7098  -43.9647 C.3       9 UNK        -0.1800 
     29 N          -4.1726  -19.0653  -44.3615 N.am      9 UNK        -0.5000 
     30 C          -3.2140  -18.3969  -45.0144 C.2       8 UNK         0.5000 
     31 O          -2.6772  -18.8145  -46.0378 O.2       8 UNK        -0.5000 
     32 CA         -2.7597  -17.0587  -44.4025 C.3       8 UNK         0.1400 
     33 CB         -3.6854  -15.9263  -44.8738 C.3       8 UNK        -0.1800 
     34 N          -2.6677  -17.0412  -42.9361 N.am      8 UNK        -0.5000 
     35 C          -2.0315  -17.9419  -42.1680 C.2       7 UNK         0.5000 
     36 O          -1.5326  -18.9825  -42.5975 O.2       7 UNK        -0.5000 
     37 CA         -1.9211  -17.5969  -40.6737 C.3       7 UNK         0.1400 
     38 CB         -1.0767  -18.6089  -39.8770 C.3       7 UNK        -0.1800 
     39 N          -1.3289  -16.2704  -40.5554 N.am      7 UNK        -0.5000 
     40 C          -1.7289  -15.3003  -39.7242 C.2       6 UNK         0.5000 
     41 O          -2.6118  -15.4469  -38.8781 O.2       6 UNK        -0.5000 
     42 CA         -1.0460  -13.9222  -39.8742 C.3       6 UNK         0.1400 
     43 CB          0.0596  -13.7537  -38.8209 C.3       6 UNK        -0.1800 
     44 N          -0.4710  -13.6972  -41.2035 N.am      6 UNK        -0.5000 
     45 C          -1.1700  -13.6425  -42.3457 C.2       5 UNK         0.5000 
     46 O          -2.4006  -13.6420  -42.3864 O.2       5 UNK        -0.5000 
     47 CA         -0.3742  -13.6350  -43.6673 C.3       5 UNK         0.1400 
     48 CB         -0.3914  -12.2361  -44.3008 C.3       5 UNK        -0.1800 
     49 N           1.0172  -14.0927  -43.5767 N.am      5 UNK        -0.5000 
     50 C           1.4483  -15.2886  -43.1534 C.2       4 UNK         0.5000 
     51 O           0.7094  -16.1291  -42.6411 O.2       4 UNK        -0.5000 
     52 CA          2.9542  -15.5821  -43.3463 C.3       4 UNK         0.1400 
     53 CB          3.3525  -16.9840  -42.8506 C.3       4 UNK        -0.1800 
     54 N           3.3709  -15.4408  -44.7464 N.am      4 UNK        -0.5000 
     55 C           3.5612  -14.2793  -45.3882 C.2       3 UNK         0.5000 
     56 O           3.4403  -13.1831  -44.8380 O.2       3 UNK        -0.5000 
     57 CA          3.9147  -14.3522  -46.8842 C.3       3 UNK         0.1400 
     58 CB          4.6830  -13.1102  -47.3774 C.3       3 UNK        -0.1800 
     59 N           4.6730  -15.5627  -47.2128 N.am      3 UNK        -0.5000 
     60 C           4.5643  -16.2239  -48.3717 C.2       2 UNK         0.5000 
     61 O           3.7450  -15.9284  -49.2449 O.2       2 UNK        -0.5000 
     62 CA          5.5725  -17.3677  -48.6065 C.3       2 UNK         0.1400 
     63 CB          5.4423  -18.4939  -47.5585 C.3       2 UNK        -0.1800 
     64 N           5.5062  -17.8560  -49.9918 N.am      2 UNK        -0.5000 
     65 C           4.6130  -18.6896  -50.5522 C.2       1 UNK         0.5000 
     66 O           3.8564  -19.4235  -49.9178 O.2       1 UNK        -0.5000 
     67 C           0.2932  -21.2923  -47.3269 C.2       11 UNK         0.5000 
     68 O           0.9758  -21.8964  -48.1551 O.2       11 UNK        -0.5000 
     69 N          -0.9850  -20.9452  -47.5366 N.am      12 UNK        -0.5000 
     70 CA         -1.7201  -21.2799  -48.7546 C.3       12 UNK         0.1400 
     71 CB         -3.0670  -20.5544  -48.7621 C.3       12 UNK        -0.1800 
     72 C          -1.9295  -22.7944  -48.9302 C.2       12 UNK         0.5000 
     73 O          -1.8005  -23.2954  -50.0480 O.2       12 UNK        -0.5000 
     74 N          -2.2370  -23.5021  -47.8338 N.am      13 UNK        -0.5000 
     75 CA         -2.3692  -24.9587  -47.8061 C.3       13 UNK         0.1400 
     76 CB         -3.0136  -25.4065  -46.4865 C.3       13 UNK        -0.1800 
     77 C          -1.0249  -25.6714  -48.0282 C.2       13 UNK         0.5000 
     78 O          -0.9742  -26.6258  -48.8033 O.2       13 UNK        -0.5000 
     79 N           0.0440  -25.1751  -47.3875 N.am      14 UNK        -0.5000 
     80 CA          1.4132  -25.6801  -47.5313 C.3       14 UNK         0.1400 
     81 CB          2.3312  -24.9752  -46.5219 C.3       14 UNK        -0.1800 
     82 C           1.9651  -25.5308  -48.9619 C.2       14 UNK         0.5000 
     83 O           2.6576  -26.4273  -49.4447 O.2       14 UNK        -0.5000 
     84 N           1.6135  -24.4219  -49.6258 N.am      15 UNK        -0.5000 
     85 CA          1.9201  -24.1543  -51.0317 C.3       15 UNK         0.1400 
     86 CB          1.7676  -22.6474  -51.2820 C.3       15 UNK        -0.1800 
     87 C           1.0374  -24.9432  -52.0214 C.2       15 UNK         0.5000 
     88 O           1.3320  -24.9355  -53.2170 O.2       15 UNK        -0.5000 
     89 N          -0.0377  -25.5730  -51.5214 N.am      16 UNK        -0.5000 
     90 CA         -1.0997  -26.2635  -52.2632 C.3       16 UNK         0.1400 
     91 CB         -0.5485  -27.4933  -53.0142 C.3       16 UNK        -0.1800 
     92 C          -1.9217  -25.3181  -53.1676 C.2       16 UNK         0.5000 
     93 O          -2.5000  -25.7599  -54.1620 O.2       16 UNK        -0.5000 
     94 N          -1.9688  -24.0330  -52.7954 N.am      17 UNK        -0.5000 
     95 CA         -2.7416  -22.9873  -53.4606 C.3       17 UNK         0.1400 
     96 CB         -2.0374  -21.6388  -53.2344 C.3       17 UNK        -0.1800 
     97 C          -4.1874  -22.9319  -52.9356 C.2       17 UNK         0.5000 
     98 O          -5.0895  -22.5902  -53.7010 O.2       17 UNK        -0.5000 
     99 N          -4.3598  -23.2761  -51.6479 N.am      18 UNK        -0.5000 
    100 CA        -5.5670  -23.1727  -50.8179 C.3       18 UNK         0.1400 
    101 CB        -6.7631  -23.9179  -51.4414 C.3       18 UNK        -0.1800 
    102 C         -5.9250  -21.7126  -50.4782 C.2       18 UNK         0.5000 
    103 O         -5.5664  -20.7894  -51.2104 O.2       18 UNK        -0.5000 
    104 N         -6.6198  -21.5192  -49.3477 N.am      19 UNK        -0.5000 
    105 CA        -6.9208  -20.2094  -48.7493 C.3       19 UNK         0.1400 
    106 CB        -7.7040  -20.4240  -47.4456 C.3       19 UNK        -0.1800 
    107 C         -7.6694  -19.2282  -49.6748 C.2       19 UNK         0.5000 
    108 O         -7.4885  -18.0171  -49.5490 O.2       19 UNK        -0.5000 
    109 N         -8.4459  -19.7753  -50.6205 N.am      20 UNK        -0.5000 
    110 CA        -9.1582  -19.0573  -51.6792 C.3       20 UNK         0.1400 
    111 CB       -10.0570  -20.0565  -52.4248 C.3       20 UNK        -0.1800 
    112 C         -8.2484  -18.3024  -52.6739 C.2       20 UNK         0.5000 
    113 O         -8.7518  -17.4546  -53.4123 O.2       20 UNK        -0.5000 
    114 N         -6.9390  -18.5997  -52.6837 N.am      21 UNK        -0.5000 
    115 CA        -5.9272  -17.8740  -53.4559 C.3       21 UNK         0.1400 
    116 CB        -4.6026  -18.6509  -53.4100 C.3       21 UNK        -0.1800 
    117 C         -5.7148  -16.4229  -52.9758 C.2       21 UNK         0.5000 
    118 O         -5.2756  -15.5888  -53.7689 O.2       21 UNK        -0.5000 
    119 N         -6.0361  -16.1475  -51.7059 N.am      22 UNK        -0.5000 
    120 CA        -6.0286  -14.8103  -51.1017 C.3       22 UNK         0.1400 
    121 C         -7.4735  -14.2541  -50.9928 C.2       22 UNK         0.5000 
    122 N         -7.6501  -12.9473  -51.1343 N.am      22 UNK        -0.7600 
    123 O         -8.4330  -14.9817  -50.7477 O.2       22 UNK        -0.5000 
    124 C124       -5.3428  -14.8285  -49.7137 C.3       23 UNK        -0.0398 
    125 S125       -3.5358  -15.0466  -49.8466 S.3       23 UNK        -0.2404 
    126 C126       -3.3554  -16.8020  -49.4170 C.3       23 UNK        -0.0205 
    127 H127        5.5757  -15.5249  -55.1009 H         1 UNK         0.0600 
    128 H128        5.5102  -15.0236  -53.4092 H         1 UNK         0.0600 
    129 H129        7.0445  -15.5348  -54.1187 H         1 UNK         0.0600 
    130 H130        4.5907  -16.5876  -52.1065 H         1 UNK         0.3000 
    131 H131        5.3275  -19.4186  -52.3843 H         1 UNK         0.0600 
    132 H132        2.9998  -20.1862  -52.3637 H         1 UNK         0.0800 
    133 H133        3.3323  -19.2629  -53.7867 H         1 UNK         0.0800 
    134 H134        1.3230  -19.8947  -50.8724 H         1 UNK         0.0800 
    135 H135       -0.0040  -19.6128  -51.9720 H         1 UNK         0.0800 
    136 H136       -1.8258  -18.1233  -51.2678 H         1 UNK         0.1150 
    137 H137       -1.6458  -16.3880  -47.3494 H         1 UNK         0.1150 
    138 H138        1.7950  -18.3362  -48.9844 H         1 UNK         0.1150 
    139 H139        2.0136  -16.9863  -46.9785 H         1 UNK         0.0800 
    140 H140        0.6776  -16.0143  -46.4188 H         1 UNK         0.0800 
    141 H141        2.4120  -19.7066  -45.1012 H         1 UNK         0.0800 
    142 H142        2.1827  -19.4509  -46.7995 H         1 UNK         0.0800 
    143 H143        1.6603  -21.7610  -45.7937 H         1 UNK         0.0600 
    144 H144       -0.4280  -20.3684  -44.3967 H         1 UNK         0.3000 
    145 H145       -2.1703  -23.4036  -43.4981 H         1 UNK         0.0600 
    146 H146       -1.8788  -22.2600  -41.2930 H         1 UNK         0.0600 
    147 H147       -0.4052  -23.0557  -41.8247 H         1 UNK         0.0600 
    148 H148       -0.5494  -21.3108  -41.9557 H         1 UNK         0.0600 
    149 H149       -2.6491  -20.5564  -43.1649 H         1 UNK         0.3000 
    150 H150       -4.9702  -20.2917  -45.8321 H         1 UNK         0.0600 
    151 H151       -6.3501  -21.6725  -44.2679 H         1 UNK         0.0600 
    152 H152       -6.7162  -19.9623  -44.1096 H         1 UNK         0.0600 
    153 H153       -5.7178  -20.7677  -42.8976 H         1 UNK         0.0600 
    154 H154       -4.5553  -18.6673  -43.5169 H         1 UNK         0.3000 
    155 H155       -1.7616  -16.8453  -44.7827 H         1 UNK         0.0600 
    156 H156       -4.6914  -16.0337  -44.4666 H         1 UNK         0.0600 
    157 H157       -3.7711  -15.9169  -45.9615 H         1 UNK         0.0600 
    158 H158       -3.3060  -14.9502  -44.5750 H         1 UNK         0.0600 
    159 H159       -3.0255  -16.2109  -42.4848 H         1 UNK         0.3000 
    160 H160       -2.9366  -17.5978  -40.2727 H         1 UNK         0.0600 
    161 H161       -1.0322  -18.3402  -38.8216 H         1 UNK         0.0600 
    162 H162       -0.0542  -18.6599  -40.2537 H         1 UNK         0.0600 
    163 H163       -1.5028  -19.6109  -39.9404 H         1 UNK         0.0600 
    164 H164       -0.6019  -16.0692  -41.2394 H         1 UNK         0.3000 
    165 H165       -1.8065  -13.1577  -39.7023 H         1 UNK         0.0600 
    166 H166        0.5008  -12.7579  -38.8668 H         1 UNK         0.0600 
    167 H167       -0.3372  -13.8858  -37.8134 H         1 UNK         0.0600 
    168 H168        0.8588  -14.4834  -38.9573 H         1 UNK         0.0600 
    169 H169        0.5361  -13.6957  -41.2669 H         1 UNK         0.3000 
    170 H170       -0.8869  -14.3197  -44.3453 H         1 UNK         0.0600 
    171 H171       -1.4126  -11.8728  -44.4242 H         1 UNK         0.0600 
    172 H172        0.1440  -11.5117  -43.6857 H         1 UNK         0.0600 
    173 H173        0.0701  -12.2443  -45.2885 H         1 UNK         0.0600 
    174 H174        1.7187  -13.4741  -43.9730 H         1 UNK         0.3000 
    175 H175        3.5009  -14.8536  -42.7439 H         1 UNK         0.0600 
    176 H176        2.8393  -17.7697  -43.4054 H         1 UNK         0.0600 
    177 H177        4.4254  -17.1484  -42.9506 H         1 UNK         0.0600 
    178 H178        3.1029  -17.1118  -41.7965 H         1 UNK         0.0600 
    179 H179        3.4541  -16.2982  -45.2710 H         1 UNK         0.3000 
    180 H180        2.9525  -14.3766  -47.4002 H         1 UNK         0.0600 
    181 H181        5.6448  -13.0096  -46.8735 H         1 UNK         0.0600 
    182 H182        4.1170  -12.1957  -47.1961 H         1 UNK         0.0600 
    183 H183        4.8704  -13.1618  -48.4501 H         1 UNK         0.0600 
    184 H184        5.3760  -15.8420  -46.5419 H         1 UNK         0.3000 
    185 H185        6.5675  -16.9332  -48.5004 H         1 UNK         0.0600 
    186 H186        5.7396  -18.1453  -46.5692 H         1 UNK         0.0600 
    187 H187        4.4188  -18.8579  -47.4750 H         1 UNK         0.0600 
    188 H188        6.0819  -19.3410  -47.8065 H         1 UNK         0.0600 
    189 H189        6.0858  -17.3377  -50.6370 H         1 UNK         0.3000 
    190 H190       -1.4760  -20.3972  -46.8381 H         1 UNK         0.3000 
    191 H191       -1.1342  -20.9196  -49.6020 H         1 UNK         0.0600 
    192 H192       -3.4766  -20.5530  -49.7688 H         1 UNK         0.0600 
    193 H193       -3.7906  -21.0181  -48.0909 H         1 UNK         0.0600 
    194 H194       -2.9645  -19.5141  -48.4678 H         1 UNK         0.0600 
    195 H195       -2.3942  -23.0173  -46.9567 H         1 UNK         0.3000 
    196 H196       -3.0363  -25.2513  -48.6198 H         1 UNK         0.0600 
    197 H197       -3.1035  -26.4926  -46.4431 H         1 UNK         0.0600 
    198 H198       -4.0171  -24.9946  -46.3804 H         1 UNK         0.0600 
    199 H199       -2.4286  -25.0897  -45.6227 H         1 UNK         0.0600 
    200 H200       -0.0920  -24.4172  -46.7235 H         1 UNK         0.3000 
    201 H201        1.3991  -26.7453  -47.2919 H         1 UNK         0.0600 
    202 H202        1.9858  -25.1287  -45.4994 H         1 UNK         0.0600 
    203 H203        2.3766  -23.9014  -46.7034 H         1 UNK         0.0600 
    204 H204        3.3491  -25.3620  -46.5831 H         1 UNK         0.0600 
    205 H205        1.1060  -23.6965  -49.1288 H         1 UNK         0.3000 
    206 H206        2.9587  -24.4313  -51.2235 H         1 UNK         0.0600 
    207 H207        2.4420  -22.0740  -50.6452 H         1 UNK         0.0600 
    208 H208        2.0003  -22.3946  -52.3169 H         1 UNK         0.0600 
    209 H209        0.7492  -22.3112  -51.0824 H         1 UNK         0.0600 
    210 H210       -0.1784  -25.5340  -50.5196 H         1 UNK         0.3000 
    211 H211       -1.7973  -26.6298  -51.5089 H         1 UNK         0.0600 
    212 H212        0.0947  -27.2078  -53.8467 H         1 UNK         0.0600 
    213 H213       -1.3596  -28.0972  -53.4225 H         1 UNK         0.0600 
    214 H214        0.0280  -28.1352  -52.3480 H         1 UNK         0.0600 
    215 H215       -1.5244  -23.7748  -51.9200 H         1 UNK         0.3000 
    216 H216       -2.7723  -23.1842  -54.5344 H         1 UNK         0.0600 
    217 H217       -2.5455  -20.8393  -53.7736 H         1 UNK         0.0600 
    218 H218       -1.0072  -21.6665  -53.5901 H         1 UNK         0.0600 
    219 H219       -2.0203  -21.3632  -52.1790 H         1 UNK         0.0600 
    220 H220       -3.5145  -23.5007  -51.1356 H         1 UNK         0.3000 
    221 H221       -5.3144  -23.6699  -49.8799 H         1 UNK         0.0600 
    222 H222       -7.1450  -23.4115  -52.3282 H         1 UNK         0.0600 
    223 H223       -6.4907  -24.9344  -51.7254 H         1 UNK         0.0600 
    224 H224       -7.5889  -23.9897  -50.7329 H         1 UNK         0.0600 
    225 H225       -6.8998  -22.3248  -48.8070 H         1 UNK         0.3000 
    226 H226       -5.9665  -19.7424  -48.4977 H         1 UNK         0.0600 
    227 H227       -8.6755  -20.8832  -47.6324 H         1 UNK         0.0600 
    228 H228       -7.8805  -19.4762  -46.9352 H         1 UNK         0.0600 
    229 H229       -7.1578  -21.0668  -46.7558 H         1 UNK         0.0600 
    230 H230       -8.5052  -20.7822  -50.6485 H         1 UNK         0.3000 
    231 H231       -9.7955  -18.3111  -51.2004 H         1 UNK         0.0600 
    232 H232      -10.7660  -20.5329  -51.7474 H         1 UNK         0.0600 
    233 H233       -9.4710  -20.8407  -52.9060 H         1 UNK         0.0600 
    234 H234      -10.6384  -19.5578  -53.2015 H         1 UNK         0.0600 
    235 H235       -6.5930  -19.3387  -52.0779 H         1 UNK         0.3000 
    236 H236       -6.2621  -17.8327  -54.4943 H         1 UNK         0.0600 
    237 H237       -4.7300  -19.6644  -53.7907 H         1 UNK         0.0600 
    238 H238       -3.8407  -18.1656  -54.0211 H         1 UNK         0.0600 
    239 H239       -4.2124  -18.7222  -52.3940 H         1 UNK         0.0600 
    240 H240       -6.4656  -16.8726  -51.1434 H         1 UNK         0.3000 
    241 H241       -5.4680  -14.1244  -51.7401 H         1 UNK         0.0600 
    242 H242       -8.5814  -12.5688  -51.0538 H         1 UNK         0.3800 
    243 H243       -6.8804  -12.3251  -51.3287 H         1 UNK         0.3800 
    244 H244       -5.7749  -15.6010  -49.0748 H         1 UNK         0.0800 
    245 H245       -5.5055  -13.8826  -49.1938 H         1 UNK         0.0800 
    246 H246       -3.8717  -17.4140  -50.1581 H         1 UNK         0.0800 
    247 H247       -3.8427  -16.9986  -48.4606 H         1 UNK         0.0800 
@<TRIPOS>BOND
     1    1    2 1    
     2    1  127 1    
     3    1  128 1    
     4    1  129 1    
     5    2    3 2    
     6    2    4 am   BACKBONE|DICT|INTERRES
     7    4    5 1    
     8    4  130 1    
     9    5    6 1    
    10    5   65 1    
    11    5  131 1    
    12    6    7 1    
    13    6  132 1    
    14    6  133 1    
    15    7    8 1    
    16    8    9 1    
    17    8  134 1    
    18    8  135 1    
    19    9   10 ar   
    20    9   14 ar   
    21   10   11 ar   
    22   10  136 1    
    23   11   12 ar   
    24   11  126 1    
    25   12   13 ar   
    26   12  137 1    
    27   13   14 ar   
    28   13   15 1    
    29   14  138 1    
    30   15   16 1    
    31   15  139 1    
    32   15  140 1    
    33   16   17 1    
    34   17   18 1    
    35   17  141 1    
    36   17  142 1    
    37   18   19 1    
    38   18   67 1    
    39   18  143 1    
    40   19   20 am   BACKBONE|DICT|INTERRES
    41   19  144 1    
    42   20   21 2    
    43   20   22 1    
    44   22   23 1    
    45   22   24 1    
    46   22  145 1    
    47   23  146 1    
    48   23  147 1    
    49   23  148 1    
    50   24   25 am   BACKBONE|DICT|INTERRES
    51   24  149 1    
    52   25   26 2    
    53   25   27 1    
    54   27   28 1    
    55   27   29 1    
    56   27  150 1    
    57   28  151 1    
    58   28  152 1    
    59   28  153 1    
    60   29   30 am   BACKBONE|DICT|INTERRES
    61   29  154 1    
    62   30   31 2    
    63   30   32 1    
    64   32   33 1    
    65   32   34 1    
    66   32  155 1    
    67   33  156 1    
    68   33  157 1    
    69   33  158 1    
    70   34   35 am   BACKBONE|DICT|INTERRES
    71   34  159 1    
    72   35   36 2    
    73   35   37 1    
    74   37   38 1    
    75   37   39 1    
    76   37  160 1    
    77   38  161 1    
    78   38  162 1    
    79   38  163 1    
    80   39   40 am   BACKBONE|DICT|INTERRES
    81   39  164 1    
    82   40   41 2    
    83   40   42 1    
    84   42   43 1    
    85   42   44 1    
    86   42  165 1    
    87   43  166 1    
    88   43  167 1    
    89   43  168 1    
    90   44   45 am   BACKBONE|DICT|INTERRES
    91   44  169 1    
    92   45   46 2    
    93   45   47 1    
    94   47   48 1    
    95   47   49 1    
    96   47  170 1    
    97   48  171 1    
    98   48  172 1    
    99   48  173 1    
   100   49   50 am   BACKBONE|DICT|INTERRES
   101   49  174 1    
   102   50   51 2    
   103   50   52 1    
   104   52   53 1    
   105   52   54 1    
   106   52  175 1    
   107   53  176 1    
   108   53  177 1    
   109   53  178 1    
   110   54   55 am   BACKBONE|DICT|INTERRES
   111   54  179 1    
   112   55   56 2    
   113   55   57 1    
   114   57   58 1    
   115   57   59 1    
   116   57  180 1    
   117   58  181 1    
   118   58  182 1    
   119   58  183 1    
   120   59   60 am   BACKBONE|DICT|INTERRES
   121   59  184 1    
   122   60   61 2    
   123   60   62 1    
   124   62   63 1    
   125   62   64 1    
   126   62  185 1    
   127   63  186 1    
   128   63  187 1    
   129   63  188 1    
   130   64   65 am   BACKBONE|DICT|INTERRES
   131   64  189 1    
   132   65   66 2    
   133   67   68 2    
   134   67   69 am   BACKBONE|DICT|INTERRES
   135   69   70 1    
   136   69  190 1    
   137   70   71 1    
   138   70   72 1    
   139   70  191 1    
   140   71  192 1    
   141   71  193 1    
   142   71  194 1    
   143   72   73 2    
   144   72   74 am   BACKBONE|DICT|INTERRES
   145   74   75 1    
   146   74  195 1    
   147   75   76 1    
   148   75   77 1    
   149   75  196 1    
   150   76  197 1    
   151   76  198 1    
   152   76  199 1    
   153   77   78 2    
   154   77   79 am   BACKBONE|DICT|INTERRES
   155   79   80 1    
   156   79  200 1    
   157   80   81 1    
   158   80   82 1    
   159   80  201 1    
   160   81  202 1    
   161   81  203 1    
   162   81  204 1    
   163   82   83 2    
   164   82   84 am   BACKBONE|DICT|INTERRES
   165   84   85 1    
   166   84  205 1    
   167   85   86 1    
   168   85   87 1    
   169   85  206 1    
   170   86  207 1    
   171   86  208 1    
   172   86  209 1    
   173   87   88 2    
   174   87   89 am   BACKBONE|DICT|INTERRES
   175   89   90 1    
   176   89  210 1    
   177   90   91 1    
   178   90   92 1    
   179   90  211 1    
   180   91  212 1    
   181   91  213 1    
   182   91  214 1    
   183   92   93 2    
   184   92   94 am   BACKBONE|DICT|INTERRES
   185   94   95 1    
   186   94  215 1    
   187   95   96 1    
   188   95   97 1    
   189   95  216 1    
   190   96  217 1    
   191   96  218 1    
   192   96  219 1    
   193   97   98 2    
   194   97   99 am   BACKBONE|DICT|INTERRES
   195   99  100 1    
   196   99  220 1    
   197  100  101 1    
   198  100  102 1    
   199  100  221 1    
   200  101  222 1    
   201  101  223 1    
   202  101  224 1    
   203  102  103 2    
   204  102  104 am   BACKBONE|DICT|INTERRES
   205  104  105 1    
   206  104  225 1    
   207  105  106 1    
   208  105  107 1    
   209  105  226 1    
   210  106  227 1    
   211  106  228 1    
   212  106  229 1    
   213  107  108 2    
   214  107  109 am   BACKBONE|DICT|INTERRES
   215  109  110 1    
   216  109  230 1    
   217  110  111 1    
   218  110  112 1    
   219  110  231 1    
   220  111  232 1    
   221  111  233 1    
   222  111  234 1    
   223  112  113 2    
   224  112  114 am   BACKBONE|DICT|INTERRES
   225  114  115 1    
   226  114  235 1    
   227  115  116 1    
   228  115  117 1    
   229  115  236 1    
   230  116  237 1    
   231  116  238 1    
   232  116  239 1    
   233  117  118 2    
   234  117  119 am   BACKBONE|DICT|INTERRES
   235  119  120 1    
   236  119  240 1    
   237  120  121 1    
   238  120  124 1    
   239  120  241 1    
   240  121  122 am   BACKBONE|DICT|INTERRES
   241  121  123 2    
   242  122  242 1    
   243  122  243 1    
   244  124  125 1    
   245  124  244 1    
   246  124  245 1    
   247  125  126 1    
   248  126  246 1    
   249  126  247 1    
@<TRIPOS>SUBSTRUCTURE
     1 UNK         1 GROUP             0       ****    0 ROOT    
