@<TRIPOS>MOLECULE
3R540
247   249    1
SMALL
USER_CHARGES


@<TRIPOS>ATOM
      1 CA         -5.6552  -15.4288  -51.4898 C.3       0 UNK        -0.1800 
      2 C          -4.5086  -14.6271  -50.8894 C.2       0 UNK         0.5000 
      3 O          -4.5434  -13.3975  -50.8986 O.2       0 UNK        -0.5000 
      4 N          -3.4975  -15.3254  -50.3602 N.am      1 UNK        -0.5000 
      5 CA         -2.2769  -14.7635  -49.7580 C.3       1 UNK         0.1400 
      6 C6         -1.1522  -15.8247  -49.6689 C.3       23 UNK        -0.0398 
      7 S7         -0.7517  -16.5106  -51.3105 S.3       23 UNK        -0.2404 
      8 C8          1.0471  -16.2670  -51.4218 C.3       23 UNK        -0.0205 
      9 C9          1.8172  -17.4464  -50.8458 C.ar      23 UNK        -0.0193 
     10 C10         1.9316  -18.6240  -51.5884 C.ar      23 UNK        -0.1150 
     11 C11         2.6754  -19.7067  -51.1078 C.ar      23 UNK        -0.0193 
     12 C12         3.3241  -19.5907  -49.8743 C.ar      23 UNK        -0.1150 
     13 C13         3.2298  -18.4134  -49.1223 C.ar      23 UNK        -0.0193 
     14 C14         2.4622  -17.3493  -49.6095 C.ar      23 UNK        -0.1150 
     15 C15         4.0267  -18.2524  -47.8308 C.3       23 UNK        -0.0205 
     16 S16         3.7865  -19.6145  -46.6449 S.3       23 UNK        -0.2404 
     17 C17         2.0736  -19.3256  -46.0935 C.3       23 UNK        -0.0398 
     18 CA          1.0513  -20.2640  -46.7690 C.3       11 UNK         0.1400 
     19 N           1.4163  -21.6765  -46.6559 N.am      11 UNK        -0.5000 
     20 C           0.9158  -22.6533  -47.4212 C.2       10 UNK         0.5000 
     21 O           0.0940  -22.4605  -48.3136 O.2       10 UNK        -0.5000 
     22 CA          1.3763  -24.0870  -47.1005 C.3       10 UNK         0.1400 
     23 CB          2.6960  -24.3990  -47.8217 C.3       10 UNK        -0.1800 
     24 N           1.5432  -24.3094  -45.6623 N.am      10 UNK        -0.5000 
     25 C           0.5406  -24.2802  -44.7721 C.2       9 UNK         0.5000 
     26 O          -0.6414  -24.1423  -45.0837 O.2       9 UNK        -0.5000 
     27 CA          0.9288  -24.3536  -43.2819 C.3       9 UNK         0.1400 
     28 CB          0.9728  -25.8135  -42.8077 C.3       9 UNK        -0.1800 
     29 N           2.2095  -23.7047  -42.9795 N.am      9 UNK        -0.5000 
     30 C           2.4749  -22.4057  -43.1758 C.2       8 UNK         0.5000 
     31 O           1.6558  -21.6080  -43.6367 O.2       8 UNK        -0.5000 
     32 CA          3.9199  -21.9607  -42.8811 C.3       8 UNK         0.1400 
     33 CB          4.8630  -22.4598  -43.9887 C.3       8 UNK        -0.1800 
     34 N           4.0672  -20.5086  -42.7737 N.am      8 UNK        -0.5000 
     35 C           3.6128  -19.7534  -41.7650 C.2       7 UNK         0.5000 
     36 O           3.0011  -20.2165  -40.7999 O.2       7 UNK        -0.5000 
     37 CA          3.9449  -18.2438  -41.8116 C.3       7 UNK         0.1400 
     38 CB          4.5129  -17.7638  -43.1636 C.3       7 UNK        -0.1800 
     39 N           2.7731  -17.4363  -41.4757 N.am      7 UNK        -0.5000 
     40 C           2.4243  -17.0533  -40.2377 C.2       6 UNK         0.5000 
     41 O           3.0986  -17.2965  -39.2354 O.2       6 UNK        -0.5000 
     42 CA          1.1185  -16.2421  -40.0739 C.3       6 UNK         0.1400 
     43 CB          1.4350  -14.7578  -39.8331 C.3       6 UNK        -0.1800 
     44 N           0.2130  -16.3433  -41.2181 N.am      6 UNK        -0.5000 
     45 C          -0.4648  -17.4463  -41.5656 C.2       5 UNK         0.5000 
     46 O          -0.5055  -18.4635  -40.8738 O.2       5 UNK        -0.5000 
     47 CA         -1.2027  -17.4290  -42.9215 C.3       5 UNK         0.1400 
     48 CB         -2.7179  -17.3122  -42.7000 C.3       5 UNK        -0.1800 
     49 N          -0.7728  -16.3776  -43.8498 N.am      5 UNK        -0.5000 
     50 C           0.4769  -16.2176  -44.3135 C.2       4 UNK         0.5000 
     51 O           1.3971  -16.9837  -44.0359 O.2       4 UNK        -0.5000 
     52 CA          0.7780  -14.9796  -45.1830 C.3       4 UNK         0.1400 
     53 CB          0.8980  -15.3898  -46.6540 C.3       4 UNK        -0.1800 
     54 N          -0.2122  -13.9083  -45.0648 N.am      4 UNK        -0.5000 
     55 C          -0.5140  -13.2544  -43.9331 C.2       3 UNK         0.5000 
     56 O           0.0736  -13.4394  -42.8659 O.2       3 UNK        -0.5000 
     57 CA         -1.6977  -12.2670  -43.9800 C.3       3 UNK         0.1400 
     58 CB         -1.1864  -10.8184  -43.9890 C.3       3 UNK        -0.1800 
     59 N          -2.6118  -12.4513  -45.1124 N.am      3 UNK        -0.5000 
     60 C          -3.3097  -13.5591  -45.4037 C.2       2 UNK         0.5000 
     61 O          -3.2340  -14.6016  -44.7523 O.2       2 UNK        -0.5000 
     62 CA         -4.2371  -13.4972  -46.6377 C.3       2 UNK         0.1400 
     63 CB         -4.6387  -12.0589  -47.0314 C.3       2 UNK        -0.1800 
     64 N          -3.7112  -14.1946  -47.8176 N.am      2 UNK        -0.5000 
     65 C          -2.5025  -14.0676  -48.3905 C.2       1 UNK         0.5000 
     66 O          -1.5794  -13.4184  -47.8966 O.2       1 UNK        -0.5000 
     67 C          -0.3653  -20.0111  -46.2184 C.2       11 UNK         0.5000 
     68 O          -1.0939  -19.1970  -46.7810 O.2       11 UNK        -0.5000 
     69 N          -0.7525  -20.7396  -45.1610 N.am      12 UNK        -0.5000 
     70 CA         -2.1140  -20.7535  -44.6226 C.3       12 UNK         0.1400 
     71 CB         -2.1252  -21.4445  -43.2521 C.3       12 UNK        -0.1800 
     72 C          -3.1235  -21.3972  -45.5898 C.2       12 UNK         0.5000 
     73 O          -4.2371  -20.8913  -45.7264 O.2       12 UNK        -0.5000 
     74 N          -2.7076  -22.4650  -46.2842 N.am      13 UNK        -0.5000 
     75 CA         -3.4690  -23.0780  -47.3720 C.3       13 UNK         0.1400 
     76 CB         -2.8345  -24.4195  -47.7624 C.3       13 UNK        -0.1800 
     77 C          -3.6005  -22.1394  -48.5863 C.2       13 UNK         0.5000 
     78 O          -4.6908  -22.0285  -49.1425 O.2       13 UNK        -0.5000 
     79 N          -2.5127  -21.4368  -48.9370 N.am      14 UNK        -0.5000 
     80 CA         -2.4807  -20.4018  -49.9732 C.3       14 UNK         0.1400 
     81 CB         -1.0347  -19.9231  -50.1778 C.3       14 UNK        -0.1800 
     82 C          -3.4061  -19.2130  -49.6496 C.2       14 UNK         0.5000 
     83 O          -4.1136  -18.7226  -50.5318 O.2       14 UNK        -0.5000 
     84 N          -3.4068  -18.7944  -48.3761 N.am      15 UNK        -0.5000 
     85 CA         -4.2708  -17.7547  -47.8227 C.3       15 UNK         0.1400 
     86 CB         -3.8471  -17.4314  -46.3867 C.3       15 UNK        -0.1800 
     87 C          -5.7693  -18.0841  -47.8933 C.2       15 UNK         0.5000 
     88 O          -6.5728  -17.1721  -48.0886 O.2       15 UNK        -0.5000 
     89 N          -6.1196  -19.3726  -47.7988 N.am      16 UNK        -0.5000 
     90 CA         -7.4783  -19.9045  -47.9249 C.3       16 UNK         0.1400 
     91 CB         -7.5478  -21.2617  -47.2014 C.3       16 UNK        -0.1800 
     92 C          -7.9640  -19.9787  -49.3927 C.2       16 UNK         0.5000 
     93 O          -8.5538  -20.9822  -49.7969 O.2       16 UNK        -0.5000 
     94 N          -7.7215  -18.9008  -50.1540 N.am      17 UNK        -0.5000 
     95 CA         -8.1190  -18.6659  -51.5455 C.3       17 UNK         0.1400 
     96 CB         -9.6466  -18.4692  -51.6370 C.3       17 UNK        -0.1800 
     97 C          -7.5865  -19.7281  -52.5314 C.2       17 UNK         0.5000 
     98 O          -8.3196  -20.1662  -53.4205 O.2       17 UNK        -0.5000 
     99 N          -6.3166  -20.1183  -52.3650 N.am      18 UNK        -0.5000 
    100 CA        -5.6445  -21.1215  -53.1932 C.3       18 UNK         0.1400 
    101 CB        -5.7680  -22.5088  -52.5379 C.3       18 UNK        -0.1800 
    102 C         -4.1896  -20.7039  -53.4547 C.2       18 UNK         0.5000 
    103 O         -3.2865  -21.5415  -53.4172 O.2       18 UNK        -0.5000 
    104 N         -3.9890  -19.4031  -53.7074 N.am      19 UNK        -0.5000 
    105 CA        -2.6927  -18.7282  -53.8296 C.3       19 UNK         0.1400 
    106 CB        -2.9424  -17.2319  -54.0727 C.3       19 UNK        -0.1800 
    107 C         -1.7468  -19.2966  -54.9059 C.2       19 UNK         0.5000 
    108 O         -0.5303  -19.1740  -54.7680 O.2       19 UNK        -0.5000 
    109 N         -2.3184  -19.9008  -55.9548 N.am      20 UNK        -0.5000 
    110 CA        -1.5805  -20.5412  -57.0433 C.3       20 UNK         0.1400 
    111 CB        -2.4379  -20.4747  -58.3174 C.3       20 UNK        -0.1800 
    112 C         -1.1912  -22.0023  -56.7394 C.2       20 UNK         0.5000 
    113 O         -0.3190  -22.5372  -57.4256 O.2       20 UNK        -0.5000 
    114 N         -1.8532  -22.6330  -55.7595 N.am      21 UNK        -0.5000 
    115 CA        -1.6888  -24.0484  -55.4248 C.3       21 UNK         0.1400 
    116 CB        -3.0758  -24.6979  -55.2980 C.3       21 UNK        -0.1800 
    117 C         -0.8856  -24.2441  -54.1303 C.2       21 UNK         0.5000 
    118 O         -0.0284  -25.1275  -54.0842 O.2       21 UNK        -0.5000 
    119 N         -1.1759  -23.4247  -53.1103 N.am      22 UNK        -0.5000 
    120 CA        -0.5486  -23.4517  -51.7751 C.3       22 UNK         0.1400 
    121 C         -0.8386  -24.7558  -50.9692 C.2       22 UNK         0.5000 
    122 N         -1.9825  -25.3997  -51.1721 N.am      22 UNK        -0.7600 
    123 O         -0.0320  -25.1972  -50.1557 O.2       22 UNK        -0.5000 
    124 C124        0.9622  -23.0763  -51.7886 C.3       23 UNK        -0.0398 
    125 S125        1.3204  -21.5551  -52.7323 S.3       23 UNK        -0.2404 
    126 C126        2.8611  -20.9625  -51.9546 C.3       23 UNK        -0.0205 
    127 H127       -6.5798  -15.2237  -50.9503 H         1 UNK         0.0600 
    128 H128       -5.4658  -16.5013  -51.4431 H         1 UNK         0.0600 
    129 H129       -5.7988  -15.1551  -52.5350 H         1 UNK         0.0600 
    130 H130       -3.5132  -16.3339  -50.4392 H         1 UNK         0.3000 
    131 H131       -1.9254  -13.9768  -50.4292 H         1 UNK         0.0600 
    132 H132       -0.2491  -15.3819  -49.2503 H         1 UNK         0.0800 
    133 H133       -1.4337  -16.6436  -49.0049 H         1 UNK         0.0800 
    134 H134        1.3120  -16.1554  -52.4743 H         1 UNK         0.0800 
    135 H135        1.3379  -15.3317  -50.9417 H         1 UNK         0.0800 
    136 H136        1.4474  -18.6903  -52.5532 H         1 UNK         0.1150 
    137 H137        3.9322  -20.4066  -49.5097 H         1 UNK         0.1150 
    138 H138        2.4003  -16.4277  -49.0497 H         1 UNK         0.1150 
    139 H139        5.0853  -18.2067  -48.0891 H         1 UNK         0.0800 
    140 H140        3.7955  -17.3066  -47.3392 H         1 UNK         0.0800 
    141 H141        2.0493  -19.4403  -45.0091 H         1 UNK         0.0800 
    142 H142        1.8082  -18.2886  -46.2922 H         1 UNK         0.0800 
    143 H143        1.0327  -20.0137  -47.8318 H         1 UNK         0.0600 
    144 H144        2.0462  -21.9110  -45.9030 H         1 UNK         0.3000 
    145 H145        0.6116  -24.7754  -47.4661 H         1 UNK         0.0600 
    146 H146        3.0035  -25.4310  -47.6525 H         1 UNK         0.0600 
    147 H147        2.5890  -24.2663  -48.8993 H         1 UNK         0.0600 
    148 H148        3.5039  -23.7463  -47.4883 H         1 UNK         0.0600 
    149 H149        2.4853  -24.4364  -45.3243 H         1 UNK         0.3000 
    150 H150        0.1537  -23.8343  -42.7149 H         1 UNK         0.0600 
    151 H151        1.1584  -25.8748  -41.7352 H         1 UNK         0.0600 
    152 H152        1.7531  -26.3800  -43.3175 H         1 UNK         0.0600 
    153 H153        0.0235  -26.3150  -43.0007 H         1 UNK         0.0600 
    154 H154        2.9349  -24.3009  -42.6075 H         1 UNK         0.3000 
    155 H155        4.2266  -22.4051  -41.9319 H         1 UNK         0.0600 
    156 H156        4.8486  -23.5477  -44.0631 H         1 UNK         0.0600 
    157 H157        5.8943  -22.1674  -43.7898 H         1 UNK         0.0600 
    158 H158        4.5855  -22.0614  -44.9652 H         1 UNK         0.0600 
    159 H159        4.5298  -20.0500  -43.5445 H         1 UNK         0.3000 
    160 H160        4.7210  -18.0755  -41.0624 H         1 UNK         0.0600 
    161 H161        3.8319  -17.9678  -43.9893 H         1 UNK         0.0600 
    162 H162        5.4658  -18.2439  -43.3891 H         1 UNK         0.0600 
    163 H163        4.6968  -16.6894  -43.1495 H         1 UNK         0.0600 
    164 H164        2.1537  -17.2214  -42.2513 H         1 UNK         0.3000 
    165 H165        0.6011  -16.6292  -39.1937 H         1 UNK         0.0600 
    166 H166        1.9434  -14.3126  -40.6894 H         1 UNK         0.0600 
    167 H167        0.5258  -14.1848  -39.6493 H         1 UNK         0.0600 
    168 H168        2.0808  -14.6298  -38.9634 H         1 UNK         0.0600 
    169 H169        0.1774  -15.5415  -41.8351 H         1 UNK         0.3000 
    170 H170       -0.9850  -18.3833  -43.3997 H         1 UNK         0.0600 
    171 H171       -3.0849  -18.1147  -42.0587 H         1 UNK         0.0600 
    172 H172       -2.9801  -16.3647  -42.2277 H         1 UNK         0.0600 
    173 H173       -3.2634  -17.3749  -43.6395 H         1 UNK         0.0600 
    174 H174       -1.4823  -15.7091  -44.1298 H         1 UNK         0.3000 
    175 H175        1.7387  -14.5752  -44.8583 H         1 UNK         0.0600 
    176 H176        0.0073  -15.9232  -46.9872 H         1 UNK         0.0600 
    177 H177        1.0446  -14.5243  -47.3004 H         1 UNK         0.0600 
    178 H178        1.7527  -16.0482  -46.7994 H         1 UNK         0.0600 
    179 H179       -0.7447  -13.6896  -45.8996 H         1 UNK         0.3000 
    180 H180       -2.2759  -12.4208  -43.0668 H         1 UNK         0.0600 
    181 H181       -0.6254  -10.5971  -44.8978 H         1 UNK         0.0600 
    182 H182       -0.5261  -10.6302  -43.1413 H         1 UNK         0.0600 
    183 H183       -2.0102  -10.1078  -43.9199 H         1 UNK         0.0600 
    184 H184       -2.7112  -11.6609  -45.7325 H         1 UNK         0.3000 
    185 H185       -5.1490  -14.0234  -46.3516 H         1 UNK         0.0600 
    186 H186       -5.4062  -12.0708  -47.8056 H         1 UNK         0.0600 
    187 H187       -5.0518  -11.5151  -46.1807 H         1 UNK         0.0600 
    188 H188       -3.7953  -11.4867  -47.4196 H         1 UNK         0.0600 
    189 H189       -4.3891  -14.7509  -48.3163 H         1 UNK         0.3000 
    190 H190       -0.0682  -21.3385  -44.7115 H         1 UNK         0.3000 
    191 H191       -2.4318  -19.7207  -44.4802 H         1 UNK         0.0600 
    192 H192       -1.4313  -20.9635  -42.5619 H         1 UNK         0.0600 
    193 H193       -1.8501  -22.4960  -43.3268 H         1 UNK         0.0600 
    194 H194       -3.1176  -21.3971  -42.8024 H         1 UNK         0.0600 
    195 H195       -1.8089  -22.8798  -46.0593 H         1 UNK         0.3000 
    196 H196       -4.4764  -23.2810  -47.0024 H         1 UNK         0.0600 
    197 H197       -3.3979  -24.8984  -48.5640 H         1 UNK         0.0600 
    198 H198       -2.8183  -25.1080  -46.9174 H         1 UNK         0.0600 
    199 H199       -1.8096  -24.2963  -48.1091 H         1 UNK         0.0600 
    200 H200       -1.6305  -21.6453  -48.4776 H         1 UNK         0.3000 
    201 H201       -2.8254  -20.8632  -50.8976 H         1 UNK         0.0600 
    202 H202       -0.9330  -19.3890  -51.1191 H         1 UNK         0.0600 
    203 H203       -0.3264  -20.7477  -50.2160 H         1 UNK         0.0600 
    204 H204       -0.7061  -19.2480  -49.3883 H         1 UNK         0.0600 
    205 H205       -2.7260  -19.1973  -47.7373 H         1 UNK         0.3000 
    206 H206       -4.1214  -16.8600  -48.4168 H         1 UNK         0.0600 
    207 H207       -2.8210  -17.0647  -46.3464 H         1 UNK         0.0600 
    208 H208       -4.4856  -16.6595  -45.9565 H         1 UNK         0.0600 
    209 H209       -3.9193  -18.3053  -45.7426 H         1 UNK         0.0600 
    210 H210       -5.3868  -20.0561  -47.6555 H         1 UNK         0.3000 
    211 H211       -8.1585  -19.2259  -47.4064 H         1 UNK         0.0600 
    212 H212       -6.9266  -22.0115  -47.6912 H         1 UNK         0.0600 
    213 H213       -8.5691  -21.6437  -47.1804 H         1 UNK         0.0600 
    214 H214       -7.2134  -21.1753  -46.1673 H         1 UNK         0.0600 
    215 H215       -7.2451  -18.1303  -49.6972 H         1 UNK         0.3000 
    216 H216       -7.6531  -17.7251  -51.8401 H         1 UNK         0.0600 
    217 H217       -9.9446  -18.1703  -52.6426 H         1 UNK         0.0600 
    218 H218       -9.9848  -17.6886  -50.9555 H         1 UNK         0.0600 
    219 H219      -10.1873  -19.3844  -51.3933 H         1 UNK         0.0600 
    220 H220       -5.7599  -19.7053  -51.6235 H         1 UNK         0.3000 
    221 H221       -6.1188  -21.1695  -54.1754 H         1 UNK         0.0600 
    222 H222       -5.3852  -23.2886  -53.1953 H         1 UNK         0.0600 
    223 H223       -5.2081  -22.5618  -51.6055 H         1 UNK         0.0600 
    224 H224       -6.8075  -22.7526  -52.3183 H         1 UNK         0.0600 
    225 H225       -4.7993  -18.8017  -53.7207 H         1 UNK         0.3000 
    226 H226       -2.1857  -18.8340  -52.8718 H         1 UNK         0.0600 
    227 H227       -3.4863  -16.7844  -53.2410 H         1 UNK         0.0600 
    228 H228       -2.0020  -16.6879  -54.1708 H         1 UNK         0.0600 
    229 H229       -3.5165  -17.0618  -54.9841 H         1 UNK         0.0600 
    230 H230       -3.3258  -19.9443  -55.9958 H         1 UNK         0.3000 
    231 H231       -0.6577  -19.9875  -57.2294 H         1 UNK         0.0600 
    232 H232       -1.9118  -20.9123  -59.1668 H         1 UNK         0.0600 
    233 H233       -2.6740  -19.4434  -58.5804 H         1 UNK         0.0600 
    234 H234       -3.3777  -21.0157  -58.1995 H         1 UNK         0.0600 
    235 H235       -2.4921  -22.1028  -55.1788 H         1 UNK         0.3000 
    236 H236       -1.1559  -24.5686  -56.2236 H         1 UNK         0.0600 
    237 H237       -3.6315  -24.6233  -56.2329 H         1 UNK         0.0600 
    238 H238       -2.9906  -25.7575  -55.0538 H         1 UNK         0.0600 
    239 H239       -3.6716  -24.2270  -54.5166 H         1 UNK         0.0600 
    240 H240       -1.9056  -22.7273  -53.2353 H         1 UNK         0.3000 
    241 H241       -1.0612  -22.6759  -51.2106 H         1 UNK         0.0600 
    242 H242       -2.6517  -25.0609  -51.8437 H         1 UNK         0.3800 
    243 H243       -2.1661  -26.2487  -50.6624 H         1 UNK         0.3800 
    244 H244        1.3124  -22.9371  -50.7647 H         1 UNK         0.0800 
    245 H245        1.5562  -23.8883  -52.2101 H         1 UNK         0.0800 
    246 H246        3.3119  -21.7639  -51.3676 H         1 UNK         0.0800 
    247 H247        3.5740  -20.7311  -52.7467 H         1 UNK         0.0800 
@<TRIPOS>BOND
     1    1    2 1    
     2    1  127 1    
     3    1  128 1    
     4    1  129 1    
     5    2    3 2    
     6    2    4 am   BACKBONE|DICT|INTERRES
     7    4    5 1    
     8    4  130 1    
     9    5    6 1    
    10    5   65 1    
    11    5  131 1    
    12    6    7 1    
    13    6  132 1    
    14    6  133 1    
    15    7    8 1    
    16    8    9 1    
    17    8  134 1    
    18    8  135 1    
    19    9   10 ar   
    20    9   14 ar   
    21   10   11 ar   
    22   10  136 1    
    23   11   12 ar   
    24   11  126 1    
    25   12   13 ar   
    26   12  137 1    
    27   13   14 ar   
    28   13   15 1    
    29   14  138 1    
    30   15   16 1    
    31   15  139 1    
    32   15  140 1    
    33   16   17 1    
    34   17   18 1    
    35   17  141 1    
    36   17  142 1    
    37   18   19 1    
    38   18   67 1    
    39   18  143 1    
    40   19   20 am   BACKBONE|DICT|INTERRES
    41   19  144 1    
    42   20   21 2    
    43   20   22 1    
    44   22   23 1    
    45   22   24 1    
    46   22  145 1    
    47   23  146 1    
    48   23  147 1    
    49   23  148 1    
    50   24   25 am   BACKBONE|DICT|INTERRES
    51   24  149 1    
    52   25   26 2    
    53   25   27 1    
    54   27   28 1    
    55   27   29 1    
    56   27  150 1    
    57   28  151 1    
    58   28  152 1    
    59   28  153 1    
    60   29   30 am   BACKBONE|DICT|INTERRES
    61   29  154 1    
    62   30   31 2    
    63   30   32 1    
    64   32   33 1    
    65   32   34 1    
    66   32  155 1    
    67   33  156 1    
    68   33  157 1    
    69   33  158 1    
    70   34   35 am   BACKBONE|DICT|INTERRES
    71   34  159 1    
    72   35   36 2    
    73   35   37 1    
    74   37   38 1    
    75   37   39 1    
    76   37  160 1    
    77   38  161 1    
    78   38  162 1    
    79   38  163 1    
    80   39   40 am   BACKBONE|DICT|INTERRES
    81   39  164 1    
    82   40   41 2    
    83   40   42 1    
    84   42   43 1    
    85   42   44 1    
    86   42  165 1    
    87   43  166 1    
    88   43  167 1    
    89   43  168 1    
    90   44   45 am   BACKBONE|DICT|INTERRES
    91   44  169 1    
    92   45   46 2    
    93   45   47 1    
    94   47   48 1    
    95   47   49 1    
    96   47  170 1    
    97   48  171 1    
    98   48  172 1    
    99   48  173 1    
   100   49   50 am   BACKBONE|DICT|INTERRES
   101   49  174 1    
   102   50   51 2    
   103   50   52 1    
   104   52   53 1    
   105   52   54 1    
   106   52  175 1    
   107   53  176 1    
   108   53  177 1    
   109   53  178 1    
   110   54   55 am   BACKBONE|DICT|INTERRES
   111   54  179 1    
   112   55   56 2    
   113   55   57 1    
   114   57   58 1    
   115   57   59 1    
   116   57  180 1    
   117   58  181 1    
   118   58  182 1    
   119   58  183 1    
   120   59   60 am   BACKBONE|DICT|INTERRES
   121   59  184 1    
   122   60   61 2    
   123   60   62 1    
   124   62   63 1    
   125   62   64 1    
   126   62  185 1    
   127   63  186 1    
   128   63  187 1    
   129   63  188 1    
   130   64   65 am   BACKBONE|DICT|INTERRES
   131   64  189 1    
   132   65   66 2    
   133   67   68 2    
   134   67   69 am   BACKBONE|DICT|INTERRES
   135   69   70 1    
   136   69  190 1    
   137   70   71 1    
   138   70   72 1    
   139   70  191 1    
   140   71  192 1    
   141   71  193 1    
   142   71  194 1    
   143   72   73 2    
   144   72   74 am   BACKBONE|DICT|INTERRES
   145   74   75 1    
   146   74  195 1    
   147   75   76 1    
   148   75   77 1    
   149   75  196 1    
   150   76  197 1    
   151   76  198 1    
   152   76  199 1    
   153   77   78 2    
   154   77   79 am   BACKBONE|DICT|INTERRES
   155   79   80 1    
   156   79  200 1    
   157   80   81 1    
   158   80   82 1    
   159   80  201 1    
   160   81  202 1    
   161   81  203 1    
   162   81  204 1    
   163   82   83 2    
   164   82   84 am   BACKBONE|DICT|INTERRES
   165   84   85 1    
   166   84  205 1    
   167   85   86 1    
   168   85   87 1    
   169   85  206 1    
   170   86  207 1    
   171   86  208 1    
   172   86  209 1    
   173   87   88 2    
   174   87   89 am   BACKBONE|DICT|INTERRES
   175   89   90 1    
   176   89  210 1    
   177   90   91 1    
   178   90   92 1    
   179   90  211 1    
   180   91  212 1    
   181   91  213 1    
   182   91  214 1    
   183   92   93 2    
   184   92   94 am   BACKBONE|DICT|INTERRES
   185   94   95 1    
   186   94  215 1    
   187   95   96 1    
   188   95   97 1    
   189   95  216 1    
   190   96  217 1    
   191   96  218 1    
   192   96  219 1    
   193   97   98 2    
   194   97   99 am   BACKBONE|DICT|INTERRES
   195   99  100 1    
   196   99  220 1    
   197  100  101 1    
   198  100  102 1    
   199  100  221 1    
   200  101  222 1    
   201  101  223 1    
   202  101  224 1    
   203  102  103 2    
   204  102  104 am   BACKBONE|DICT|INTERRES
   205  104  105 1    
   206  104  225 1    
   207  105  106 1    
   208  105  107 1    
   209  105  226 1    
   210  106  227 1    
   211  106  228 1    
   212  106  229 1    
   213  107  108 2    
   214  107  109 am   BACKBONE|DICT|INTERRES
   215  109  110 1    
   216  109  230 1    
   217  110  111 1    
   218  110  112 1    
   219  110  231 1    
   220  111  232 1    
   221  111  233 1    
   222  111  234 1    
   223  112  113 2    
   224  112  114 am   BACKBONE|DICT|INTERRES
   225  114  115 1    
   226  114  235 1    
   227  115  116 1    
   228  115  117 1    
   229  115  236 1    
   230  116  237 1    
   231  116  238 1    
   232  116  239 1    
   233  117  118 2    
   234  117  119 am   BACKBONE|DICT|INTERRES
   235  119  120 1    
   236  119  240 1    
   237  120  121 1    
   238  120  124 1    
   239  120  241 1    
   240  121  122 am   BACKBONE|DICT|INTERRES
   241  121  123 2    
   242  122  242 1    
   243  122  243 1    
   244  124  125 1    
   245  124  244 1    
   246  124  245 1    
   247  125  126 1    
   248  126  246 1    
   249  126  247 1    
@<TRIPOS>SUBSTRUCTURE
     1 UNK         1 GROUP             0       ****    0 ROOT    
