@<TRIPOS>MOLECULE
3R540
247   249    1
SMALL
USER_CHARGES


@<TRIPOS>ATOM
      1 CA          4.0447  -14.4898  -46.5568 C.3       0 UNK        -0.1800 
      2 C           2.7517  -13.7358  -46.8232 C.2       0 UNK         0.5000 
      3 O           2.6962  -12.5229  -46.6158 O.2       0 UNK        -0.5000 
      4 N           1.7075  -14.4499  -47.2624 N.am      1 UNK        -0.5000 
      5 CA          0.3504  -13.9774  -47.5695 C.3       1 UNK         0.1400 
      6 C6          0.3120  -12.9023  -48.6913 C.3       23 UNK        -0.0398 
      7 S7         -1.2151  -12.9714  -49.6926 S.3       23 UNK        -0.2404 
      8 C8         -0.6170  -13.6328  -51.2855 C.3       23 UNK        -0.0205 
      9 C9         -0.4979  -15.1503  -51.2680 C.ar      23 UNK        -0.0193 
     10 C10        -1.5288  -15.9469  -51.7810 C.ar      23 UNK        -0.1150 
     11 C11        -1.4301  -17.3417  -51.7522 C.ar      23 UNK        -0.0193 
     12 C12        -0.3008  -17.9374  -51.1874 C.ar      23 UNK        -0.1150 
     13 C13         0.7342  -17.1536  -50.6747 C.ar      23 UNK        -0.0193 
     14 C14         0.6416  -15.7612  -50.7365 C.ar      23 UNK        -0.1150 
     15 C15         1.9181  -17.8184  -49.9931 C.3       23 UNK        -0.0205 
     16 S16         1.9180  -17.5586  -48.1864 S.3       23 UNK        -0.2404 
     17 C17         0.1674  -17.8029  -47.7127 C.3       23 UNK        -0.0398 
     18 CA         -0.2195  -19.2939  -47.6328 C.3       11 UNK         0.1400 
     19 N           0.4077  -19.9626  -46.4928 N.am      11 UNK        -0.5000 
     20 C           0.3990  -21.2833  -46.2786 C.2       10 UNK         0.5000 
     21 O          -0.1011  -22.0957  -47.0565 O.2       10 UNK        -0.5000 
     22 CA          0.9987  -21.7681  -44.9451 C.3       10 UNK         0.1400 
     23 CB          2.5320  -21.8266  -45.0150 C.3       10 UNK        -0.1800 
     24 N           0.5857  -20.9320  -43.8152 N.am      10 UNK        -0.5000 
     25 C          -0.6793  -20.8266  -43.3830 C.2       9 UNK         0.5000 
     26 O          -1.6156  -21.4726  -43.8549 O.2       9 UNK        -0.5000 
     27 CA         -0.9557  -19.7967  -42.2714 C.3       9 UNK         0.1400 
     28 CB         -0.6098  -20.3734  -40.8907 C.3       9 UNK        -0.1800 
     29 N          -0.2411  -18.5349  -42.4724 N.am      9 UNK        -0.5000 
     30 C          -0.4420  -17.7031  -43.5044 C.2       8 UNK         0.5000 
     31 O          -1.2824  -17.8952  -44.3793 O.2       8 UNK        -0.5000 
     32 CA          0.4833  -16.4778  -43.6108 C.3       8 UNK         0.1400 
     33 CB          0.0060  -15.3604  -42.6749 C.3       8 UNK        -0.1800 
     34 N           1.8837  -16.7993  -43.3323 N.am      8 UNK        -0.5000 
     35 C           2.6107  -17.6868  -44.0271 C.2       7 UNK         0.5000 
     36 O           2.1863  -18.2986  -45.0038 O.2       7 UNK        -0.5000 
     37 CA          4.0203  -18.0003  -43.5001 C.3       7 UNK         0.1400 
     38 CB          5.0359  -16.9493  -43.9668 C.3       7 UNK        -0.1800 
     39 N           4.0359  -18.1027  -42.0414 N.am      7 UNK        -0.5000 
     40 C           3.4453  -19.0945  -41.3585 C.2       6 UNK         0.5000 
     41 O           2.8791  -20.0503  -41.8906 O.2       6 UNK        -0.5000 
     42 CA          3.4458  -18.9627  -39.8258 C.3       6 UNK         0.1400 
     43 CB          4.7900  -19.4169  -39.2379 C.3       6 UNK        -0.1800 
     44 N           3.1618  -17.5947  -39.3903 N.am      6 UNK        -0.5000 
     45 C           1.9923  -16.9656  -39.5528 C.2       5 UNK         0.5000 
     46 O           1.0109  -17.4935  -40.0733 O.2       5 UNK        -0.5000 
     47 CA          1.9051  -15.4971  -39.0927 C.3       5 UNK         0.1400 
     48 CB          1.8690  -15.3889  -37.5565 C.3       5 UNK        -0.1800 
     49 N           2.9326  -14.6238  -39.6771 N.am      5 UNK        -0.5000 
     50 C           4.2606  -14.6421  -39.4981 C.2       4 UNK         0.5000 
     51 O           4.8327  -15.4377  -38.7509 O.2       4 UNK        -0.5000 
     52 CA          5.1116  -13.6074  -40.2663 C.3       4 UNK         0.1400 
     53 CB          6.2200  -14.2991  -41.0849 C.3       4 UNK        -0.1800 
     54 N           4.3840  -12.6425  -41.1069 N.am      4 UNK        -0.5000 
     55 C           3.6449  -12.8722  -42.2016 C.2       3 UNK         0.5000 
     56 O           3.3287  -13.9949  -42.6007 O.2       3 UNK        -0.5000 
     57 CA          3.2368  -11.6180  -42.9957 C.3       3 UNK         0.1400 
     58 CB          4.3832  -11.1901  -43.9257 C.3       3 UNK        -0.1800 
     59 N           2.0394  -11.8353  -43.8052 N.am      3 UNK        -0.5000 
     60 C           0.7832  -11.7647  -43.3402 C.2       2 UNK         0.5000 
     61 O           0.5161  -11.5122  -42.1646 O.2       2 UNK        -0.5000 
     62 CA         -0.3748  -12.0088  -44.3305 C.3       2 UNK         0.1400 
     63 CB         -1.1673  -10.7149  -44.5790 C.3       2 UNK        -0.1800 
     64 N           0.0984  -12.5262  -45.6126 N.am      2 UNK        -0.5000 
     65 C          -0.4154  -13.5534  -46.2961 C.2       1 UNK         0.5000 
     66 O          -1.4127  -14.1833  -45.9444 O.2       1 UNK        -0.5000 
     67 C          -1.7521  -19.4663  -47.6429 C.2       11 UNK         0.5000 
     68 O          -2.3187  -19.6999  -48.7086 O.2       11 UNK        -0.5000 
     69 N          -2.3977  -19.3929  -46.4710 N.am      12 UNK        -0.5000 
     70 CA         -3.8305  -19.6395  -46.2994 C.3       12 UNK         0.1400 
     71 CB         -4.2654  -19.2497  -44.8794 C.3       12 UNK        -0.1800 
     72 C          -4.2206  -21.0943  -46.6139 C.2       12 UNK         0.5000 
     73 O          -5.2488  -21.3180  -47.2509 O.2       12 UNK        -0.5000 
     74 N          -3.3751  -22.0548  -46.2142 N.am      13 UNK        -0.5000 
     75 CA         -3.5198  -23.4690  -46.5648 C.3       13 UNK         0.1400 
     76 CB         -2.5254  -24.3113  -45.7521 C.3       13 UNK        -0.1800 
     77 C          -3.3596  -23.7211  -48.0773 C.2       13 UNK         0.5000 
     78 O          -4.0955  -24.5335  -48.6360 O.2       13 UNK        -0.5000 
     79 N          -2.4356  -22.9924  -48.7191 N.am      14 UNK        -0.5000 
     80 CA         -2.2294  -22.9993  -50.1683 C.3       14 UNK         0.1400 
     81 CB         -0.8977  -22.3059  -50.4918 C.3       14 UNK        -0.1800 
     82 C          -3.4058  -22.3564  -50.9323 C.2       14 UNK         0.5000 
     83 O          -3.8215  -22.8798  -51.9639 O.2       14 UNK        -0.5000 
     84 N          -3.9652  -21.2650  -50.3922 N.am      15 UNK        -0.5000 
     85 CA         -5.1667  -20.6021  -50.9073 C.3       15 UNK         0.1400 
     86 CB         -5.3870  -19.2813  -50.1525 C.3       15 UNK        -0.1800 
     87 C          -6.4258  -21.4859  -50.8080 C.2       15 UNK         0.5000 
     88 O          -7.2877  -21.4172  -51.6831 O.2       15 UNK        -0.5000 
     89 N          -6.5010  -22.3038  -49.7503 N.am      16 UNK        -0.5000 
     90 CA         -7.5763  -23.2629  -49.4988 C.3       16 UNK         0.1400 
     91 CB         -7.5959  -23.5998  -47.9991 C.3       16 UNK        -0.1800 
     92 C          -7.4734  -24.5506  -50.3424 C.2       16 UNK         0.5000 
     93 O          -8.4353  -25.3210  -50.3678 O.2       16 UNK        -0.5000 
     94 N          -6.3291  -24.7821  -51.0023 N.am      17 UNK        -0.5000 
     95 CA         -6.0985  -25.9216  -51.8918 C.3       17 UNK         0.1400 
     96 CB         -4.5928  -26.0445  -52.1773 C.3       17 UNK        -0.1800 
     97 C          -6.8939  -25.8011  -53.2066 C.2       17 UNK         0.5000 
     98 O          -7.3964  -24.7228  -53.5365 O.2       17 UNK        -0.5000 
     99 N          -6.9758  -26.9169  -53.9445 N.am      18 UNK        -0.5000 
    100 CA        -7.6733  -27.0457  -55.2263 C.3       18 UNK         0.1400 
    101 CB        -7.4713  -28.4683  -55.7708 C.3       18 UNK        -0.1800 
    102 C         -7.2175  -25.9942  -56.2563 C.2       18 UNK         0.5000 
    103 O         -6.0285  -25.9283  -56.5744 O.2       18 UNK        -0.5000 
    104 N         -8.1749  -25.1751  -56.7132 N.am      19 UNK        -0.5000 
    105 CA        -8.0158  -24.0424  -57.6339 C.3       19 UNK         0.1400 
    106 CB        -7.5540  -24.5294  -59.0242 C.3       19 UNK        -0.1800 
    107 C         -7.1383  -22.8916  -57.0869 C.2       19 UNK         0.5000 
    108 O         -6.6560  -22.0808  -57.8793 O.2       19 UNK        -0.5000 
    109 N         -6.9631  -22.8265  -55.7556 N.am      20 UNK        -0.5000 
    110 CA        -6.1313  -21.8742  -55.0110 C.3       20 UNK         0.1400 
    111 CB        -6.7341  -20.4552  -55.0582 C.3       20 UNK        -0.1800 
    112 C         -4.6605  -21.9253  -55.4651 C.2       20 UNK         0.5000 
    113 O         -4.1184  -20.9362  -55.9628 O.2       20 UNK        -0.5000 
    114 N         -4.0573  -23.1114  -55.3266 N.am      21 UNK        -0.5000 
    115 CA        -2.6753  -23.4156  -55.6897 C.3       21 UNK         0.1400 
    116 CB        -2.5166  -24.9450  -55.7618 C.3       21 UNK        -0.1800 
    117 C         -1.6626  -22.7591  -54.7267 C.2       21 UNK         0.5000 
    118 O         -1.0495  -23.4503  -53.9123 O.2       21 UNK        -0.5000 
    119 N         -1.5157  -21.4326  -54.8419 N.am      22 UNK        -0.5000 
    120 CA        -0.6227  -20.5753  -54.0420 C.3       22 UNK         0.1400 
    121 C          0.8914  -20.9397  -54.0901 C.2       22 UNK         0.5000 
    122 N          1.3781  -21.6336  -55.1118 N.am      22 UNK        -0.7600 
    123 O          1.6358  -20.5808  -53.1825 O.2       22 UNK        -0.5000 
    124 C124       -0.8000  -19.0758  -54.3954 C.3       23 UNK        -0.0398 
    125 S125       -2.4836  -18.4278  -54.1088 S.3       23 UNK        -0.2404 
    126 C126       -2.5490  -18.2160  -52.2996 C.3       23 UNK        -0.0205 
    127 H127        3.9420  -15.5553  -46.7633 H         1 UNK         0.0600 
    128 H128        4.3345  -14.3704  -45.5131 H         1 UNK         0.0600 
    129 H129        4.8452  -14.0957  -47.1823 H         1 UNK         0.0600 
    130 H130        1.8405  -15.4447  -47.4005 H         1 UNK         0.3000 
    131 H131       -0.1583  -14.8638  -47.9502 H         1 UNK         0.0600 
    132 H132        0.4207  -11.8945  -48.2873 H         1 UNK         0.0800 
    133 H133        1.1655  -13.0282  -49.3575 H         1 UNK         0.0800 
    134 H134        0.3396  -13.1799  -51.5499 H         1 UNK         0.0800 
    135 H135       -1.3148  -13.3290  -52.0673 H         1 UNK         0.0800 
    136 H136       -2.4104  -15.4829  -52.2008 H         1 UNK         0.1150 
    137 H137       -0.2328  -19.0147  -51.1371 H         1 UNK         0.1150 
    138 H138        1.4421  -15.1575  -50.3341 H         1 UNK         0.1150 
    139 H139        2.8456  -17.4236  -50.4098 H         1 UNK         0.0800 
    140 H140        1.9262  -18.8907  -50.1955 H         1 UNK         0.0800 
    141 H141       -0.4804  -17.2597  -48.4008 H         1 UNK         0.0800 
    142 H142        0.0110  -17.3255  -46.7449 H         1 UNK         0.0800 
    143 H143        0.1481  -19.7858  -48.5355 H         1 UNK         0.0600 
    144 H144        0.9056  -19.3637  -45.8376 H         1 UNK         0.3000 
    145 H145        0.6301  -22.7801  -44.7645 H         1 UNK         0.0600 
    146 H146        2.8595  -22.4837  -45.8214 H         1 UNK         0.0600 
    147 H147        2.9540  -22.2130  -44.0870 H         1 UNK         0.0600 
    148 H148        2.9682  -20.8444  -45.1957 H         1 UNK         0.0600 
    149 H149        1.3068  -20.3856  -43.3585 H         1 UNK         0.3000 
    150 H150       -2.0249  -19.5761  -42.2850 H         1 UNK         0.0600 
    151 H151        0.4548  -20.5882  -40.7973 H         1 UNK         0.0600 
    152 H152       -1.1503  -21.3031  -40.7093 H         1 UNK         0.0600 
    153 H153       -0.8806  -19.6788  -40.0953 H         1 UNK         0.0600 
    154 H154        0.4271  -18.2707  -41.7544 H         1 UNK         0.3000 
    155 H155        0.4345  -16.1051  -44.6355 H         1 UNK         0.0600 
    156 H156        0.6842  -14.5108  -42.7006 H         1 UNK         0.0600 
    157 H157       -0.0691  -15.6949  -41.6416 H         1 UNK         0.0600 
    158 H158       -0.9813  -15.0061  -42.9726 H         1 UNK         0.0600 
    159 H159        2.3205  -16.3080  -42.5662 H         1 UNK         0.3000 
    160 H160        4.3246  -18.9659  -43.9100 H         1 UNK         0.0600 
    161 H161        4.7464  -15.9448  -43.6623 H         1 UNK         0.0600 
    162 H162        5.1176  -16.9504  -45.0540 H         1 UNK         0.0600 
    163 H163        6.0298  -17.1512  -43.5673 H         1 UNK         0.0600 
    164 H164        4.4697  -17.3499  -41.5290 H         1 UNK         0.3000 
    165 H165        2.6621  -19.6147  -39.4342 H         1 UNK         0.0600 
    166 H166        5.0240  -20.4380  -39.5417 H         1 UNK         0.0600 
    167 H167        5.6112  -18.7785  -39.5663 H         1 UNK         0.0600 
    168 H168        4.7681  -19.3992  -38.1482 H         1 UNK         0.0600 
    169 H169        3.9266  -17.0597  -38.9863 H         1 UNK         0.3000 
    170 H170        0.9533  -15.1120  -39.4614 H         1 UNK         0.0600 
    171 H171        1.7364  -14.3548  -37.2385 H         1 UNK         0.0600 
    172 H172        2.7810  -15.7668  -37.0939 H         1 UNK         0.0600 
    173 H173        1.0369  -15.9634  -37.1477 H         1 UNK         0.0600 
    174 H174        2.5902  -13.9617  -40.3598 H         1 UNK         0.3000 
    175 H175        5.6031  -13.0101  -39.4971 H         1 UNK         0.0600 
    176 H176        5.8076  -14.9549  -41.8497 H         1 UNK         0.0600 
    177 H177        6.8615  -14.9077  -40.4465 H         1 UNK         0.0600 
    178 H178        6.8595  -13.5683  -41.5799 H         1 UNK         0.0600 
    179 H179        4.5458  -11.6767  -40.8561 H         1 UNK         0.3000 
    180 H180        3.0439  -10.8052  -42.2920 H         1 UNK         0.0600 
    181 H181        4.6398  -11.9759  -44.6371 H         1 UNK         0.0600 
    182 H182        5.2848  -10.9564  -43.3582 H         1 UNK         0.0600 
    183 H183        4.1184  -10.2985  -44.4944 H         1 UNK         0.0600 
    184 H184        2.2102  -12.1001  -44.7678 H         1 UNK         0.3000 
    185 H185       -1.0401  -12.7347  -43.8602 H         1 UNK         0.0600 
    186 H186       -1.5528  -10.3043  -43.6449 H         1 UNK         0.0600 
    187 H187       -0.5474   -9.9485  -45.0457 H         1 UNK         0.0600 
    188 H188       -2.0225  -10.8968  -45.2303 H         1 UNK         0.0600 
    189 H189        0.9556  -12.1220  -45.9772 H         1 UNK         0.3000 
    190 H190       -1.8833  -19.1074  -45.6410 H         1 UNK         0.3000 
    191 H191       -4.3631  -18.9955  -47.0020 H         1 UNK         0.0600 
    192 H192       -4.0574  -18.1988  -44.6782 H         1 UNK         0.0600 
    193 H193       -5.3372  -19.4005  -44.7451 H         1 UNK         0.0600 
    194 H194       -3.7535  -19.8433  -44.1224 H         1 UNK         0.0600 
    195 H195       -2.5749  -21.7991  -45.6450 H         1 UNK         0.3000 
    196 H196       -4.5284  -23.7789  -46.2839 H         1 UNK         0.0600 
    197 H197       -2.6537  -25.3738  -45.9619 H         1 UNK         0.0600 
    198 H198       -2.6730  -24.1701  -44.6812 H         1 UNK         0.0600 
    199 H199       -1.4918  -24.0550  -45.9825 H         1 UNK         0.0600 
    200 H200       -1.8292  -22.3905  -48.1727 H         1 UNK         0.3000 
    201 H201       -2.1526  -24.0403  -50.4893 H         1 UNK         0.0600 
    202 H202       -0.6213  -22.4685  -51.5316 H         1 UNK         0.0600 
    203 H203       -0.0855  -22.7020  -49.8820 H         1 UNK         0.0600 
    204 H204       -0.9449  -21.2304  -50.3278 H         1 UNK         0.0600 
    205 H205       -3.5185  -20.8399  -49.5833 H         1 UNK         0.3000 
    206 H206       -4.9944  -20.3737  -51.9613 H         1 UNK         0.0600 
    207 H207       -4.4859  -18.6703  -50.1327 H         1 UNK         0.0600 
    208 H208       -6.1732  -18.6921  -50.6257 H         1 UNK         0.0600 
    209 H209       -5.6870  -19.4530  -49.1190 H         1 UNK         0.0600 
    210 H210       -5.7838  -22.2333  -49.0368 H         1 UNK         0.3000 
    211 H211       -8.5269  -22.7881  -49.7498 H         1 UNK         0.0600 
    212 H212       -7.7323  -22.7027  -47.3949 H         1 UNK         0.0600 
    213 H213       -8.4146  -24.2793  -47.7593 H         1 UNK         0.0600 
    214 H214       -6.6687  -24.0784  -47.6835 H         1 UNK         0.0600 
    215 H215       -5.5929  -24.0913  -50.9516 H         1 UNK         0.3000 
    216 H216       -6.4264  -26.8247  -51.3730 H         1 UNK         0.0600 
    217 H217       -4.2395  -25.2453  -52.8280 H         1 UNK         0.0600 
    218 H218       -4.3639  -26.9876  -52.6744 H         1 UNK         0.0600 
    219 H219       -4.0084  -26.0133  -51.2573 H         1 UNK         0.0600 
    220 H220       -6.5093  -27.7486  -53.6136 H         1 UNK         0.3000 
    221 H221       -8.7385  -26.9085  -55.0291 H         1 UNK         0.0600 
    222 H222       -6.4164  -28.6877  -55.9414 H         1 UNK         0.0600 
    223 H223       -7.8630  -29.2159  -55.0809 H         1 UNK         0.0600 
    224 H224       -7.9913  -28.5999  -56.7207 H         1 UNK         0.0600 
    225 H225       -9.1128  -25.3032  -56.3585 H         1 UNK         0.3000 
    226 H226       -9.0129  -23.6169  -57.7550 H         1 UNK         0.0600 
    227 H227       -8.1888  -25.3358  -59.3913 H         1 UNK         0.0600 
    228 H228       -7.6011  -23.7239  -59.7579 H         1 UNK         0.0600 
    229 H229       -6.5261  -24.8925  -59.0059 H         1 UNK         0.0600 
    230 H230       -7.3743  -23.5578  -55.1832 H         1 UNK         0.3000 
    231 H231       -6.1414  -22.2023  -53.9710 H         1 UNK         0.0600 
    232 H232       -6.7558  -20.0525  -56.0711 H         1 UNK         0.0600 
    233 H233       -6.1508  -19.7673  -54.4447 H         1 UNK         0.0600 
    234 H234       -7.7529  -20.4498  -54.6708 H         1 UNK         0.0600 
    235 H235       -4.5837  -23.8687  -54.9168 H         1 UNK         0.3000 
    236 H236       -2.4858  -23.0172  -56.6886 H         1 UNK         0.0600 
    237 H237       -2.7252  -25.4195  -54.8023 H         1 UNK         0.0600 
    238 H238       -3.1919  -25.3766  -56.5010 H         1 UNK         0.0600 
    239 H239       -1.5013  -25.2193  -56.0507 H         1 UNK         0.0600 
    240 H240       -2.1488  -20.9490  -55.4705 H         1 UNK         0.3000 
    241 H241       -0.9280  -20.7031  -53.0038 H         1 UNK         0.0600 
    242 H242        0.7771  -21.9386  -55.8602 H         1 UNK         0.3800 
    243 H243        2.3586  -21.8662  -55.1299 H         1 UNK         0.3800 
    244 H244       -0.0885  -18.4519  -53.8538 H         1 UNK         0.0800 
    245 H245       -0.5672  -18.9204  -55.4501 H         1 UNK         0.0800 
    246 H246       -3.5102  -17.7689  -52.0452 H         1 UNK         0.0800 
    247 H247       -2.5325  -19.1962  -51.8214 H         1 UNK         0.0800 
@<TRIPOS>BOND
     1    1    2 1    
     2    1  127 1    
     3    1  128 1    
     4    1  129 1    
     5    2    3 2    
     6    2    4 am   BACKBONE|DICT|INTERRES
     7    4    5 1    
     8    4  130 1    
     9    5    6 1    
    10    5   65 1    
    11    5  131 1    
    12    6    7 1    
    13    6  132 1    
    14    6  133 1    
    15    7    8 1    
    16    8    9 1    
    17    8  134 1    
    18    8  135 1    
    19    9   10 ar   
    20    9   14 ar   
    21   10   11 ar   
    22   10  136 1    
    23   11   12 ar   
    24   11  126 1    
    25   12   13 ar   
    26   12  137 1    
    27   13   14 ar   
    28   13   15 1    
    29   14  138 1    
    30   15   16 1    
    31   15  139 1    
    32   15  140 1    
    33   16   17 1    
    34   17   18 1    
    35   17  141 1    
    36   17  142 1    
    37   18   19 1    
    38   18   67 1    
    39   18  143 1    
    40   19   20 am   BACKBONE|DICT|INTERRES
    41   19  144 1    
    42   20   21 2    
    43   20   22 1    
    44   22   23 1    
    45   22   24 1    
    46   22  145 1    
    47   23  146 1    
    48   23  147 1    
    49   23  148 1    
    50   24   25 am   BACKBONE|DICT|INTERRES
    51   24  149 1    
    52   25   26 2    
    53   25   27 1    
    54   27   28 1    
    55   27   29 1    
    56   27  150 1    
    57   28  151 1    
    58   28  152 1    
    59   28  153 1    
    60   29   30 am   BACKBONE|DICT|INTERRES
    61   29  154 1    
    62   30   31 2    
    63   30   32 1    
    64   32   33 1    
    65   32   34 1    
    66   32  155 1    
    67   33  156 1    
    68   33  157 1    
    69   33  158 1    
    70   34   35 am   BACKBONE|DICT|INTERRES
    71   34  159 1    
    72   35   36 2    
    73   35   37 1    
    74   37   38 1    
    75   37   39 1    
    76   37  160 1    
    77   38  161 1    
    78   38  162 1    
    79   38  163 1    
    80   39   40 am   BACKBONE|DICT|INTERRES
    81   39  164 1    
    82   40   41 2    
    83   40   42 1    
    84   42   43 1    
    85   42   44 1    
    86   42  165 1    
    87   43  166 1    
    88   43  167 1    
    89   43  168 1    
    90   44   45 am   BACKBONE|DICT|INTERRES
    91   44  169 1    
    92   45   46 2    
    93   45   47 1    
    94   47   48 1    
    95   47   49 1    
    96   47  170 1    
    97   48  171 1    
    98   48  172 1    
    99   48  173 1    
   100   49   50 am   BACKBONE|DICT|INTERRES
   101   49  174 1    
   102   50   51 2    
   103   50   52 1    
   104   52   53 1    
   105   52   54 1    
   106   52  175 1    
   107   53  176 1    
   108   53  177 1    
   109   53  178 1    
   110   54   55 am   BACKBONE|DICT|INTERRES
   111   54  179 1    
   112   55   56 2    
   113   55   57 1    
   114   57   58 1    
   115   57   59 1    
   116   57  180 1    
   117   58  181 1    
   118   58  182 1    
   119   58  183 1    
   120   59   60 am   BACKBONE|DICT|INTERRES
   121   59  184 1    
   122   60   61 2    
   123   60   62 1    
   124   62   63 1    
   125   62   64 1    
   126   62  185 1    
   127   63  186 1    
   128   63  187 1    
   129   63  188 1    
   130   64   65 am   BACKBONE|DICT|INTERRES
   131   64  189 1    
   132   65   66 2    
   133   67   68 2    
   134   67   69 am   BACKBONE|DICT|INTERRES
   135   69   70 1    
   136   69  190 1    
   137   70   71 1    
   138   70   72 1    
   139   70  191 1    
   140   71  192 1    
   141   71  193 1    
   142   71  194 1    
   143   72   73 2    
   144   72   74 am   BACKBONE|DICT|INTERRES
   145   74   75 1    
   146   74  195 1    
   147   75   76 1    
   148   75   77 1    
   149   75  196 1    
   150   76  197 1    
   151   76  198 1    
   152   76  199 1    
   153   77   78 2    
   154   77   79 am   BACKBONE|DICT|INTERRES
   155   79   80 1    
   156   79  200 1    
   157   80   81 1    
   158   80   82 1    
   159   80  201 1    
   160   81  202 1    
   161   81  203 1    
   162   81  204 1    
   163   82   83 2    
   164   82   84 am   BACKBONE|DICT|INTERRES
   165   84   85 1    
   166   84  205 1    
   167   85   86 1    
   168   85   87 1    
   169   85  206 1    
   170   86  207 1    
   171   86  208 1    
   172   86  209 1    
   173   87   88 2    
   174   87   89 am   BACKBONE|DICT|INTERRES
   175   89   90 1    
   176   89  210 1    
   177   90   91 1    
   178   90   92 1    
   179   90  211 1    
   180   91  212 1    
   181   91  213 1    
   182   91  214 1    
   183   92   93 2    
   184   92   94 am   BACKBONE|DICT|INTERRES
   185   94   95 1    
   186   94  215 1    
   187   95   96 1    
   188   95   97 1    
   189   95  216 1    
   190   96  217 1    
   191   96  218 1    
   192   96  219 1    
   193   97   98 2    
   194   97   99 am   BACKBONE|DICT|INTERRES
   195   99  100 1    
   196   99  220 1    
   197  100  101 1    
   198  100  102 1    
   199  100  221 1    
   200  101  222 1    
   201  101  223 1    
   202  101  224 1    
   203  102  103 2    
   204  102  104 am   BACKBONE|DICT|INTERRES
   205  104  105 1    
   206  104  225 1    
   207  105  106 1    
   208  105  107 1    
   209  105  226 1    
   210  106  227 1    
   211  106  228 1    
   212  106  229 1    
   213  107  108 2    
   214  107  109 am   BACKBONE|DICT|INTERRES
   215  109  110 1    
   216  109  230 1    
   217  110  111 1    
   218  110  112 1    
   219  110  231 1    
   220  111  232 1    
   221  111  233 1    
   222  111  234 1    
   223  112  113 2    
   224  112  114 am   BACKBONE|DICT|INTERRES
   225  114  115 1    
   226  114  235 1    
   227  115  116 1    
   228  115  117 1    
   229  115  236 1    
   230  116  237 1    
   231  116  238 1    
   232  116  239 1    
   233  117  118 2    
   234  117  119 am   BACKBONE|DICT|INTERRES
   235  119  120 1    
   236  119  240 1    
   237  120  121 1    
   238  120  124 1    
   239  120  241 1    
   240  121  122 am   BACKBONE|DICT|INTERRES
   241  121  123 2    
   242  122  242 1    
   243  122  243 1    
   244  124  125 1    
   245  124  244 1    
   246  124  245 1    
   247  125  126 1    
   248  126  246 1    
   249  126  247 1    
@<TRIPOS>SUBSTRUCTURE
     1 UNK         1 GROUP             0       ****    0 ROOT    
