@<TRIPOS>MOLECULE
3R540
247   249    1
SMALL
USER_CHARGES


@<TRIPOS>ATOM
      1 CA          6.1195   -8.9702  -50.0422 C.3       0 UNK        -0.1800 
      2 C           5.9194  -10.4112  -49.5938 C.2       0 UNK         0.5000 
      3 O           6.6223  -11.3037  -50.0691 O.2       0 UNK        -0.5000 
      4 N           4.9601  -10.6417  -48.6886 N.am      1 UNK        -0.5000 
      5 CA          4.6711  -11.9477  -48.0876 C.3       1 UNK         0.1400 
      6 C6          3.2620  -11.9646  -47.4395 C.3       23 UNK        -0.0398 
      7 S7          2.4523  -13.5933  -47.5611 S.3       23 UNK        -0.2404 
      8 C8          1.7784  -13.4968  -49.2479 C.3       23 UNK        -0.0205 
      9 C9          0.8658  -14.6716  -49.5578 C.ar      23 UNK        -0.0193 
     10 C10        -0.5173  -14.5345  -49.4239 C.ar      23 UNK        -0.1150 
     11 C11        -1.3714  -15.5943  -49.7382 C.ar      23 UNK        -0.0193 
     12 C12        -0.8317  -16.8010  -50.1933 C.ar      23 UNK        -0.1150 
     13 C13         0.5528  -16.9529  -50.3287 C.ar      23 UNK        -0.0193 
     14 C14         1.3961  -15.8848  -50.0053 C.ar      23 UNK        -0.1150 
     15 C15         1.1420  -18.2549  -50.8540 C.3       23 UNK        -0.0205 
     16 S16         1.4735  -19.4516  -49.5214 S.3       23 UNK        -0.2404 
     17 C17        -0.2049  -20.0879  -49.2160 C.3       23 UNK        -0.0398 
     18 CA         -0.2178  -21.4103  -48.4136 C.3       11 UNK         0.1400 
     19 N           0.1627  -21.2295  -47.0072 N.am      11 UNK        -0.5000 
     20 C           0.3070  -22.2238  -46.1179 C.2       10 UNK         0.5000 
     21 O           0.2021  -23.4156  -46.4037 O.2       10 UNK        -0.5000 
     22 CA          0.5498  -21.8308  -44.6492 C.3       10 UNK         0.1400 
     23 CB          2.0273  -21.4929  -44.4030 C.3       10 UNK        -0.1800 
     24 N          -0.3053  -20.7262  -44.2111 N.am      10 UNK        -0.5000 
     25 C          -1.6441  -20.7877  -44.1503 C.2       9 UNK         0.5000 
     26 O          -2.2923  -21.7999  -44.4120 O.2       9 UNK        -0.5000 
     27 CA         -2.3927  -19.4939  -43.7837 C.3       9 UNK         0.1400 
     28 CB         -2.4115  -19.2807  -42.2630 C.3       9 UNK        -0.1800 
     29 N          -1.8276  -18.3165  -44.4393 N.am      9 UNK        -0.5000 
     30 C          -1.7969  -18.1220  -45.7653 C.2       8 UNK         0.5000 
     31 O          -2.3108  -18.8862  -46.5839 O.2       8 UNK        -0.5000 
     32 CA         -1.0031  -16.8973  -46.2555 C.3       8 UNK         0.1400 
     33 CB         -1.8291  -15.6100  -46.1156 C.3       8 UNK        -0.1800 
     34 N           0.2703  -16.7470  -45.5495 N.am      8 UNK        -0.5000 
     35 C           1.2743  -17.6328  -45.6169 C.2       7 UNK         0.5000 
     36 O           1.2437  -18.6435  -46.3147 O.2       7 UNK        -0.5000 
     37 CA          2.4854  -17.3915  -44.7009 C.3       7 UNK         0.1400 
     38 CB          3.5333  -16.5082  -45.3853 C.3       7 UNK        -0.1800 
     39 N           2.0970  -16.8173  -43.4107 N.am      7 UNK        -0.5000 
     40 C           1.4705  -17.5297  -42.4618 C.2       6 UNK         0.5000 
     41 O           1.1902  -18.7222  -42.5847 O.2       6 UNK        -0.5000 
     42 CA          1.0474  -16.7917  -41.1804 C.3       6 UNK         0.1400 
     43 CB          2.2237  -16.6691  -40.2021 C.3       6 UNK        -0.1800 
     44 N           0.4841  -15.4666  -41.4286 N.am      6 UNK        -0.5000 
     45 C          -0.6329  -15.2129  -42.1189 C.2       5 UNK         0.5000 
     46 O          -1.2980  -16.0895  -42.6694 O.2       5 UNK        -0.5000 
     47 CA         -1.0835  -13.7420  -42.2372 C.3       5 UNK         0.1400 
     48 CB         -1.9633  -13.3353  -41.0403 C.3       5 UNK        -0.1800 
     49 N           0.0066  -12.7805  -42.4591 N.am      5 UNK        -0.5000 
     50 C           1.0089  -12.4352  -41.6394 C.2       4 UNK         0.5000 
     51 O           1.1567  -12.8716  -40.4957 O.2       4 UNK        -0.5000 
     52 CA          2.0642  -11.4811  -42.2261 C.3       4 UNK         0.1400 
     53 CB          2.1194  -10.1663  -41.4326 C.3       4 UNK        -0.1800 
     54 N           3.3962  -12.0891  -42.2482 N.am      4 UNK        -0.5000 
     55 C           3.7168  -13.2185  -42.8922 C.2       3 UNK         0.5000 
     56 O           2.9148  -13.9016  -43.5341 O.2       3 UNK        -0.5000 
     57 CA          5.1806  -13.6629  -42.8222 C.3       3 UNK         0.1400 
     58 CB          5.3446  -14.9057  -41.9297 C.3       3 UNK        -0.1800 
     59 N           5.6128  -13.9475  -44.1839 N.am      3 UNK        -0.5000 
     60 C           6.8800  -14.0046  -44.6062 C.2       2 UNK         0.5000 
     61 O           7.8556  -13.8822  -43.8643 O.2       2 UNK        -0.5000 
     62 CA          7.1007  -14.2114  -46.1181 C.3       2 UNK         0.1400 
     63 CB          7.2751  -15.7026  -46.4445 C.3       2 UNK        -0.1800 
     64 N           6.0367  -13.6533  -46.9603 N.am      2 UNK        -0.5000 
     65 C           5.7757  -12.3445  -47.0838 C.2       1 UNK         0.5000 
     66 O           6.3624  -11.4679  -46.4432 O.2       1 UNK        -0.5000 
     67 C          -1.5930  -22.0937  -48.5492 C.2       11 UNK         0.5000 
     68 O          -1.7142  -23.0617  -49.3008 O.2       11 UNK        -0.5000 
     69 N          -2.5912  -21.6051  -47.7981 N.am      12 UNK        -0.5000 
     70 CA         -3.9401  -22.1709  -47.7566 C.3       12 UNK         0.1400 
     71 CB         -4.8579  -21.2640  -46.9245 C.3       12 UNK        -0.1800 
     72 C          -3.9655  -23.6171  -47.2296 C.2       12 UNK         0.5000 
     73 O          -4.6466  -24.4594  -47.8149 O.2       12 UNK        -0.5000 
     74 N          -3.1979  -23.8870  -46.1646 N.am      13 UNK        -0.5000 
     75 CA         -3.0274  -25.2141  -45.5743 C.3       13 UNK         0.1400 
     76 CB         -2.2629  -25.0991  -44.2471 C.3       13 UNK        -0.1800 
     77 C          -2.3299  -26.2024  -46.5249 C.2       13 UNK         0.5000 
     78 O          -2.8042  -27.3285  -46.6735 O.2       13 UNK        -0.5000 
     79 N          -1.2486  -25.7584  -47.1825 N.am      14 UNK        -0.5000 
     80 CA         -0.4948  -26.5338  -48.1724 C.3       14 UNK         0.1400 
     81 CB          0.7776  -25.7687  -48.5662 C.3       14 UNK        -0.1800 
     82 C          -1.3245  -26.8826  -49.4215 C.2       14 UNK         0.5000 
     83 O          -1.1976  -27.9882  -49.9488 O.2       14 UNK        -0.5000 
     84 N          -2.1849  -25.9486  -49.8462 N.am      15 UNK        -0.5000 
     85 CA         -3.1490  -26.1311  -50.9309 C.3       15 UNK         0.1400 
     86 CB         -3.5818  -24.7477  -51.4370 C.3       15 UNK        -0.1800 
     87 C          -4.3875  -26.9554  -50.5243 C.2       15 UNK         0.5000 
     88 O          -5.1896  -27.2846  -51.3965 O.2       15 UNK        -0.5000 
     89 N          -4.5521  -27.2407  -49.2234 N.am      16 UNK        -0.5000 
     90 CA         -5.6997  -27.9094  -48.5991 C.3       16 UNK         0.1400 
     91 CB         -5.7686  -29.3903  -49.0262 C.3       16 UNK        -0.1800 
     92 C          -7.0249  -27.1477  -48.8235 C.2       16 UNK         0.5000 
     93 O          -8.0669  -27.7647  -49.0523 O.2       16 UNK        -0.5000 
     94 N          -6.9428  -25.8098  -48.7671 N.am      17 UNK        -0.5000 
     95 CA         -8.0140  -24.8300  -48.9758 C.3       17 UNK         0.1400 
     96 CB         -9.0778  -24.9389  -47.8636 C.3       17 UNK        -0.1800 
     97 C          -8.6260  -24.8430  -50.3957 C.2       17 UNK         0.5000 
     98 O          -9.7601  -24.3932  -50.5738 O.2       17 UNK        -0.5000 
     99 N          -7.8709  -25.3371  -51.3873 N.am      18 UNK        -0.5000 
    100 CA        -8.2386  -25.3152  -52.8040 C.3       18 UNK         0.1400 
    101 CB        -7.3176  -26.2765  -53.5717 C.3       18 UNK        -0.1800 
    102 C         -8.1620  -23.8992  -53.4097 C.2       18 UNK         0.5000 
    103 O         -7.5614  -22.9952  -52.8224 O.2       18 UNK        -0.5000 
    104 N         -8.7577  -23.7416  -54.5981 N.am      19 UNK        -0.5000 
    105 CA        -8.7008  -22.5209  -55.4026 C.3       19 UNK         0.1400 
    106 CB        -9.6716  -22.6608  -56.5856 C.3       19 UNK        -0.1800 
    107 C         -7.2751  -22.2208  -55.9081 C.2       19 UNK         0.5000 
    108 O         -6.4917  -23.1478  -56.1282 O.2       19 UNK        -0.5000 
    109 N         -6.9854  -20.9259  -56.0989 N.am      20 UNK        -0.5000 
    110 CA        -5.7122  -20.3614  -56.5697 C.3       20 UNK         0.1400 
    111 CB        -5.3884  -20.8317  -58.0040 C.3       20 UNK        -0.1800 
    112 C         -4.5322  -20.5609  -55.5911 C.2       20 UNK         0.5000 
    113 O         -3.3739  -20.5098  -56.0080 O.2       20 UNK        -0.5000 
    114 N         -4.8389  -20.7443  -54.2982 N.am      21 UNK        -0.5000 
    115 CA        -3.8608  -20.8439  -53.2092 C.3       21 UNK         0.1400 
    116 CB        -4.5521  -21.4494  -51.9784 C.3       21 UNK        -0.1800 
    117 C         -3.2253  -19.4895  -52.8352 C.2       21 UNK         0.5000 
    118 O         -2.1947  -19.4695  -52.1645 O.2       21 UNK        -0.5000 
    119 N         -3.8613  -18.3915  -53.2527 N.am      22 UNK        -0.5000 
    120 CA        -3.4776  -17.0047  -52.9872 C.3       22 UNK         0.1400 
    121 C         -3.6726  -16.1643  -54.2770 C.2       22 UNK         0.5000 
    122 N         -2.7910  -15.2128  -54.5499 N.am      22 UNK        -0.7600 
    123 O         -4.6288  -16.3584  -55.0262 O.2       22 UNK        -0.5000 
    124 C124       -4.3007  -16.4551  -51.7952 C.3       23 UNK        -0.0398 
    125 S125       -3.6701  -14.8856  -51.1093 S.3       23 UNK        -0.2404 
    126 C126       -2.8722  -15.4272  -49.5662 C.3       23 UNK        -0.0205 
    127 H127        5.4227   -8.2914  -49.5498 H         1 UNK         0.0600 
    128 H128        7.1332   -8.6430  -49.8110 H         1 UNK         0.0600 
    129 H129        5.9706   -8.8878  -51.1188 H         1 UNK         0.0600 
    130 H130        4.4455   -9.8597  -48.3099 H         1 UNK         0.3000 
    131 H131        4.6894  -12.6732  -48.9039 H         1 UNK         0.0600 
    132 H132        3.2954  -11.6628  -46.3906 H         1 UNK         0.0800 
    133 H133        2.6070  -11.2386  -47.9235 H         1 UNK         0.0800 
    134 H134        1.2301  -12.5613  -49.3699 H         1 UNK         0.0800 
    135 H135        2.5975  -13.4676  -49.9677 H         1 UNK         0.0800 
    136 H136       -0.9310  -13.5981  -49.0764 H         1 UNK         0.1150 
    137 H137       -1.4896  -17.6212  -50.4415 H         1 UNK         0.1150 
    138 H138        2.4664  -15.9940  -50.1107 H         1 UNK         0.1150 
    139 H139        0.4784  -18.6967  -51.5990 H         1 UNK         0.0800 
    140 H140        2.0786  -18.0492  -51.3743 H         1 UNK         0.0800 
    141 H141       -0.6753  -20.2357  -50.1890 H         1 UNK         0.0800 
    142 H142       -0.7860  -19.3192  -48.7066 H         1 UNK         0.0800 
    143 H143        0.5143  -22.0862  -48.8607 H         1 UNK         0.0600 
    144 H144        0.3396  -20.2739  -46.7069 H         1 UNK         0.3000 
    145 H145        0.3018  -22.6967  -44.0321 H         1 UNK         0.0600 
    146 H146        2.2079  -21.2459  -43.3568 H         1 UNK         0.0600 
    147 H147        2.6648  -22.3421  -44.6516 H         1 UNK         0.0600 
    148 H148        2.3579  -20.6510  -45.0094 H         1 UNK         0.0600 
    149 H149        0.1609  -19.8714  -43.9268 H         1 UNK         0.3000 
    150 H150       -3.4248  -19.5999  -44.1241 H         1 UNK         0.0600 
    151 H151       -2.8542  -20.1378  -41.7542 H         1 UNK         0.0600 
    152 H152       -3.0004  -18.4030  -41.9961 H         1 UNK         0.0600 
    153 H153       -1.4074  -19.1425  -41.8618 H         1 UNK         0.0600 
    154 H154       -1.4292  -17.6054  -43.8321 H         1 UNK         0.3000 
    155 H155       -0.7804  -17.0502  -47.3126 H         1 UNK         0.0600 
    156 H156       -1.3077  -14.7582  -46.5520 H         1 UNK         0.0600 
    157 H157       -2.0441  -15.3735  -45.0746 H         1 UNK         0.0600 
    158 H158       -2.7871  -15.7067  -46.6262 H         1 UNK         0.0600 
    159 H159        0.3626  -15.9586  -44.9273 H         1 UNK         0.3000 
    160 H160        2.9535  -18.3602  -44.5152 H         1 UNK         0.0600 
    161 H161        3.1543  -15.5042  -45.5614 H         1 UNK         0.0600 
    162 H162        3.8258  -16.9233  -46.3507 H         1 UNK         0.0600 
    163 H163        4.4319  -16.4319  -44.7747 H         1 UNK         0.0600 
    164 H164        2.2784  -15.8284  -43.2707 H         1 UNK         0.3000 
    165 H165        0.2720  -17.3927  -40.7008 H         1 UNK         0.0600 
    166 H166        2.9995  -16.0111  -40.5907 H         1 UNK         0.0600 
    167 H167        1.8965  -16.2677  -39.2428 H         1 UNK         0.0600 
    168 H168        2.6790  -17.6415  -40.0101 H         1 UNK         0.0600 
    169 H169        0.9509  -14.6737  -40.9974 H         1 UNK         0.3000 
    170 H170       -1.7075  -13.6841  -43.1303 H         1 UNK         0.0600 
    171 H171       -2.8314  -13.9906  -40.9580 H         1 UNK         0.0600 
    172 H172       -1.4230  -13.3944  -40.0952 H         1 UNK         0.0600 
    173 H173       -2.3347  -12.3167  -41.1519 H         1 UNK         0.0600 
    174 H174        0.0262  -12.3903  -43.3911 H         1 UNK         0.3000 
    175 H175        1.7938  -11.2430  -43.2571 H         1 UNK         0.0600 
    176 H176        2.8179   -9.4613  -41.8837 H         1 UNK         0.0600 
    177 H177        1.1414   -9.6838  -41.4091 H         1 UNK         0.0600 
    178 H178        2.4286  -10.3316  -40.3996 H         1 UNK         0.0600 
    179 H179        4.1108  -11.6076  -41.7223 H         1 UNK         0.3000 
    180 H180        5.7849  -12.8469  -42.4204 H         1 UNK         0.0600 
    181 H181        4.7713  -15.7524  -42.3090 H         1 UNK         0.0600 
    182 H182        5.0053  -14.7007  -40.9139 H         1 UNK         0.0600 
    183 H183        6.3879  -15.2140  -41.8637 H         1 UNK         0.0600 
    184 H184        4.8616  -14.0388  -44.8548 H         1 UNK         0.3000 
    185 H185        8.0304  -13.7011  -46.3792 H         1 UNK         0.0600 
    186 H186        7.5441  -15.8480  -47.4909 H         1 UNK         0.0600 
    187 H187        8.0704  -16.1441  -45.8424 H         1 UNK         0.0600 
    188 H188        6.3650  -16.2695  -46.2508 H         1 UNK         0.0600 
    189 H189        5.5043  -14.3134  -47.5088 H         1 UNK         0.3000 
    190 H190       -2.4195  -20.7871  -47.2207 H         1 UNK         0.3000 
    191 H191       -4.3225  -22.1887  -48.7789 H         1 UNK         0.0600 
    192 H192       -4.8972  -20.2569  -47.3400 H         1 UNK         0.0600 
    193 H193       -5.8776  -21.6506  -46.9078 H         1 UNK         0.0600 
    194 H194       -4.5190  -21.1851  -45.8914 H         1 UNK         0.0600 
    195 H195       -2.7091  -23.1215  -45.7073 H         1 UNK         0.3000 
    196 H196       -4.0218  -25.6097  -45.3570 H         1 UNK         0.0600 
    197 H197       -2.1389  -26.0773  -43.7810 H         1 UNK         0.0600 
    198 H198       -2.7979  -24.4665  -43.5386 H         1 UNK         0.0600 
    199 H199       -1.2692  -24.6740  -44.3896 H         1 UNK         0.0600 
    200 H200       -0.8947  -24.8268  -46.9759 H         1 UNK         0.3000 
    201 H201       -0.1955  -27.4725  -47.7018 H         1 UNK         0.0600 
    202 H202        1.4192  -25.6004  -47.7012 H         1 UNK         0.0600 
    203 H203        0.5430  -24.7970  -49.0024 H         1 UNK         0.0600 
    204 H204        1.3604  -26.3275  -49.2994 H         1 UNK         0.0600 
    205 H205       -2.1782  -25.0383  -49.3960 H         1 UNK         0.3000 
    206 H206       -2.6590  -26.6580  -51.7521 H         1 UNK         0.0600 
    207 H207       -4.0893  -24.1808  -50.6556 H         1 UNK         0.0600 
    208 H208       -4.2670  -24.8322  -52.2815 H         1 UNK         0.0600 
    209 H209       -2.7252  -24.1626  -51.7723 H         1 UNK         0.0600 
    210 H210       -3.8417  -26.9191  -48.5779 H         1 UNK         0.3000 
    211 H211       -5.5161  -27.8854  -47.5241 H         1 UNK         0.0600 
    212 H212       -6.0087  -29.4974  -50.0844 H         1 UNK         0.0600 
    213 H213       -6.5340  -29.9242  -48.4620 H         1 UNK         0.0600 
    214 H214       -4.8204  -29.8961  -48.8441 H         1 UNK         0.0600 
    215 H215       -6.0350  -25.4053  -48.5402 H         1 UNK         0.3000 
    216 H216       -7.5383  -23.8537  -48.8731 H         1 UNK         0.0600 
    217 H217       -8.6191  -24.9064  -46.8753 H         1 UNK         0.0600 
    218 H218       -9.6492  -25.8644  -47.9389 H         1 UNK         0.0600 
    219 H219       -9.7873  -24.1124  -47.9163 H         1 UNK         0.0600 
    220 H220       -6.9563  -25.7060  -51.1656 H         1 UNK         0.3000 
    221 H221       -9.2666  -25.6717  -52.8965 H         1 UNK         0.0600 
    222 H222       -6.2785  -25.9466  -53.5398 H         1 UNK         0.0600 
    223 H223       -7.3638  -27.2836  -53.1566 H         1 UNK         0.0600 
    224 H224       -7.6043  -26.3476  -54.6215 H         1 UNK         0.0600 
    225 H225       -9.1996  -24.5391  -55.0311 H         1 UNK         0.3000 
    226 H226       -9.0317  -21.6899  -54.7761 H         1 UNK         0.0600 
    227 H227      -10.6923  -22.8297  -56.2416 H         1 UNK         0.0600 
    228 H228       -9.6813  -21.7557  -57.1943 H         1 UNK         0.0600 
    229 H229       -9.3944  -23.4906  -57.2372 H         1 UNK         0.0600 
    230 H230       -7.7042  -20.2446  -55.8955 H         1 UNK         0.3000 
    231 H231       -5.8686  -19.2826  -56.6159 H         1 UNK         0.0600 
    232 H232       -6.2352  -20.6738  -58.6719 H         1 UNK         0.0600 
    233 H233       -5.1270  -21.8895  -58.0365 H         1 UNK         0.0600 
    234 H234       -4.5451  -20.2766  -58.4165 H         1 UNK         0.0600 
    235 H235       -5.8126  -20.8053  -54.0373 H         1 UNK         0.3000 
    236 H236       -3.0582  -21.5160  -53.5199 H         1 UNK         0.0600 
    237 H237       -3.8378  -21.6094  -51.1695 H         1 UNK         0.0600 
    238 H238       -5.3425  -20.8013  -51.5979 H         1 UNK         0.0600 
    239 H239       -4.9993  -22.4139  -52.2147 H         1 UNK         0.0600 
    240 H240       -4.6713  -18.4987  -53.8465 H         1 UNK         0.3000 
    241 H241       -2.4174  -16.9766  -52.7282 H         1 UNK         0.0600 
    242 H242       -2.0176  -15.0196  -53.9324 H         1 UNK         0.3800 
    243 H243       -2.9120  -14.6556  -55.3813 H         1 UNK         0.3800 
    244 H244       -5.3416  -16.3063  -52.0877 H         1 UNK         0.0800 
    245 H245       -4.3318  -17.1985  -50.9982 H         1 UNK         0.0800 
    246 H246       -3.0709  -14.6716  -48.8051 H         1 UNK         0.0800 
    247 H247       -3.3159  -16.3493  -49.1889 H         1 UNK         0.0800 
@<TRIPOS>BOND
     1    1    2 1    
     2    1  127 1    
     3    1  128 1    
     4    1  129 1    
     5    2    3 2    
     6    2    4 am   BACKBONE|DICT|INTERRES
     7    4    5 1    
     8    4  130 1    
     9    5    6 1    
    10    5   65 1    
    11    5  131 1    
    12    6    7 1    
    13    6  132 1    
    14    6  133 1    
    15    7    8 1    
    16    8    9 1    
    17    8  134 1    
    18    8  135 1    
    19    9   10 ar   
    20    9   14 ar   
    21   10   11 ar   
    22   10  136 1    
    23   11   12 ar   
    24   11  126 1    
    25   12   13 ar   
    26   12  137 1    
    27   13   14 ar   
    28   13   15 1    
    29   14  138 1    
    30   15   16 1    
    31   15  139 1    
    32   15  140 1    
    33   16   17 1    
    34   17   18 1    
    35   17  141 1    
    36   17  142 1    
    37   18   19 1    
    38   18   67 1    
    39   18  143 1    
    40   19   20 am   BACKBONE|DICT|INTERRES
    41   19  144 1    
    42   20   21 2    
    43   20   22 1    
    44   22   23 1    
    45   22   24 1    
    46   22  145 1    
    47   23  146 1    
    48   23  147 1    
    49   23  148 1    
    50   24   25 am   BACKBONE|DICT|INTERRES
    51   24  149 1    
    52   25   26 2    
    53   25   27 1    
    54   27   28 1    
    55   27   29 1    
    56   27  150 1    
    57   28  151 1    
    58   28  152 1    
    59   28  153 1    
    60   29   30 am   BACKBONE|DICT|INTERRES
    61   29  154 1    
    62   30   31 2    
    63   30   32 1    
    64   32   33 1    
    65   32   34 1    
    66   32  155 1    
    67   33  156 1    
    68   33  157 1    
    69   33  158 1    
    70   34   35 am   BACKBONE|DICT|INTERRES
    71   34  159 1    
    72   35   36 2    
    73   35   37 1    
    74   37   38 1    
    75   37   39 1    
    76   37  160 1    
    77   38  161 1    
    78   38  162 1    
    79   38  163 1    
    80   39   40 am   BACKBONE|DICT|INTERRES
    81   39  164 1    
    82   40   41 2    
    83   40   42 1    
    84   42   43 1    
    85   42   44 1    
    86   42  165 1    
    87   43  166 1    
    88   43  167 1    
    89   43  168 1    
    90   44   45 am   BACKBONE|DICT|INTERRES
    91   44  169 1    
    92   45   46 2    
    93   45   47 1    
    94   47   48 1    
    95   47   49 1    
    96   47  170 1    
    97   48  171 1    
    98   48  172 1    
    99   48  173 1    
   100   49   50 am   BACKBONE|DICT|INTERRES
   101   49  174 1    
   102   50   51 2    
   103   50   52 1    
   104   52   53 1    
   105   52   54 1    
   106   52  175 1    
   107   53  176 1    
   108   53  177 1    
   109   53  178 1    
   110   54   55 am   BACKBONE|DICT|INTERRES
   111   54  179 1    
   112   55   56 2    
   113   55   57 1    
   114   57   58 1    
   115   57   59 1    
   116   57  180 1    
   117   58  181 1    
   118   58  182 1    
   119   58  183 1    
   120   59   60 am   BACKBONE|DICT|INTERRES
   121   59  184 1    
   122   60   61 2    
   123   60   62 1    
   124   62   63 1    
   125   62   64 1    
   126   62  185 1    
   127   63  186 1    
   128   63  187 1    
   129   63  188 1    
   130   64   65 am   BACKBONE|DICT|INTERRES
   131   64  189 1    
   132   65   66 2    
   133   67   68 2    
   134   67   69 am   BACKBONE|DICT|INTERRES
   135   69   70 1    
   136   69  190 1    
   137   70   71 1    
   138   70   72 1    
   139   70  191 1    
   140   71  192 1    
   141   71  193 1    
   142   71  194 1    
   143   72   73 2    
   144   72   74 am   BACKBONE|DICT|INTERRES
   145   74   75 1    
   146   74  195 1    
   147   75   76 1    
   148   75   77 1    
   149   75  196 1    
   150   76  197 1    
   151   76  198 1    
   152   76  199 1    
   153   77   78 2    
   154   77   79 am   BACKBONE|DICT|INTERRES
   155   79   80 1    
   156   79  200 1    
   157   80   81 1    
   158   80   82 1    
   159   80  201 1    
   160   81  202 1    
   161   81  203 1    
   162   81  204 1    
   163   82   83 2    
   164   82   84 am   BACKBONE|DICT|INTERRES
   165   84   85 1    
   166   84  205 1    
   167   85   86 1    
   168   85   87 1    
   169   85  206 1    
   170   86  207 1    
   171   86  208 1    
   172   86  209 1    
   173   87   88 2    
   174   87   89 am   BACKBONE|DICT|INTERRES
   175   89   90 1    
   176   89  210 1    
   177   90   91 1    
   178   90   92 1    
   179   90  211 1    
   180   91  212 1    
   181   91  213 1    
   182   91  214 1    
   183   92   93 2    
   184   92   94 am   BACKBONE|DICT|INTERRES
   185   94   95 1    
   186   94  215 1    
   187   95   96 1    
   188   95   97 1    
   189   95  216 1    
   190   96  217 1    
   191   96  218 1    
   192   96  219 1    
   193   97   98 2    
   194   97   99 am   BACKBONE|DICT|INTERRES
   195   99  100 1    
   196   99  220 1    
   197  100  101 1    
   198  100  102 1    
   199  100  221 1    
   200  101  222 1    
   201  101  223 1    
   202  101  224 1    
   203  102  103 2    
   204  102  104 am   BACKBONE|DICT|INTERRES
   205  104  105 1    
   206  104  225 1    
   207  105  106 1    
   208  105  107 1    
   209  105  226 1    
   210  106  227 1    
   211  106  228 1    
   212  106  229 1    
   213  107  108 2    
   214  107  109 am   BACKBONE|DICT|INTERRES
   215  109  110 1    
   216  109  230 1    
   217  110  111 1    
   218  110  112 1    
   219  110  231 1    
   220  111  232 1    
   221  111  233 1    
   222  111  234 1    
   223  112  113 2    
   224  112  114 am   BACKBONE|DICT|INTERRES
   225  114  115 1    
   226  114  235 1    
   227  115  116 1    
   228  115  117 1    
   229  115  236 1    
   230  116  237 1    
   231  116  238 1    
   232  116  239 1    
   233  117  118 2    
   234  117  119 am   BACKBONE|DICT|INTERRES
   235  119  120 1    
   236  119  240 1    
   237  120  121 1    
   238  120  124 1    
   239  120  241 1    
   240  121  122 am   BACKBONE|DICT|INTERRES
   241  121  123 2    
   242  122  242 1    
   243  122  243 1    
   244  124  125 1    
   245  124  244 1    
   246  124  245 1    
   247  125  126 1    
   248  126  246 1    
   249  126  247 1    
@<TRIPOS>SUBSTRUCTURE
     1 UNK         1 GROUP             0       ****    0 ROOT    
