@<TRIPOS>MOLECULE
3R540
247   249    1
SMALL
USER_CHARGES


@<TRIPOS>ATOM
      1 CA          3.1492  -16.1601  -51.2419 C.3       0 UNK        -0.1800 
      2 C           3.8708  -15.3843  -50.1494 C.2       0 UNK         0.5000 
      3 O           5.0937  -15.2472  -50.1972 O.2       0 UNK        -0.5000 
      4 N           3.1189  -14.8822  -49.1645 N.am      1 UNK        -0.5000 
      5 CA          3.6134  -14.0449  -48.0698 C.3       1 UNK         0.1400 
      6 C6          2.6163  -14.0124  -46.8830 C.3       23 UNK        -0.0398 
      7 S7          0.9527  -13.3775  -47.3158 S.3       23 UNK        -0.2404 
      8 C8         -0.1092  -14.8000  -46.9261 C.3       23 UNK        -0.0205 
      9 C9          0.0971  -15.9479  -47.9016 C.ar      23 UNK        -0.0193 
     10 C10        -0.4957  -15.9094  -49.1662 C.ar      23 UNK        -0.1150 
     11 C11        -0.3152  -16.9636  -50.0659 C.ar      23 UNK        -0.0193 
     12 C12         0.4617  -18.0643  -49.6927 C.ar      23 UNK        -0.1150 
     13 C13         1.0652  -18.1085  -48.4334 C.ar      23 UNK        -0.0193 
     14 C14         0.8784  -17.0494  -47.5422 C.ar      23 UNK        -0.1150 
     15 C15         1.9250  -19.2933  -48.0323 C.3       23 UNK        -0.0205 
     16 S16         0.9183  -20.5802  -47.2340 S.3       23 UNK        -0.2404 
     17 C17         0.9524  -21.9220  -48.4706 C.3       23 UNK        -0.0398 
     18 CA          0.7912  -23.3393  -47.8664 C.3       11 UNK         0.1400 
     19 N           1.7372  -23.6138  -46.7783 N.am      11 UNK        -0.5000 
     20 C           2.0579  -24.8433  -46.3527 C.2       10 UNK         0.5000 
     21 O           1.5717  -25.8741  -46.8174 O.2       10 UNK        -0.5000 
     22 CA          3.0672  -24.9344  -45.1950 C.3       10 UNK         0.1400 
     23 CB          4.4733  -24.5193  -45.6557 C.3       10 UNK        -0.1800 
     24 N           2.6779  -24.1342  -44.0339 N.am      10 UNK        -0.5000 
     25 C           1.5859  -24.3536  -43.2881 C.2       9 UNK         0.5000 
     26 O           0.7642  -25.2378  -43.5193 O.2       9 UNK        -0.5000 
     27 CA          1.3510  -23.4046  -42.0986 C.3       9 UNK         0.1400 
     28 CB          2.1019  -23.9025  -40.8547 C.3       9 UNK        -0.1800 
     29 N           1.7262  -22.0150  -42.3699 N.am      9 UNK        -0.5000 
     30 C           1.1871  -21.2636  -43.3374 C.2       8 UNK         0.5000 
     31 O           0.3553  -21.6862  -44.1446 O.2       8 UNK        -0.5000 
     32 CA          1.6929  -19.8135  -43.4333 C.3       8 UNK         0.1400 
     33 CB          3.0375  -19.7554  -44.1761 C.3       8 UNK        -0.1800 
     34 N           0.7216  -18.9766  -44.1339 N.am      8 UNK        -0.5000 
     35 C          -0.3902  -18.4900  -43.5713 C.2       7 UNK         0.5000 
     36 O          -0.6611  -18.6044  -42.3725 O.2       7 UNK        -0.5000 
     37 CA         -1.3785  -17.7935  -44.5253 C.3       7 UNK         0.1400 
     38 CB         -2.2629  -18.8332  -45.2299 C.3       7 UNK        -0.1800 
     39 N          -2.2394  -16.8303  -43.8382 N.am      7 UNK        -0.5000 
     40 C          -1.8244  -15.6796  -43.2949 C.2       6 UNK         0.5000 
     41 O          -0.6659  -15.2591  -43.3616 O.2       6 UNK        -0.5000 
     42 CA         -2.8893  -14.8688  -42.5439 C.3       6 UNK         0.1400 
     43 CB         -3.1748  -15.4743  -41.1576 C.3       6 UNK        -0.1800 
     44 N          -2.4271  -13.4936  -42.3916 N.am      6 UNK        -0.5000 
     45 C          -3.2127  -12.4159  -42.2908 C.2       5 UNK         0.5000 
     46 O          -4.4435  -12.4706  -42.2956 O.2       5 UNK        -0.5000 
     47 CA         -2.5239  -11.0426  -42.1477 C.3       5 UNK         0.1400 
     48 CB         -2.6230  -10.5443  -40.6970 C.3       5 UNK        -0.1800 
     49 N          -1.1150  -11.0286  -42.5524 N.am      5 UNK        -0.5000 
     50 C          -0.6831  -11.0922  -43.8178 C.2       4 UNK         0.5000 
     51 O          -1.4313  -11.2170  -44.7907 O.2       4 UNK        -0.5000 
     52 CA          0.8446  -11.0258  -44.0103 C.3       4 UNK         0.1400 
     53 CB          1.4886  -12.3855  -43.6958 C.3       4 UNK        -0.1800 
     54 N           1.2044  -10.6266  -45.3715 N.am      4 UNK        -0.5000 
     55 C           1.0916   -9.3816  -45.8527 C.2       3 UNK         0.5000 
     56 O           0.7599   -8.4141  -45.1635 O.2       3 UNK        -0.5000 
     57 CA          1.4131   -9.2007  -47.3531 C.3       3 UNK         0.1400 
     58 CB          1.3968   -7.7244  -47.8026 C.3       3 UNK        -0.1800 
     59 N           2.6673   -9.8475  -47.7584 N.am      3 UNK        -0.5000 
     60 C           3.9013   -9.6144  -47.2859 C.2       2 UNK         0.5000 
     61 O           4.1548   -8.7917  -46.4044 O.2       2 UNK        -0.5000 
     62 CA          5.0347  -10.4727  -47.8940 C.3       2 UNK         0.1400 
     63 CB          6.4102  -10.1752  -47.2693 C.3       2 UNK        -0.1800 
     64 N           4.7522  -11.9021  -47.7466 N.am      2 UNK        -0.5000 
     65 C           3.9464  -12.6137  -48.5444 C.2       1 UNK         0.5000 
     66 O           3.4151  -12.1475  -49.5565 O.2       1 UNK        -0.5000 
     67 C          -0.6675  -23.6533  -47.4767 C.2       11 UNK         0.5000 
     68 O          -1.4551  -24.0139  -48.3547 O.2       11 UNK        -0.5000 
     69 N          -0.9961  -23.5504  -46.1808 N.am      12 UNK        -0.5000 
     70 CA         -2.2731  -23.9854  -45.6210 C.3       12 UNK         0.1400 
     71 CB         -2.4395  -23.4225  -44.2020 C.3       12 UNK        -0.1800 
     72 C          -2.4133  -25.5190  -45.6353 C.2       12 UNK         0.5000 
     73 O          -3.4219  -26.0236  -46.1279 O.2       12 UNK        -0.5000 
     74 N          -1.3933  -26.2363  -45.1380 N.am      13 UNK        -0.5000 
     75 CA         -1.3494  -27.7027  -45.0871 C.3       13 UNK         0.1400 
     76 CB         -0.1444  -28.1614  -44.2526 C.3       13 UNK        -0.1800 
     77 C          -1.3172  -28.3611  -46.4775 C.2       13 UNK         0.5000 
     78 O          -1.9339  -29.4099  -46.6675 O.2       13 UNK        -0.5000 
     79 N          -0.6342  -27.7161  -47.4329 N.am      14 UNK        -0.5000 
     80 CA         -0.6046  -28.1030  -48.8454 C.3       14 UNK         0.1400 
     81 CB          0.5468  -27.3562  -49.5376 C.3       14 UNK        -0.1800 
     82 C          -1.9307  -27.8330  -49.5872 C.2       14 UNK         0.5000 
     83 O          -2.0912  -28.3066  -50.7124 O.2       14 UNK        -0.5000 
     84 N          -2.8336  -27.0570  -48.9659 N.am      15 UNK        -0.5000 
     85 CA         -4.1125  -26.5680  -49.4906 C.3       15 UNK         0.1400 
     86 CB         -5.0841  -27.7313  -49.7761 C.3       15 UNK        -0.1800 
     87 C          -3.9515  -25.6090  -50.6887 C.2       15 UNK         0.5000 
     88 O          -4.8904  -25.4315  -51.4653 O.2       15 UNK        -0.5000 
     89 N          -2.7749  -24.9781  -50.7986 N.am      16 UNK        -0.5000 
     90 CA         -2.4614  -23.9683  -51.8035 C.3       16 UNK         0.1400 
     91 CB         -0.9372  -23.8066  -51.9173 C.3       16 UNK        -0.1800 
     92 C          -3.1387  -22.6403  -51.4457 C.2       16 UNK         0.5000 
     93 O          -3.8696  -22.0892  -52.2649 O.2       16 UNK        -0.5000 
     94 N          -2.9478  -22.1940  -50.1961 N.am      17 UNK        -0.5000 
     95 CA         -3.5543  -20.9734  -49.6580 C.3       17 UNK         0.1400 
     96 CB         -2.8262  -20.5731  -48.3679 C.3       17 UNK        -0.1800 
     97 C          -5.0723  -21.0993  -49.4186 C.2       17 UNK         0.5000 
     98 O          -5.7533  -20.0820  -49.2894 O.2       17 UNK        -0.5000 
     99 N          -5.5756  -22.3406  -49.3680 N.am      18 UNK        -0.5000 
    100 CA        -6.9994  -22.6601  -49.2790 C.3       18 UNK         0.1400 
    101 CB        -7.1578  -24.1078  -48.7887 C.3       18 UNK        -0.1800 
    102 C         -7.7420  -22.4558  -50.6153 C.2       18 UNK         0.5000 
    103 O         -8.9562  -22.2483  -50.5985 O.2       18 UNK        -0.5000 
    104 N         -7.0185  -22.5182  -51.7423 N.am      19 UNK        -0.5000 
    105 CA        -7.5483  -22.2487  -53.0764 C.3       19 UNK         0.1400 
    106 CB        -6.6779  -22.9691  -54.1183 C.3       19 UNK        -0.1800 
    107 C         -7.5671  -20.7360  -53.3489 C.2       19 UNK         0.5000 
    108 O         -6.6904  -20.0141  -52.8693 O.2       19 UNK        -0.5000 
    109 N         -8.5331  -20.2868  -54.1610 N.am      20 UNK        -0.5000 
    110 CA        -8.7214  -18.8807  -54.5406 C.3       20 UNK         0.1400 
    111 CB       -10.0360  -18.7451  -55.3240 C.3       20 UNK        -0.1800 
    112 C         -7.5490  -18.2850  -55.3473 C.2       20 UNK         0.5000 
    113 O         -7.3243  -17.0755  -55.2905 O.2       20 UNK        -0.5000 
    114 N         -6.8139  -19.1455  -56.0648 N.am      21 UNK        -0.5000 
    115 CA        -5.5982  -18.7968  -56.8012 C.3       21 UNK         0.1400 
    116 CB        -5.3137  -19.9032  -57.8294 C.3       21 UNK        -0.1800 
    117 C         -4.3708  -18.5827  -55.8905 C.2       21 UNK         0.5000 
    118 O         -3.4003  -17.9667  -56.3319 O.2       21 UNK        -0.5000 
    119 N         -4.4234  -19.0976  -54.6531 N.am      22 UNK        -0.5000 
    120 CA        -3.3525  -19.0505  -53.6434 C.3       22 UNK         0.1400 
    121 C         -2.0839  -19.8975  -53.9884 C.2       22 UNK         0.5000 
    122 N         -2.1397  -20.8114  -54.9505 N.am      22 UNK        -0.7600 
    123 O         -1.0359  -19.7502  -53.3676 O.2       22 UNK        -0.5000 
    124 C124       -3.0340  -17.5950  -53.1929 C.3       23 UNK        -0.0398 
    125 S125       -2.6672  -17.4765  -51.4088 S.3       23 UNK        -0.2404 
    126 C126       -0.9428  -16.9058  -51.4474 C.3       23 UNK        -0.0205 
    127 H127        2.0916  -15.9001  -51.2825 H         1 UNK         0.0600 
    128 H128        3.2342  -17.2317  -51.0615 H         1 UNK         0.0600 
    129 H129        3.5856  -15.9393  -52.2161 H         1 UNK         0.0600 
    130 H130        2.1164  -15.0096  -49.1864 H         1 UNK         0.3000 
    131 H131        4.5426  -14.4904  -47.7078 H         1 UNK         0.0600 
    132 H132        2.5299  -15.0120  -46.4587 H         1 UNK         0.0800 
    133 H133        3.0126  -13.4016  -46.0711 H         1 UNK         0.0800 
    134 H134        0.0858  -15.1191  -45.9024 H         1 UNK         0.0800 
    135 H135       -1.1524  -14.4819  -46.9521 H         1 UNK         0.0800 
    136 H136       -1.0976  -15.0576  -49.4509 H         1 UNK         0.1150 
    137 H137        0.5999  -18.8838  -50.3843 H         1 UNK         0.1150 
    138 H138        1.3446  -17.0833  -46.5680 H         1 UNK         0.1150 
    139 H139        2.4505  -19.6844  -48.9041 H         1 UNK         0.0800 
    140 H140        2.7012  -18.9697  -47.3375 H         1 UNK         0.0800 
    141 H141        1.9064  -21.8855  -48.9974 H         1 UNK         0.0800 
    142 H142        0.1920  -21.7257  -49.2284 H         1 UNK         0.0800 
    143 H143        1.0306  -24.0380  -48.6709 H         1 UNK         0.0600 
    144 H144        2.1322  -22.8079  -46.3160 H         1 UNK         0.3000 
    145 H145        3.1107  -25.9792  -44.8798 H         1 UNK         0.0600 
    146 H146        5.2098  -24.6875  -44.8698 H         1 UNK         0.0600 
    147 H147        4.7874  -25.1015  -46.5231 H         1 UNK         0.0600 
    148 H148        4.5158  -23.4656  -45.9341 H         1 UNK         0.0600 
    149 H149        3.2885  -23.3733  -43.7765 H         1 UNK         0.3000 
    150 H150        0.2819  -23.4186  -41.8770 H         1 UNK         0.0600 
    151 H151        3.1828  -23.8770  -40.9986 H         1 UNK         0.0600 
    152 H152        1.8264  -24.9313  -40.6185 H         1 UNK         0.0600 
    153 H153        1.8643  -23.2958  -39.9807 H         1 UNK         0.0600 
    154 H154        2.4122  -21.6050  -41.7526 H         1 UNK         0.3000 
    155 H155        1.8367  -19.4224  -42.4238 H         1 UNK         0.0600 
    156 H156        2.9798  -20.2169  -45.1614 H         1 UNK         0.0600 
    157 H157        3.8137  -20.2804  -43.6184 H         1 UNK         0.0600 
    158 H158        3.3735  -18.7265  -44.3062 H         1 UNK         0.0600 
    159 H159        0.8132  -18.9466  -45.1390 H         1 UNK         0.3000 
    160 H160       -0.8076  -17.2558  -45.2816 H         1 UNK         0.0600 
    161 H161       -1.6576  -19.5499  -45.7867 H         1 UNK         0.0600 
    162 H162       -2.9383  -18.3567  -45.9402 H         1 UNK         0.0600 
    163 H163       -2.8649  -19.3997  -44.5183 H         1 UNK         0.0600 
    164 H164       -3.1988  -17.1129  -43.7031 H         1 UNK         0.3000 
    165 H165       -3.8029  -14.8801  -43.1424 H         1 UNK         0.0600 
    166 H166       -3.9507  -14.9159  -40.6335 H         1 UNK         0.0600 
    167 H167       -3.5192  -16.5057  -41.2407 H         1 UNK         0.0600 
    168 H168       -2.2821  -15.4759  -40.5310 H         1 UNK         0.0600 
    169 H169       -1.4233  -13.3794  -42.4448 H         1 UNK         0.3000 
    170 H170       -3.0677  -10.3413  -42.7843 H         1 UNK         0.0600 
    171 H171       -2.2129   -9.5393  -40.5952 H         1 UNK         0.0600 
    172 H172       -3.6618  -10.5036  -40.3666 H         1 UNK         0.0600 
    173 H173       -2.0860  -11.1991  -40.0094 H         1 UNK         0.0600 
    174 H174       -0.4385  -10.9403  -41.8075 H         1 UNK         0.3000 
    175 H175        1.2486  -10.2848  -43.3170 H         1 UNK         0.0600 
    176 H176        1.3123  -12.6727  -42.6586 H         1 UNK         0.0600 
    177 H177        1.0825  -13.1799  -44.3221 H         1 UNK         0.0600 
    178 H178        2.5683  -12.3554  -43.8415 H         1 UNK         0.0600 
    179 H179        1.4147  -11.3743  -46.0172 H         1 UNK         0.3000 
    180 H180        0.6172   -9.7147  -47.8941 H         1 UNK         0.0600 
    181 H181        2.1469   -7.1318  -47.2783 H         1 UNK         0.0600 
    182 H182        0.4254   -7.2678  -47.6090 H         1 UNK         0.0600 
    183 H183        1.5876   -7.6363  -48.8722 H         1 UNK         0.0600 
    184 H184        2.5820  -10.5610  -48.4746 H         1 UNK         0.3000 
    185 H185        5.0947  -10.2237  -48.9557 H         1 UNK         0.0600 
    186 H186        6.6776   -9.1250  -47.3932 H         1 UNK         0.0600 
    187 H187        6.4251  -10.3954  -46.2011 H         1 UNK         0.0600 
    188 H188        7.1941  -10.7653  -47.7443 H         1 UNK         0.0600 
    189 H189        5.1327  -12.3389  -46.9193 H         1 UNK         0.3000 
    190 H190       -0.3169  -23.1732  -45.5289 H         1 UNK         0.3000 
    191 H191       -3.0729  -23.5722  -46.2394 H         1 UNK         0.0600 
    192 H192       -2.4132  -22.3325  -44.2075 H         1 UNK         0.0600 
    193 H193       -3.3950  -23.7238  -43.7713 H         1 UNK         0.0600 
    194 H194       -1.6520  -23.7708  -43.5336 H         1 UNK         0.0600 
    195 H195       -0.5989  -25.7539  -44.7246 H         1 UNK         0.3000 
    196 H196       -2.2570  -28.0435  -44.5847 H         1 UNK         0.0600 
    197 H197       -0.0934  -29.2497  -44.2014 H         1 UNK         0.0600 
    198 H198       -0.2110  -27.7923  -43.2292 H         1 UNK         0.0600 
    199 H199        0.7957  -27.8069  -44.6776 H         1 UNK         0.0600 
    200 H200       -0.0812  -26.9044  -47.1728 H         1 UNK         0.3000 
    201 H201       -0.4057  -29.1749  -48.9061 H         1 UNK         0.0600 
    202 H202        0.6312  -27.6468  -50.5855 H         1 UNK         0.0600 
    203 H203        1.5028  -27.5774  -49.0628 H         1 UNK         0.0600 
    204 H204        0.3985  -26.2764  -49.5075 H         1 UNK         0.0600 
    205 H205       -2.6107  -26.7327  -48.0327 H         1 UNK         0.3000 
    206 H206       -4.5494  -25.9698  -48.6902 H         1 UNK         0.0600 
    207 H207       -5.1744  -28.3895  -48.9119 H         1 UNK         0.0600 
    208 H208       -6.0834  -27.3590  -50.0043 H         1 UNK         0.0600 
    209 H209       -4.7602  -28.3331  -50.6254 H         1 UNK         0.0600 
    210 H210       -2.0944  -25.1109  -50.0606 H         1 UNK         0.3000 
    211 H211       -2.8442  -24.2982  -52.7718 H         1 UNK         0.0600 
    212 H212       -0.4853  -23.5113  -50.9703 H         1 UNK         0.0600 
    213 H213       -0.6818  -23.0441  -52.6546 H         1 UNK         0.0600 
    214 H214       -0.4672  -24.7377  -52.2343 H         1 UNK         0.0600 
    215 H215       -2.3823  -22.7479  -49.5608 H         1 UNK         0.3000 
    216 H216       -3.4109  -20.1746  -50.3870 H         1 UNK         0.0600 
    217 H217       -3.2636  -19.6691  -47.9440 H         1 UNK         0.0600 
    218 H218       -1.7765  -20.3565  -48.5621 H         1 UNK         0.0600 
    219 H219       -2.8796  -21.3544  -47.6093 H         1 UNK         0.0600 
    220 H220       -4.9394  -23.1136  -49.4852 H         1 UNK         0.3000 
    221 H221       -7.4569  -21.9992  -48.5397 H         1 UNK         0.0600 
    222 H222       -6.7697  -24.8235  -49.5134 H         1 UNK         0.0600 
    223 H223       -6.6386  -24.2673  -47.8434 H         1 UNK         0.0600 
    224 H224       -8.2090  -24.3489  -48.6262 H         1 UNK         0.0600 
    225 H225       -6.0133  -22.6147  -51.6780 H         1 UNK         0.3000 
    226 H226       -8.5657  -22.6397  -53.1458 H         1 UNK         0.0600 
    227 H227       -7.0985  -22.8638  -55.1190 H         1 UNK         0.0600 
    228 H228       -5.6641  -22.5689  -54.1471 H         1 UNK         0.0600 
    229 H229       -6.6089  -24.0361  -53.9049 H         1 UNK         0.0600 
    230 H230       -9.2081  -20.9423  -54.5286 H         1 UNK         0.3000 
    231 H231       -8.8104  -18.2983  -53.6212 H         1 UNK         0.0600 
    232 H232      -10.0183  -19.3302  -56.2443 H         1 UNK         0.0600 
    233 H233      -10.2218  -17.7060  -55.5993 H         1 UNK         0.0600 
    234 H234      -10.8867  -19.0783  -54.7292 H         1 UNK         0.0600 
    235 H235       -7.0822  -20.1183  -56.0638 H         1 UNK         0.3000 
    236 H236       -5.7731  -17.8643  -57.3420 H         1 UNK         0.0600 
    237 H237       -6.1441  -20.0162  -58.5267 H         1 UNK         0.0600 
    238 H238       -4.4261  -19.6706  -58.4194 H         1 UNK         0.0600 
    239 H239       -5.1451  -20.8674  -57.3482 H         1 UNK         0.0600 
    240 H240       -5.2747  -19.5525  -54.3446 H         1 UNK         0.3000 
    241 H241       -3.7965  -19.5604  -52.7895 H         1 UNK         0.0600 
    242 H242       -2.9956  -20.9706  -55.4550 H         1 UNK         0.3800 
    243 H243       -1.3187  -21.3536  -55.1652 H         1 UNK         0.3800 
    244 H244       -2.2279  -17.1644  -53.7892 H         1 UNK         0.0800 
    245 H245       -3.8982  -16.9517  -53.3645 H         1 UNK         0.0800 
    246 H246       -0.3647  -17.5162  -52.1422 H         1 UNK         0.0800 
    247 H247       -0.9072  -15.8852  -51.8313 H         1 UNK         0.0800 
@<TRIPOS>BOND
     1    1    2 1    
     2    1  127 1    
     3    1  128 1    
     4    1  129 1    
     5    2    3 2    
     6    2    4 am   BACKBONE|DICT|INTERRES
     7    4    5 1    
     8    4  130 1    
     9    5    6 1    
    10    5   65 1    
    11    5  131 1    
    12    6    7 1    
    13    6  132 1    
    14    6  133 1    
    15    7    8 1    
    16    8    9 1    
    17    8  134 1    
    18    8  135 1    
    19    9   10 ar   
    20    9   14 ar   
    21   10   11 ar   
    22   10  136 1    
    23   11   12 ar   
    24   11  126 1    
    25   12   13 ar   
    26   12  137 1    
    27   13   14 ar   
    28   13   15 1    
    29   14  138 1    
    30   15   16 1    
    31   15  139 1    
    32   15  140 1    
    33   16   17 1    
    34   17   18 1    
    35   17  141 1    
    36   17  142 1    
    37   18   19 1    
    38   18   67 1    
    39   18  143 1    
    40   19   20 am   BACKBONE|DICT|INTERRES
    41   19  144 1    
    42   20   21 2    
    43   20   22 1    
    44   22   23 1    
    45   22   24 1    
    46   22  145 1    
    47   23  146 1    
    48   23  147 1    
    49   23  148 1    
    50   24   25 am   BACKBONE|DICT|INTERRES
    51   24  149 1    
    52   25   26 2    
    53   25   27 1    
    54   27   28 1    
    55   27   29 1    
    56   27  150 1    
    57   28  151 1    
    58   28  152 1    
    59   28  153 1    
    60   29   30 am   BACKBONE|DICT|INTERRES
    61   29  154 1    
    62   30   31 2    
    63   30   32 1    
    64   32   33 1    
    65   32   34 1    
    66   32  155 1    
    67   33  156 1    
    68   33  157 1    
    69   33  158 1    
    70   34   35 am   BACKBONE|DICT|INTERRES
    71   34  159 1    
    72   35   36 2    
    73   35   37 1    
    74   37   38 1    
    75   37   39 1    
    76   37  160 1    
    77   38  161 1    
    78   38  162 1    
    79   38  163 1    
    80   39   40 am   BACKBONE|DICT|INTERRES
    81   39  164 1    
    82   40   41 2    
    83   40   42 1    
    84   42   43 1    
    85   42   44 1    
    86   42  165 1    
    87   43  166 1    
    88   43  167 1    
    89   43  168 1    
    90   44   45 am   BACKBONE|DICT|INTERRES
    91   44  169 1    
    92   45   46 2    
    93   45   47 1    
    94   47   48 1    
    95   47   49 1    
    96   47  170 1    
    97   48  171 1    
    98   48  172 1    
    99   48  173 1    
   100   49   50 am   BACKBONE|DICT|INTERRES
   101   49  174 1    
   102   50   51 2    
   103   50   52 1    
   104   52   53 1    
   105   52   54 1    
   106   52  175 1    
   107   53  176 1    
   108   53  177 1    
   109   53  178 1    
   110   54   55 am   BACKBONE|DICT|INTERRES
   111   54  179 1    
   112   55   56 2    
   113   55   57 1    
   114   57   58 1    
   115   57   59 1    
   116   57  180 1    
   117   58  181 1    
   118   58  182 1    
   119   58  183 1    
   120   59   60 am   BACKBONE|DICT|INTERRES
   121   59  184 1    
   122   60   61 2    
   123   60   62 1    
   124   62   63 1    
   125   62   64 1    
   126   62  185 1    
   127   63  186 1    
   128   63  187 1    
   129   63  188 1    
   130   64   65 am   BACKBONE|DICT|INTERRES
   131   64  189 1    
   132   65   66 2    
   133   67   68 2    
   134   67   69 am   BACKBONE|DICT|INTERRES
   135   69   70 1    
   136   69  190 1    
   137   70   71 1    
   138   70   72 1    
   139   70  191 1    
   140   71  192 1    
   141   71  193 1    
   142   71  194 1    
   143   72   73 2    
   144   72   74 am   BACKBONE|DICT|INTERRES
   145   74   75 1    
   146   74  195 1    
   147   75   76 1    
   148   75   77 1    
   149   75  196 1    
   150   76  197 1    
   151   76  198 1    
   152   76  199 1    
   153   77   78 2    
   154   77   79 am   BACKBONE|DICT|INTERRES
   155   79   80 1    
   156   79  200 1    
   157   80   81 1    
   158   80   82 1    
   159   80  201 1    
   160   81  202 1    
   161   81  203 1    
   162   81  204 1    
   163   82   83 2    
   164   82   84 am   BACKBONE|DICT|INTERRES
   165   84   85 1    
   166   84  205 1    
   167   85   86 1    
   168   85   87 1    
   169   85  206 1    
   170   86  207 1    
   171   86  208 1    
   172   86  209 1    
   173   87   88 2    
   174   87   89 am   BACKBONE|DICT|INTERRES
   175   89   90 1    
   176   89  210 1    
   177   90   91 1    
   178   90   92 1    
   179   90  211 1    
   180   91  212 1    
   181   91  213 1    
   182   91  214 1    
   183   92   93 2    
   184   92   94 am   BACKBONE|DICT|INTERRES
   185   94   95 1    
   186   94  215 1    
   187   95   96 1    
   188   95   97 1    
   189   95  216 1    
   190   96  217 1    
   191   96  218 1    
   192   96  219 1    
   193   97   98 2    
   194   97   99 am   BACKBONE|DICT|INTERRES
   195   99  100 1    
   196   99  220 1    
   197  100  101 1    
   198  100  102 1    
   199  100  221 1    
   200  101  222 1    
   201  101  223 1    
   202  101  224 1    
   203  102  103 2    
   204  102  104 am   BACKBONE|DICT|INTERRES
   205  104  105 1    
   206  104  225 1    
   207  105  106 1    
   208  105  107 1    
   209  105  226 1    
   210  106  227 1    
   211  106  228 1    
   212  106  229 1    
   213  107  108 2    
   214  107  109 am   BACKBONE|DICT|INTERRES
   215  109  110 1    
   216  109  230 1    
   217  110  111 1    
   218  110  112 1    
   219  110  231 1    
   220  111  232 1    
   221  111  233 1    
   222  111  234 1    
   223  112  113 2    
   224  112  114 am   BACKBONE|DICT|INTERRES
   225  114  115 1    
   226  114  235 1    
   227  115  116 1    
   228  115  117 1    
   229  115  236 1    
   230  116  237 1    
   231  116  238 1    
   232  116  239 1    
   233  117  118 2    
   234  117  119 am   BACKBONE|DICT|INTERRES
   235  119  120 1    
   236  119  240 1    
   237  120  121 1    
   238  120  124 1    
   239  120  241 1    
   240  121  122 am   BACKBONE|DICT|INTERRES
   241  121  123 2    
   242  122  242 1    
   243  122  243 1    
   244  124  125 1    
   245  124  244 1    
   246  124  245 1    
   247  125  126 1    
   248  126  246 1    
   249  126  247 1    
@<TRIPOS>SUBSTRUCTURE
     1 UNK         1 GROUP             0       ****    0 ROOT    
