@<TRIPOS>MOLECULE
3R540
247   249    1
SMALL
USER_CHARGES


@<TRIPOS>ATOM
      1 CA          5.1826  -14.8413  -46.0984 C.3       0 UNK        -0.1800 
      2 C           3.8966  -14.1577  -46.5405 C.2       0 UNK         0.5000 
      3 O           3.6666  -14.0159  -47.7399 O.2       0 UNK        -0.5000 
      4 N           3.0859  -13.7114  -45.5701 N.am      1 UNK        -0.5000 
      5 CA          1.7646  -13.0692  -45.6764 C.3       1 UNK         0.1400 
      6 C6          0.5659  -14.0516  -45.7665 C.3       23 UNK        -0.0398 
      7 S7          0.5950  -15.2392  -47.1489 S.3       23 UNK        -0.2404 
      8 C8         -1.0468  -15.0244  -47.9228 C.3       23 UNK        -0.0205 
      9 C9         -1.5613  -16.3246  -48.5351 C.ar      23 UNK        -0.0193 
     10 C10        -2.8572  -16.7759  -48.2564 C.ar      23 UNK        -0.1150 
     11 C11        -3.3112  -17.9950  -48.7716 C.ar      23 UNK        -0.0193 
     12 C12        -2.4554  -18.7754  -49.5515 C.ar      23 UNK        -0.1150 
     13 C13        -1.1593  -18.3406  -49.8320 C.ar      23 UNK        -0.0193 
     14 C14        -0.7345  -17.0968  -49.3578 C.ar      23 UNK        -0.1150 
     15 C15        -0.1996  -19.2516  -50.5832 C.3       23 UNK        -0.0205 
     16 S16         1.3561  -19.5716  -49.6734 S.3       23 UNK        -0.2404 
     17 C17         0.8249  -19.8266  -47.9386 C.3       23 UNK        -0.0398 
     18 CA          0.5996  -21.3092  -47.5718 C.3       11 UNK         0.1400 
     19 N           0.7740  -21.5396  -46.1371 N.am      11 UNK        -0.5000 
     20 C           0.8240  -22.7463  -45.5572 C.2       10 UNK         0.5000 
     21 O           0.7315  -23.8084  -46.1729 O.2       10 UNK        -0.5000 
     22 CA          0.9545  -22.7610  -44.0259 C.3       10 UNK         0.1400 
     23 CB          2.3973  -22.4607  -43.5913 C.3       10 UNK        -0.1800 
     24 N           0.0446  -21.8014  -43.4027 N.am      10 UNK        -0.5000 
     25 C          -1.2858  -21.9521  -43.3485 C.2       9 UNK         0.5000 
     26 O          -1.8813  -22.9422  -43.7753 O.2       9 UNK        -0.5000 
     27 CA         -2.0840  -20.7815  -42.7448 C.3       9 UNK         0.1400 
     28 CB         -2.0985  -20.8663  -41.2113 C.3       9 UNK        -0.1800 
     29 N          -1.5692  -19.4722  -43.1507 N.am      9 UNK        -0.5000 
     30 C          -1.5908  -19.0098  -44.4091 C.2       8 UNK         0.5000 
     31 O          -2.0395  -19.6412  -45.3599 O.2       8 UNK        -0.5000 
     32 CA         -0.9673  -17.6302  -44.6635 C.3       8 UNK         0.1400 
     33 CB         -2.0136  -16.5325  -44.4201 C.3       8 UNK        -0.1800 
     34 N           0.2293  -17.3836  -43.8553 N.am      8 UNK        -0.5000 
     35 C           1.3458  -18.1298  -43.9086 C.2       7 UNK         0.5000 
     36 O           1.4682  -19.1159  -44.6375 O.2       7 UNK        -0.5000 
     37 CA          2.5206  -17.7374  -42.9915 C.3       7 UNK         0.1400 
     38 CB          3.6196  -17.0506  -43.8104 C.3       7 UNK        -0.1800 
     39 N           2.1381  -16.8627  -41.8828 N.am      7 UNK        -0.5000 
     40 C           1.3902  -17.2432  -40.8364 C.2       6 UNK         0.5000 
     41 O           0.9663  -18.3900  -40.6861 O.2       6 UNK        -0.5000 
     42 CA          1.0227  -16.1591  -39.8017 C.3       6 UNK         0.1400 
     43 CB          1.9805  -16.2189  -38.6024 C.3       6 UNK        -0.1800 
     44 N           1.0160  -14.7933  -40.3354 N.am      6 UNK        -0.5000 
     45 C           0.2428  -14.3563  -41.3392 C.2       5 UNK         0.5000 
     46 O          -0.5615  -15.0684  -41.9389 O.2       5 UNK        -0.5000 
     47 CA          0.4262  -12.8931  -41.7829 C.3       5 UNK         0.1400 
     48 CB         -0.5900  -11.9884  -41.0714 C.3       5 UNK        -0.1800 
     49 N           1.7721  -12.3417  -41.5872 N.am      5 UNK        -0.5000 
     50 C           2.9198  -12.8445  -42.0601 C.2       4 UNK         0.5000 
     51 O           2.9984  -13.9100  -42.6767 O.2       4 UNK        -0.5000 
     52 CA          4.1730  -11.9681  -41.8663 C.3       4 UNK         0.1400 
     53 CB          5.4736  -12.7625  -42.0810 C.3       4 UNK        -0.1800 
     54 N           4.1616  -10.8284  -42.7871 N.am      4 UNK        -0.5000 
     55 C           3.4122   -9.7224  -42.6519 C.2       3 UNK         0.5000 
     56 O           2.6623   -9.5201  -41.6962 O.2       3 UNK        -0.5000 
     57 CA          3.4789   -8.7002  -43.7973 C.3       3 UNK         0.1400 
     58 CB          4.7463   -7.8325  -43.7028 C.3       3 UNK        -0.1800 
     59 N           3.4212   -9.3989  -45.0790 N.am      3 UNK        -0.5000 
     60 C           3.0309   -8.8844  -46.2528 C.2       2 UNK         0.5000 
     61 O           2.7291   -7.7022  -46.4188 O.2       2 UNK        -0.5000 
     62 CA          2.9504   -9.8699  -47.4393 C.3       2 UNK         0.1400 
     63 CB          4.2118   -9.7685  -48.3103 C.3       2 UNK        -0.1800 
     64 N           2.8030  -11.2518  -46.9760 N.am      2 UNK        -0.5000 
     65 C           1.6564  -11.7985  -46.5509 C.2       1 UNK         0.5000 
     66 O           0.5575  -11.2686  -46.7201 O.2       1 UNK        -0.5000 
     67 C          -0.7587  -21.8350  -48.0824 C.2       11 UNK         0.5000 
     68 O          -0.7970  -22.4630  -49.1386 O.2       11 UNK        -0.5000 
     69 N          -1.8329  -21.6312  -47.3044 N.am      12 UNK        -0.5000 
     70 CA         -3.1801  -22.1320  -47.5807 C.3       12 UNK         0.1400 
     71 CB         -4.1547  -21.6496  -46.4931 C.3       12 UNK        -0.1800 
     72 C          -3.2482  -23.6627  -47.6800 C.2       12 UNK         0.5000 
     73 O          -3.9362  -24.1795  -48.5616 O.2       12 UNK        -0.5000 
     74 N          -2.5300  -24.3487  -46.7811 N.am      13 UNK        -0.5000 
     75 CA         -2.4082  -25.8036  -46.7589 C.3       13 UNK         0.1400 
     76 CB         -1.8421  -26.2467  -45.4012 C.3       13 UNK        -0.1800 
     77 C          -1.5409  -26.3292  -47.9156 C.2       13 UNK         0.5000 
     78 O          -1.8883  -27.3462  -48.5158 O.2       13 UNK        -0.5000 
     79 N          -0.4414  -25.6228  -48.2142 N.am      14 UNK        -0.5000 
     80 CA          0.4870  -25.9467  -49.2970 C.3       14 UNK         0.1400 
     81 CB          1.7606  -25.0994  -49.1529 C.3       14 UNK        -0.1800 
     82 C          -0.1364  -25.7653  -50.6926 C.2       14 UNK         0.5000 
     83 O           0.0103  -26.6468  -51.5403 O.2       14 UNK        -0.5000 
     84 N          -0.8238  -24.6346  -50.9048 N.am      15 UNK        -0.5000 
     85 CA         -1.5045  -24.3082  -52.1580 C.3       15 UNK         0.1400 
     86 CB         -1.7416  -22.7945  -52.2349 C.3       15 UNK        -0.1800 
     87 C          -2.8269  -25.0706  -52.3441 C.2       15 UNK         0.5000 
     88 O          -3.2547  -25.2581  -53.4857 O.2       15 UNK        -0.5000 
     89 N          -3.4472  -25.4803  -51.2266 N.am      16 UNK        -0.5000 
     90 CA         -4.6162  -26.3602  -51.1049 C.3       16 UNK         0.1400 
     91 CB         -4.2301  -27.7919  -51.5290 C.3       16 UNK        -0.1800 
     92 C          -5.8826  -25.8607  -51.8335 C.2       16 UNK         0.5000 
     93 O          -6.7469  -26.6699  -52.1745 O.2       16 UNK        -0.5000 
     94 N          -5.9552  -24.5452  -52.0873 N.am      17 UNK        -0.5000 
     95 CA         -6.9495  -23.8578  -52.9199 C.3       17 UNK         0.1400 
     96 CB         -8.3475  -23.9073  -52.2698 C.3       17 UNK        -0.1800 
     97 C          -6.9488  -24.3282  -54.3939 C.2       17 UNK         0.5000 
     98 O          -7.9662  -24.2000  -55.0779 O.2       17 UNK        -0.5000 
     99 N          -5.8079  -24.8595  -54.8547 N.am      18 UNK        -0.5000 
    100 CA        -5.5766  -25.3189  -56.2211 C.3       18 UNK         0.1400 
    101 CB        -5.1209  -26.7868  -56.1906 C.3       18 UNK        -0.1800 
    102 C         -4.5268  -24.4334  -56.9078 C.2       18 UNK         0.5000 
    103 O         -4.7546  -23.9850  -58.0318 O.2       18 UNK        -0.5000 
    104 N         -3.4063  -24.1763  -56.2169 N.am      19 UNK        -0.5000 
    105 CA        -2.3140  -23.3248  -56.7028 C.3       19 UNK         0.1400 
    106 CB        -0.9882  -23.8361  -56.1198 C.3       19 UNK        -0.1800 
    107 C         -2.5167  -21.8338  -56.3616 C.2       19 UNK         0.5000 
    108 O         -1.7527  -20.9938  -56.8388 O.2       19 UNK        -0.5000 
    109 N         -3.5292  -21.5310  -55.5446 N.am      20 UNK        -0.5000 
    110 CA        -3.9436  -20.1976  -55.1260 C.3       20 UNK         0.1400 
    111 CB        -3.1703  -19.7863  -53.8576 C.3       20 UNK        -0.1800 
    112 C         -5.4604  -20.2257  -54.8830 C.2       20 UNK         0.5000 
    113 O         -6.0822  -21.2837  -54.9999 O.2       20 UNK        -0.5000 
    114 N         -6.0337  -19.0710  -54.5262 N.am      21 UNK        -0.5000 
    115 CA        -7.4573  -18.9113  -54.2058 C.3       21 UNK         0.1400 
    116 CB        -7.7994  -17.4130  -54.2468 C.3       21 UNK        -0.1800 
    117 C         -7.8724  -19.5219  -52.8479 C.2       21 UNK         0.5000 
    118 O         -9.0671  -19.5886  -52.5555 O.2       21 UNK        -0.5000 
    119 N         -6.8934  -19.9347  -52.0391 N.am      22 UNK        -0.5000 
    120 CA        -7.0503  -20.4578  -50.6799 C.3       22 UNK         0.1400 
    121 C         -5.9464  -21.4994  -50.3544 C.2       22 UNK         0.5000 
    122 N         -6.1620  -22.3546  -49.3642 N.am      22 UNK        -0.7600 
    123 O         -4.9031  -21.5594  -51.0003 O.2       22 UNK        -0.5000 
    124 C124       -7.1527  -19.3201  -49.6233 C.3       23 UNK        -0.0398 
    125 S125       -5.8738  -18.0183  -49.7830 S.3       23 UNK        -0.2404 
    126 C126       -4.7131  -18.4970  -48.4726 C.3       23 UNK        -0.0205 
    127 H127        6.0435  -14.3598  -46.5621 H         1 UNK         0.0600 
    128 H128        5.1719  -15.8884  -46.4008 H         1 UNK         0.0600 
    129 H129        5.3140  -14.8000  -45.0170 H         1 UNK         0.0600 
    130 H130        3.3573  -13.8869  -44.6072 H         1 UNK         0.3000 
    131 H131        1.6575  -12.6246  -44.6883 H         1 UNK         0.0600 
    132 H132       -0.3793  -13.5075  -45.7576 H         1 UNK         0.0800 
    133 H133        0.5555  -14.6490  -44.8546 H         1 UNK         0.0800 
    134 H134       -0.9835  -14.2577  -48.6958 H         1 UNK         0.0800 
    135 H135       -1.7573  -14.6627  -47.1786 H         1 UNK         0.0800 
    136 H136       -3.5121  -16.1849  -47.6318 H         1 UNK         0.1150 
    137 H137       -2.7958  -19.7323  -49.9238 H         1 UNK         0.1150 
    138 H138        0.2708  -16.7628  -49.5729 H         1 UNK         0.1150 
    139 H139       -0.6740  -20.2093  -50.8007 H         1 UNK         0.0800 
    140 H140        0.0378  -18.8018  -51.5478 H         1 UNK         0.0800 
    141 H141       -0.0394  -19.2191  -47.6715 H         1 UNK         0.0800 
    142 H142        1.6390  -19.4273  -47.3322 H         1 UNK         0.0800 
    143 H143        1.3769  -21.8956  -48.0659 H         1 UNK         0.0600 
    144 H144        0.8810  -20.7133  -45.5549 H         1 UNK         0.3000 
    145 H145        0.6952  -23.7626  -43.6760 H         1 UNK         0.0600 
    146 H146        2.5041  -22.5284  -42.5085 H         1 UNK         0.0600 
    147 H147        3.0926  -23.1763  -44.0317 H         1 UNK         0.0600 
    148 H148        2.7157  -21.4636  -43.8972 H         1 UNK         0.0600 
    149 H149        0.4481  -20.9389  -43.0674 H         1 UNK         0.3000 
    150 H150       -3.1128  -20.8643  -43.1017 H         1 UNK         0.0600 
    151 H151       -2.4845  -21.8301  -40.8768 H         1 UNK         0.0600 
    152 H152       -2.7360  -20.0942  -40.7802 H         1 UNK         0.0600 
    153 H153       -1.0985  -20.7480  -40.7914 H         1 UNK         0.0600 
    154 H154       -1.1518  -18.8991  -42.4309 H         1 UNK         0.3000 
    155 H155       -0.6707  -17.5927  -45.7135 H         1 UNK         0.0600 
    156 H156       -2.8876  -16.6829  -45.0551 H         1 UNK         0.0600 
    157 H157       -1.6204  -15.5432  -44.6454 H         1 UNK         0.0600 
    158 H158       -2.3581  -16.5273  -43.3854 H         1 UNK         0.0600 
    159 H159        0.1829  -16.6089  -43.2036 H         1 UNK         0.3000 
    160 H160        2.9314  -18.6584  -42.5726 H         1 UNK         0.0600 
    161 H161        3.2412  -16.1469  -44.2846 H         1 UNK         0.0600 
    162 H162        3.9891  -17.7058  -44.6003 H         1 UNK         0.0600 
    163 H163        4.4707  -16.7753  -43.1873 H         1 UNK         0.0600 
    164 H164        2.4286  -15.8940  -41.9509 H         1 UNK         0.3000 
    165 H165        0.0138  -16.3793  -39.4472 H         1 UNK         0.0600 
    166 H166        1.6781  -15.5228  -37.8199 H         1 UNK         0.0600 
    167 H167        1.9925  -17.2163  -38.1606 H         1 UNK         0.0600 
    168 H168        3.0034  -15.9760  -38.8929 H         1 UNK         0.0600 
    169 H169        1.6574  -14.1389  -39.9124 H         1 UNK         0.3000 
    170 H170        0.2118  -12.8577  -42.8516 H         1 UNK         0.0600 
    171 H171       -1.6085  -12.3506  -41.2183 H         1 UNK         0.0600 
    172 H172       -0.4073  -11.9469  -39.9969 H         1 UNK         0.0600 
    173 H173       -0.5503  -10.9698  -41.4583 H         1 UNK         0.0600 
    174 H174        1.8161  -11.4237  -41.1599 H         1 UNK         0.3000 
    175 H175        4.1704  -11.6000  -40.8381 H         1 UNK         0.0600 
    176 H176        5.5142  -13.6312  -41.4225 H         1 UNK         0.0600 
    177 H177        5.5657  -13.1234  -43.1060 H         1 UNK         0.0600 
    178 H178        6.3486  -12.1501  -41.8628 H         1 UNK         0.0600 
    179 H179        4.7945  -10.8923  -43.5700 H         1 UNK         0.3000 
    180 H180        2.6028   -8.0538  -43.7112 H         1 UNK         0.0600 
    181 H181        5.6524   -8.4262  -43.8282 H         1 UNK         0.0600 
    182 H182        4.8080   -7.3367  -42.7332 H         1 UNK         0.0600 
    183 H183        4.7501   -7.0533  -44.4650 H         1 UNK         0.0600 
    184 H184        3.5943  -10.3913  -45.0433 H         1 UNK         0.3000 
    185 H185        2.0863   -9.5975  -48.0489 H         1 UNK         0.0600 
    186 H186        4.3393   -8.7559  -48.6955 H         1 UNK         0.0600 
    187 H187        5.1121  -10.0225  -47.7493 H         1 UNK         0.0600 
    188 H188        4.1516  -10.4373  -49.1692 H         1 UNK         0.0600 
    189 H189        3.6488  -11.7953  -46.8792 H         1 UNK         0.3000 
    190 H190       -1.7422  -21.0424  -46.4788 H         1 UNK         0.3000 
    191 H191       -3.4885  -21.7191  -48.5418 H         1 UNK         0.0600 
    192 H192       -3.8716  -22.0210  -45.5078 H         1 UNK         0.0600 
    193 H193       -5.1697  -21.9942  -46.6923 H         1 UNK         0.0600 
    194 H194       -4.1907  -20.5638  -46.4335 H         1 UNK         0.0600 
    195 H195       -2.0062  -23.8357  -46.0840 H         1 UNK         0.3000 
    196 H196       -3.4067  -26.2326  -46.8667 H         1 UNK         0.0600 
    197 H197       -1.7667  -27.3333  -45.3458 H         1 UNK         0.0600 
    198 H198       -2.4843  -25.9219  -44.5823 H         1 UNK         0.0600 
    199 H199       -0.8464  -25.8386  -45.2248 H         1 UNK         0.0600 
    200 H200       -0.2029  -24.8238  -47.6352 H         1 UNK         0.3000 
    201 H201        0.7684  -26.9967  -49.1922 H         1 UNK         0.0600 
    202 H202        2.2409  -25.2697  -48.1892 H         1 UNK         0.0600 
    203 H203        1.5472  -24.0337  -49.2362 H         1 UNK         0.0600 
    204 H204        2.4859  -25.3503  -49.9277 H         1 UNK         0.0600 
    205 H205       -0.8610  -23.9282  -50.1704 H         1 UNK         0.3000 
    206 H206       -0.8472  -24.5933  -52.9804 H         1 UNK         0.0600 
    207 H207       -0.8001  -22.2468  -52.2019 H         1 UNK         0.0600 
    208 H208       -2.2418  -22.5268  -53.1650 H         1 UNK         0.0600 
    209 H209       -2.3648  -22.4417  -51.4123 H         1 UNK         0.0600 
    210 H210       -3.0516  -25.1870  -50.3421 H         1 UNK         0.3000 
    211 H211       -4.8677  -26.3845  -50.0438 H         1 UNK         0.0600 
    212 H212       -4.0224  -27.8521  -52.5980 H         1 UNK         0.0600 
    213 H213       -5.0303  -28.4993  -51.3087 H         1 UNK         0.0600 
    214 H214       -3.3428  -28.1336  -50.9953 H         1 UNK         0.0600 
    215 H215       -5.2013  -23.9629  -51.7464 H         1 UNK         0.3000 
    216 H216       -6.6422  -22.8132  -52.9438 H         1 UNK         0.0600 
    217 H217       -9.0394  -23.2399  -52.7849 H         1 UNK         0.0600 
    218 H218       -8.3102  -23.5916  -51.2275 H         1 UNK         0.0600 
    219 H219       -8.7745  -24.9098  -52.3018 H         1 UNK         0.0600 
    220 H220       -5.0231  -24.9489  -54.2167 H         1 UNK         0.3000 
    221 H221       -6.4950  -25.2620  -56.8089 H         1 UNK         0.0600 
    222 H222       -4.2066  -26.9175  -55.6102 H         1 UNK         0.0600 
    223 H223       -5.8873  -27.4243  -55.7495 H         1 UNK         0.0600 
    224 H224       -4.9283  -27.1574  -57.1981 H         1 UNK         0.0600 
    225 H225       -3.2857  -24.5913  -55.2974 H         1 UNK         0.3000 
    226 H226       -2.2512  -23.4049  -57.7900 H         1 UNK         0.0600 
    227 H227       -0.8494  -24.8993  -56.3166 H         1 UNK         0.0600 
    228 H228       -0.1407  -23.3103  -56.5611 H         1 UNK         0.0600 
    229 H229       -0.9400  -23.6811  -55.0440 H         1 UNK         0.0600 
    230 H230       -4.1706  -22.2650  -55.2734 H         1 UNK         0.3000 
    231 H231       -3.7441  -19.4839  -55.9279 H         1 UNK         0.0600 
    232 H232       -2.0930  -19.8565  -54.0091 H         1 UNK         0.0600 
    233 H233       -3.4283  -20.4167  -53.0064 H         1 UNK         0.0600 
    234 H234       -3.3870  -18.7554  -53.5765 H         1 UNK         0.0600 
    235 H235       -5.4623  -18.2423  -54.4441 H         1 UNK         0.3000 
    236 H236       -8.0424  -19.4156  -54.9778 H         1 UNK         0.0600 
    237 H237       -8.8614  -17.2473  -54.0606 H         1 UNK         0.0600 
    238 H238       -7.2434  -16.8541  -53.4928 H         1 UNK         0.0600 
    239 H239       -7.5724  -16.9820  -55.2220 H         1 UNK         0.0600 
    240 H240       -5.9359  -19.8851  -52.3567 H         1 UNK         0.3000 
    241 H241       -7.9864  -21.0192  -50.6551 H         1 UNK         0.0600 
    242 H242       -5.4546  -23.0518  -49.1622 H         1 UNK         0.3800 
    243 H243       -7.0190  -22.3530  -48.8343 H         1 UNK         0.3800 
    244 H244       -8.1191  -18.8273  -49.7359 H         1 UNK         0.0800 
    245 H245       -7.1544  -19.7220  -48.6088 H         1 UNK         0.0800 
    246 H246       -4.6940  -19.5827  -48.4001 H         1 UNK         0.0800 
    247 H247       -5.0636  -18.1228  -47.5096 H         1 UNK         0.0800 
@<TRIPOS>BOND
     1    1    2 1    
     2    1  127 1    
     3    1  128 1    
     4    1  129 1    
     5    2    3 2    
     6    2    4 am   BACKBONE|DICT|INTERRES
     7    4    5 1    
     8    4  130 1    
     9    5    6 1    
    10    5   65 1    
    11    5  131 1    
    12    6    7 1    
    13    6  132 1    
    14    6  133 1    
    15    7    8 1    
    16    8    9 1    
    17    8  134 1    
    18    8  135 1    
    19    9   10 ar   
    20    9   14 ar   
    21   10   11 ar   
    22   10  136 1    
    23   11   12 ar   
    24   11  126 1    
    25   12   13 ar   
    26   12  137 1    
    27   13   14 ar   
    28   13   15 1    
    29   14  138 1    
    30   15   16 1    
    31   15  139 1    
    32   15  140 1    
    33   16   17 1    
    34   17   18 1    
    35   17  141 1    
    36   17  142 1    
    37   18   19 1    
    38   18   67 1    
    39   18  143 1    
    40   19   20 am   BACKBONE|DICT|INTERRES
    41   19  144 1    
    42   20   21 2    
    43   20   22 1    
    44   22   23 1    
    45   22   24 1    
    46   22  145 1    
    47   23  146 1    
    48   23  147 1    
    49   23  148 1    
    50   24   25 am   BACKBONE|DICT|INTERRES
    51   24  149 1    
    52   25   26 2    
    53   25   27 1    
    54   27   28 1    
    55   27   29 1    
    56   27  150 1    
    57   28  151 1    
    58   28  152 1    
    59   28  153 1    
    60   29   30 am   BACKBONE|DICT|INTERRES
    61   29  154 1    
    62   30   31 2    
    63   30   32 1    
    64   32   33 1    
    65   32   34 1    
    66   32  155 1    
    67   33  156 1    
    68   33  157 1    
    69   33  158 1    
    70   34   35 am   BACKBONE|DICT|INTERRES
    71   34  159 1    
    72   35   36 2    
    73   35   37 1    
    74   37   38 1    
    75   37   39 1    
    76   37  160 1    
    77   38  161 1    
    78   38  162 1    
    79   38  163 1    
    80   39   40 am   BACKBONE|DICT|INTERRES
    81   39  164 1    
    82   40   41 2    
    83   40   42 1    
    84   42   43 1    
    85   42   44 1    
    86   42  165 1    
    87   43  166 1    
    88   43  167 1    
    89   43  168 1    
    90   44   45 am   BACKBONE|DICT|INTERRES
    91   44  169 1    
    92   45   46 2    
    93   45   47 1    
    94   47   48 1    
    95   47   49 1    
    96   47  170 1    
    97   48  171 1    
    98   48  172 1    
    99   48  173 1    
   100   49   50 am   BACKBONE|DICT|INTERRES
   101   49  174 1    
   102   50   51 2    
   103   50   52 1    
   104   52   53 1    
   105   52   54 1    
   106   52  175 1    
   107   53  176 1    
   108   53  177 1    
   109   53  178 1    
   110   54   55 am   BACKBONE|DICT|INTERRES
   111   54  179 1    
   112   55   56 2    
   113   55   57 1    
   114   57   58 1    
   115   57   59 1    
   116   57  180 1    
   117   58  181 1    
   118   58  182 1    
   119   58  183 1    
   120   59   60 am   BACKBONE|DICT|INTERRES
   121   59  184 1    
   122   60   61 2    
   123   60   62 1    
   124   62   63 1    
   125   62   64 1    
   126   62  185 1    
   127   63  186 1    
   128   63  187 1    
   129   63  188 1    
   130   64   65 am   BACKBONE|DICT|INTERRES
   131   64  189 1    
   132   65   66 2    
   133   67   68 2    
   134   67   69 am   BACKBONE|DICT|INTERRES
   135   69   70 1    
   136   69  190 1    
   137   70   71 1    
   138   70   72 1    
   139   70  191 1    
   140   71  192 1    
   141   71  193 1    
   142   71  194 1    
   143   72   73 2    
   144   72   74 am   BACKBONE|DICT|INTERRES
   145   74   75 1    
   146   74  195 1    
   147   75   76 1    
   148   75   77 1    
   149   75  196 1    
   150   76  197 1    
   151   76  198 1    
   152   76  199 1    
   153   77   78 2    
   154   77   79 am   BACKBONE|DICT|INTERRES
   155   79   80 1    
   156   79  200 1    
   157   80   81 1    
   158   80   82 1    
   159   80  201 1    
   160   81  202 1    
   161   81  203 1    
   162   81  204 1    
   163   82   83 2    
   164   82   84 am   BACKBONE|DICT|INTERRES
   165   84   85 1    
   166   84  205 1    
   167   85   86 1    
   168   85   87 1    
   169   85  206 1    
   170   86  207 1    
   171   86  208 1    
   172   86  209 1    
   173   87   88 2    
   174   87   89 am   BACKBONE|DICT|INTERRES
   175   89   90 1    
   176   89  210 1    
   177   90   91 1    
   178   90   92 1    
   179   90  211 1    
   180   91  212 1    
   181   91  213 1    
   182   91  214 1    
   183   92   93 2    
   184   92   94 am   BACKBONE|DICT|INTERRES
   185   94   95 1    
   186   94  215 1    
   187   95   96 1    
   188   95   97 1    
   189   95  216 1    
   190   96  217 1    
   191   96  218 1    
   192   96  219 1    
   193   97   98 2    
   194   97   99 am   BACKBONE|DICT|INTERRES
   195   99  100 1    
   196   99  220 1    
   197  100  101 1    
   198  100  102 1    
   199  100  221 1    
   200  101  222 1    
   201  101  223 1    
   202  101  224 1    
   203  102  103 2    
   204  102  104 am   BACKBONE|DICT|INTERRES
   205  104  105 1    
   206  104  225 1    
   207  105  106 1    
   208  105  107 1    
   209  105  226 1    
   210  106  227 1    
   211  106  228 1    
   212  106  229 1    
   213  107  108 2    
   214  107  109 am   BACKBONE|DICT|INTERRES
   215  109  110 1    
   216  109  230 1    
   217  110  111 1    
   218  110  112 1    
   219  110  231 1    
   220  111  232 1    
   221  111  233 1    
   222  111  234 1    
   223  112  113 2    
   224  112  114 am   BACKBONE|DICT|INTERRES
   225  114  115 1    
   226  114  235 1    
   227  115  116 1    
   228  115  117 1    
   229  115  236 1    
   230  116  237 1    
   231  116  238 1    
   232  116  239 1    
   233  117  118 2    
   234  117  119 am   BACKBONE|DICT|INTERRES
   235  119  120 1    
   236  119  240 1    
   237  120  121 1    
   238  120  124 1    
   239  120  241 1    
   240  121  122 am   BACKBONE|DICT|INTERRES
   241  121  123 2    
   242  122  242 1    
   243  122  243 1    
   244  124  125 1    
   245  124  244 1    
   246  124  245 1    
   247  125  126 1    
   248  126  246 1    
   249  126  247 1    
@<TRIPOS>SUBSTRUCTURE
     1 UNK         1 GROUP             0       ****    0 ROOT    
