@<TRIPOS>MOLECULE
3R540
247   249    1
SMALL
USER_CHARGES


@<TRIPOS>ATOM
      1 CA         -1.6569   -8.8088  -48.4636 C.3       0 UNK        -0.1800 
      2 C          -0.6822   -9.7924  -47.8329 C.2       0 UNK         0.5000 
      3 O          -0.0041   -9.4498  -46.8638 O.2       0 UNK        -0.5000 
      4 N          -0.6205  -11.0219  -48.3630 N.am      1 UNK        -0.5000 
      5 CA          0.2713  -12.0978  -47.9047 C.3       1 UNK         0.1400 
      6 C6          0.3396  -13.2696  -48.9133 C.3       23 UNK        -0.0398 
      7 S7         -1.2524  -14.1200  -49.1897 S.3       23 UNK        -0.2404 
      8 C8         -0.7099  -15.4376  -50.3177 C.3       23 UNK        -0.0205 
      9 C9         -1.7337  -16.5570  -50.3863 C.ar      23 UNK        -0.0193 
     10 C10        -2.7096  -16.5712  -51.3873 C.ar      23 UNK        -0.1150 
     11 C11        -3.6394  -17.6136  -51.4556 C.ar      23 UNK        -0.0193 
     12 C12        -3.5863  -18.6450  -50.5144 C.ar      23 UNK        -0.1150 
     13 C13        -2.6067  -18.6465  -49.5182 C.ar      23 UNK        -0.0193 
     14 C14        -1.6899  -17.5952  -49.4521 C.ar      23 UNK        -0.1150 
     15 C15        -2.5276  -19.7851  -48.5181 C.3       23 UNK        -0.0205 
     16 S16        -1.2259  -20.9676  -48.9987 S.3       23 UNK        -0.2404 
     17 C17        -0.2030  -21.0481  -47.4847 C.3       23 UNK        -0.0398 
     18 CA         -0.2321  -22.4039  -46.7342 C.3       11 UNK         0.1400 
     19 N           0.5140  -22.3216  -45.4774 N.am      11 UNK        -0.5000 
     20 C           0.7960  -23.3521  -44.6690 C.2       10 UNK         0.5000 
     21 O           0.5085  -24.5205  -44.9221 O.2       10 UNK        -0.5000 
     22 CA          1.4529  -23.0098  -43.3202 C.3       10 UNK         0.1400 
     23 CB          2.9592  -22.7624  -43.4879 C.3       10 UNK        -0.1800 
     24 N           0.8241  -21.8553  -42.6751 N.am      10 UNK        -0.5000 
     25 C          -0.4548  -21.8245  -42.2715 C.2       9 UNK         0.5000 
     26 O          -1.2176  -22.7879  -42.3495 O.2       9 UNK        -0.5000 
     27 CA         -0.9854  -20.4861  -41.7285 C.3       9 UNK         0.1400 
     28 CB         -0.5695  -20.2932  -40.2628 C.3       9 UNK        -0.1800 
     29 N          -0.5508  -19.3369  -42.5248 N.am      9 UNK        -0.5000 
     30 C          -0.8955  -19.1199  -43.8028 C.2       8 UNK         0.5000 
     31 O          -1.6522  -19.8519  -44.4395 O.2       8 UNK        -0.5000 
     32 CA         -0.2379  -17.9210  -44.5120 C.3       8 UNK         0.1400 
     33 CB         -0.9214  -16.5994  -44.1342 C.3       8 UNK        -0.1800 
     34 N           1.1945  -17.8296  -44.2355 N.am      8 UNK        -0.5000 
     35 C           2.0964  -18.7598  -44.5777 C.2       7 UNK         0.5000 
     36 O           1.8242  -19.7774  -45.2144 O.2       7 UNK        -0.5000 
     37 CA          3.5332  -18.5404  -44.0787 C.3       7 UNK         0.1400 
     38 CB          4.2974  -17.5823  -45.0048 C.3       7 UNK        -0.1800 
     39 N           3.5560  -18.0309  -42.7075 N.am      7 UNK        -0.5000 
     40 C           3.2278  -18.7561  -41.6290 C.2       6 UNK         0.5000 
     41 O           2.8993  -19.9416  -41.6767 O.2       6 UNK        -0.5000 
     42 CA          3.2307  -18.0220  -40.2754 C.3       6 UNK         0.1400 
     43 CB          4.6542  -17.9402  -39.7045 C.3       6 UNK        -0.1800 
     44 N           2.6621  -16.6756  -40.3613 N.am      6 UNK        -0.5000 
     45 C           1.3739  -16.4193  -40.6269 C.2       5 UNK         0.5000 
     46 O           0.5271  -17.2932  -40.8047 O.2       5 UNK        -0.5000 
     47 CA          0.9673  -14.9411  -40.7599 C.3       5 UNK         0.1400 
     48 CB          0.6217  -14.3493  -39.3858 C.3       5 UNK        -0.1800 
     49 N           1.9637  -14.0900  -41.4147 N.am      5 UNK        -0.5000 
     50 C           2.4806  -14.2900  -42.6344 C.2       4 UNK         0.5000 
     51 O           2.2744  -15.3009  -43.3075 O.2       4 UNK        -0.5000 
     52 CA          3.3151  -13.1302  -43.2034 C.3       4 UNK         0.1400 
     53 CB          4.0830  -13.5175  -44.4799 C.3       4 UNK        -0.1800 
     54 N           2.4049  -12.0292  -43.5053 N.am      4 UNK        -0.5000 
     55 C           2.0812  -11.0435  -42.6558 C.2       3 UNK         0.5000 
     56 O           2.6350  -10.8754  -41.5686 O.2       3 UNK        -0.5000 
     57 CA          0.9103  -10.1224  -43.0581 C.3       3 UNK         0.1400 
     58 CB          1.4316   -8.8793  -43.7936 C.3       3 UNK        -0.1800 
     59 N          -0.0850  -10.7950  -43.8958 N.am      3 UNK        -0.5000 
     60 C          -0.8420  -11.8333  -43.5051 C.2       2 UNK         0.5000 
     61 O          -0.8790  -12.2486  -42.3467 O.2       2 UNK        -0.5000 
     62 CA         -1.6763  -12.5538  -44.5860 C.3       2 UNK         0.1400 
     63 CB         -3.1590  -12.1709  -44.4667 C.3       2 UNK        -0.1800 
     64 N          -1.2334  -12.2996  -45.9594 N.am      2 UNK        -0.5000 
     65 C          -0.0248  -12.5856  -46.4673 C.2       1 UNK         0.5000 
     66 O           0.8599  -13.1560  -45.8304 O.2       1 UNK        -0.5000 
     67 C          -1.6585  -22.9522  -46.5089 C.2       11 UNK         0.5000 
     68 O          -2.0597  -23.8851  -47.2081 O.2       11 UNK        -0.5000 
     69 N          -2.3793  -22.3969  -45.5230 N.am      12 UNK        -0.5000 
     70 CA         -3.7251  -22.8162  -45.1222 C.3       12 UNK         0.1400 
     71 CB         -4.2598  -21.8787  -44.0301 C.3       12 UNK        -0.1800 
     72 C          -3.8021  -24.2859  -44.6731 C.2       12 UNK         0.5000 
     73 O          -4.7580  -24.9767  -45.0269 O.2       12 UNK        -0.5000 
     74 N          -2.7846  -24.7421  -43.9319 N.am      13 UNK        -0.5000 
     75 CA         -2.6288  -26.1352  -43.5194 C.3       13 UNK         0.1400 
     76 CB         -1.5575  -26.2230  -42.4216 C.3       13 UNK        -0.1800 
     77 C          -2.2844  -27.0691  -44.6959 C.2       13 UNK         0.5000 
     78 O          -2.8032  -28.1848  -44.7525 O.2       13 UNK        -0.5000 
     79 N          -1.4103  -26.6066  -45.6002 N.am      14 UNK        -0.5000 
     80 CA         -0.9122  -27.3713  -46.7414 C.3       14 UNK         0.1400 
     81 CB          0.3395  -26.6892  -47.3163 C.3       14 UNK        -0.1800 
     82 C          -1.9606  -27.5912  -47.8450 C.2       14 UNK         0.5000 
     83 O          -2.1238  -28.7271  -48.2944 O.2       14 UNK        -0.5000 
     84 N          -2.6267  -26.5146  -48.2848 N.am      15 UNK        -0.5000 
     85 CA         -3.5284  -26.5471  -49.4429 C.3       15 UNK         0.1400 
     86 CB         -2.7021  -26.5372  -50.7448 C.3       15 UNK        -0.1800 
     87 C          -4.5637  -25.4112  -49.4777 C.2       15 UNK         0.5000 
     88 O          -5.5859  -25.5692  -50.1461 O.2       15 UNK        -0.5000 
     89 N          -4.2846  -24.2864  -48.8031 N.am      16 UNK        -0.5000 
     90 CA         -5.0633  -23.0416  -48.8114 C.3       16 UNK         0.1400 
     91 CB         -6.4582  -23.2427  -48.1830 C.3       16 UNK        -0.1800 
     92 C          -5.1038  -22.3463  -50.1897 C.2       16 UNK         0.5000 
     93 O          -6.0591  -21.6312  -50.4936 O.2       16 UNK        -0.5000 
     94 N          -4.0444  -22.5415  -50.9811 N.am      17 UNK        -0.5000 
     95 CA         -3.8221  -21.9317  -52.2841 C.3       17 UNK         0.1400 
     96 CB         -4.4862  -22.7775  -53.3829 C.3       17 UNK        -0.1800 
     97 C          -2.3064  -21.8410  -52.4848 C.2       17 UNK         0.5000 
     98 O          -1.6347  -22.8745  -52.4508 O.2       17 UNK        -0.5000 
     99 N          -1.7891  -20.6206  -52.6699 N.am      18 UNK        -0.5000 
    100 CA        -0.3653  -20.3668  -52.9105 C.3       18 UNK         0.1400 
    101 CB        -0.0557  -18.8938  -52.6104 C.3       18 UNK        -0.1800 
    102 C          0.0671  -20.7262  -54.3437 C.2       18 UNK         0.5000 
    103 O          1.2416  -21.0166  -54.5744 O.2       18 UNK        -0.5000 
    104 N         -0.8918  -20.7068  -55.2728 N.am      19 UNK        -0.5000 
    105 CA        -0.7554  -21.0731  -56.6730 C.3       19 UNK         0.1400 
    106 CB        -0.1680  -19.8913  -57.4664 C.3       19 UNK        -0.1800 
    107 C         -2.1489  -21.4463  -57.1925 C.2       19 UNK         0.5000 
    108 O         -3.1526  -21.1099  -56.5559 O.2       19 UNK        -0.5000 
    109 N         -2.1954  -22.0825  -58.3704 N.am      20 UNK        -0.5000 
    110 CA        -3.4251  -22.4785  -59.0702 C.3       20 UNK         0.1400 
    111 CB        -3.0488  -23.2560  -60.3406 C.3       20 UNK        -0.1800 
    112 C         -4.3624  -21.3011  -59.4155 C.2       20 UNK         0.5000 
    113 O         -5.5647  -21.5092  -59.5783 O.2       20 UNK        -0.5000 
    114 N         -3.8015  -20.0852  -59.4720 N.am      21 UNK        -0.5000 
    115 CA        -4.5070  -18.8156  -59.6370 C.3       21 UNK         0.1400 
    116 CB        -3.4669  -17.7033  -59.8444 C.3       21 UNK        -0.1800 
    117 C         -5.4529  -18.4534  -58.4713 C.2       21 UNK         0.5000 
    118 O         -6.3431  -17.6262  -58.6755 O.2       21 UNK        -0.5000 
    119 N         -5.2650  -19.0584  -57.2888 N.am      22 UNK        -0.5000 
    120 CA        -6.1211  -18.8568  -56.1081 C.3       22 UNK         0.1400 
    121 C         -6.5570  -20.1736  -55.4041 C.2       22 UNK         0.5000 
    122 N         -6.3963  -21.3358  -56.0252 N.am      22 UNK        -0.7600 
    123 O         -7.0894  -20.1425  -54.2984 O.2       22 UNK        -0.5000 
    124 C124       -5.5725  -17.7557  -55.1612 C.3       23 UNK        -0.0398 
    125 S125       -4.1303  -18.2175  -54.1307 S.3       23 UNK        -0.2404 
    126 C126       -4.7232  -17.6021  -52.5210 C.3       23 UNK        -0.0205 
    127 H127       -2.3879   -8.4799  -47.7250 H         1 UNK         0.0600 
    128 H128       -2.1950   -9.2523  -49.3017 H         1 UNK         0.0600 
    129 H129       -1.1210   -7.9326  -48.8283 H         1 UNK         0.0600 
    130 H130       -1.2157  -11.2573  -49.1452 H         1 UNK         0.3000 
    131 H131        1.2734  -11.6653  -47.8632 H         1 UNK         0.0600 
    132 H132        0.7013  -12.9014  -49.8744 H         1 UNK         0.0800 
    133 H133        1.0772  -14.0030  -48.5818 H         1 UNK         0.0800 
    134 H134        0.2460  -15.8434  -49.9828 H         1 UNK         0.0800 
    135 H135       -0.5356  -15.0179  -51.3097 H         1 UNK         0.0800 
    136 H136       -2.7486  -15.7696  -52.1116 H         1 UNK         0.1150 
    137 H137       -4.3114  -19.4442  -50.5532 H         1 UNK         0.1150 
    138 H138       -0.9314  -17.5938  -48.6817 H         1 UNK         0.1150 
    139 H139       -2.3577  -19.3767  -47.5215 H         1 UNK         0.0800 
    140 H140       -3.4823  -20.3061  -48.4637 H         1 UNK         0.0800 
    141 H141       -0.4824  -20.2419  -46.8085 H         1 UNK         0.0800 
    142 H142        0.8245  -20.8263  -47.7760 H         1 UNK         0.0800 
    143 H143        0.2853  -23.1319  -47.3622 H         1 UNK         0.0600 
    144 H144        0.8353  -21.3954  -45.2076 H         1 UNK         0.3000 
    145 H145        1.3232  -23.8707  -42.6610 H         1 UNK         0.0600 
    146 H146        3.4401  -22.5958  -42.5240 H         1 UNK         0.0600 
    147 H147        3.4463  -23.6218  -43.9502 H         1 UNK         0.0600 
    148 H148        3.1596  -21.8943  -44.1156 H         1 UNK         0.0600 
    149 H149        1.4082  -21.0383  -42.5302 H         1 UNK         0.3000 
    150 H150       -2.0758  -20.5225  -41.7670 H         1 UNK         0.0600 
    151 H151       -0.8830  -21.1407  -39.6520 H         1 UNK         0.0600 
    152 H152       -1.0283  -19.4002  -39.8384 H         1 UNK         0.0600 
    153 H153        0.5116  -20.1948  -40.1602 H         1 UNK         0.0600 
    154 H154        0.0359  -18.6560  -42.0502 H         1 UNK         0.3000 
    155 H155       -0.3572  -18.0637  -45.5878 H         1 UNK         0.0600 
    156 H156       -0.4670  -15.7608  -44.6628 H         1 UNK         0.0600 
    157 H157       -1.9797  -16.6181  -44.3967 H         1 UNK         0.0600 
    158 H158       -0.8505  -16.3990  -43.0655 H         1 UNK         0.0600 
    159 H159        1.5197  -16.9950  -43.7541 H         1 UNK         0.3000 
    160 H160        4.0454  -19.5047  -44.0938 H         1 UNK         0.0600 
    161 H161        3.8218  -16.6029  -45.0586 H         1 UNK         0.0600 
    162 H162        4.3416  -17.9785  -46.0200 H         1 UNK         0.0600 
    163 H163        5.3236  -17.4396  -44.6663 H         1 UNK         0.0600 
    164 H164        3.7306  -17.0426  -42.5950 H         1 UNK         0.3000 
    165 H165        2.6196  -18.6038  -39.5819 H         1 UNK         0.0600 
    166 H166        4.6547  -17.4952  -38.7093 H         1 UNK         0.0600 
    167 H167        5.0959  -18.9337  -39.6152 H         1 UNK         0.0600 
    168 H168        5.3112  -17.3445  -40.3394 H         1 UNK         0.0600 
    169 H169        3.2936  -15.8982  -40.2364 H         1 UNK         0.3000 
    170 H170        0.0666  -14.9067  -41.3755 H         1 UNK         0.0600 
    171 H171       -0.1347  -14.9508  -38.8798 H         1 UNK         0.0600 
    172 H172        1.4958  -14.3033  -38.7352 H         1 UNK         0.0600 
    173 H173        0.2202  -13.3402  -39.4829 H         1 UNK         0.0600 
    174 H174        2.1706  -13.2139  -40.9547 H         1 UNK         0.3000 
    175 H175        4.0457  -12.8304  -42.4494 H         1 UNK         0.0600 
    176 H176        4.7828  -14.3296  -44.2805 H         1 UNK         0.0600 
    177 H177        3.4136  -13.8487  -45.2746 H         1 UNK         0.0600 
    178 H178        4.6612  -12.6757  -44.8607 H         1 UNK         0.0600 
    179 H179        1.8458  -12.1531  -44.3431 H         1 UNK         0.3000 
    180 H180        0.4140   -9.7970  -42.1416 H         1 UNK         0.0600 
    181 H181        1.9290   -9.1446  -44.7276 H         1 UNK         0.0600 
    182 H182        2.1509   -8.3348  -43.1805 H         1 UNK         0.0600 
    183 H183        0.6197   -8.1916  -44.0312 H         1 UNK         0.0600 
    184 H184       -0.1280  -10.5015  -44.8643 H         1 UNK         0.3000 
    185 H185       -1.5834  -13.6251  -44.4019 H         1 UNK         0.0600 
    186 H186       -3.7716  -12.7409  -45.1655 H         1 UNK         0.0600 
    187 H187       -3.5370  -12.3759  -43.4642 H         1 UNK         0.0600 
    188 H188       -3.3170  -11.1103  -44.6669 H         1 UNK         0.0600 
    189 H189       -1.8892  -11.8231  -46.5608 H         1 UNK         0.3000 
    190 H190       -1.9906  -21.6025  -45.0199 H         1 UNK         0.3000 
    191 H191       -4.3761  -22.7105  -45.9876 H         1 UNK         0.0600 
    192 H192       -3.6449  -21.9135  -43.1314 H         1 UNK         0.0600 
    193 H193       -5.2756  -22.1534  -43.7431 H         1 UNK         0.0600 
    194 H194       -4.2885  -20.8456  -44.3768 H         1 UNK         0.0600 
    195 H195       -2.0675  -24.0895  -43.6303 H         1 UNK         0.3000 
    196 H196       -3.5763  -26.4717  -43.0932 H         1 UNK         0.0600 
    197 H197       -1.4350  -27.2501  -42.0759 H         1 UNK         0.0600 
    198 H198       -1.8302  -25.6180  -41.5566 H         1 UNK         0.0600 
    199 H199       -0.5863  -25.8770  -42.7767 H         1 UNK         0.0600 
    200 H200       -0.9859  -25.6967  -45.4478 H         1 UNK         0.3000 
    201 H201       -0.6106  -28.3553  -46.3759 H         1 UNK         0.0600 
    202 H202        1.1384  -26.6455  -46.5760 H         1 UNK         0.0600 
    203 H203        0.1302  -25.6702  -47.6430 H         1 UNK         0.0600 
    204 H204        0.7252  -27.2377  -48.1766 H         1 UNK         0.0600 
    205 H205       -2.4436  -25.6160  -47.8472 H         1 UNK         0.3000 
    206 H206       -4.1050  -27.4740  -49.4071 H         1 UNK         0.0600 
    207 H207       -2.0622  -27.4162  -50.8201 H         1 UNK         0.0600 
    208 H208       -3.3492  -26.5368  -51.6231 H         1 UNK         0.0600 
    209 H209       -2.0658  -25.6533  -50.8068 H         1 UNK         0.0600 
    210 H210       -3.4165  -24.2312  -48.2750 H         1 UNK         0.3000 
    211 H211       -4.5165  -22.3533  -48.1702 H         1 UNK         0.0600 
    212 H212       -7.1084  -23.8422  -48.8202 H         1 UNK         0.0600 
    213 H213       -6.9548  -22.2853  -48.0215 H         1 UNK         0.0600 
    214 H214       -6.3879  -23.7383  -47.2147 H         1 UNK         0.0600 
    215 H215       -3.2835  -23.1186  -50.6485 H         1 UNK         0.3000 
    216 H216       -4.2510  -20.9286  -52.3102 H         1 UNK         0.0600 
    217 H217       -4.1346  -23.8098  -53.3666 H         1 UNK         0.0600 
    218 H218       -4.2679  -22.3698  -54.3702 H         1 UNK         0.0600 
    219 H219       -5.5700  -22.7898  -53.2670 H         1 UNK         0.0600 
    220 H220       -2.3955  -19.8120  -52.6598 H         1 UNK         0.3000 
    221 H221        0.2222  -20.9815  -52.2249 H         1 UNK         0.0600 
    222 H222       -0.1990  -18.6795  -51.5529 H         1 UNK         0.0600 
    223 H223       -0.6931  -18.2198  -53.1842 H         1 UNK         0.0600 
    224 H224        0.9809  -18.6515  -52.8478 H         1 UNK         0.0600 
    225 H225       -1.8450  -20.5022  -54.9980 H         1 UNK         0.3000 
    226 H226       -0.1051  -21.9459  -56.7604 H         1 UNK         0.0600 
    227 H227        0.8187  -19.6157  -57.0938 H         1 UNK         0.0600 
    228 H228       -0.0541  -20.1405  -58.5219 H         1 UNK         0.0600 
    229 H229       -0.8064  -19.0090  -57.4022 H         1 UNK         0.0600 
    230 H230       -1.3278  -22.3123  -58.8338 H         1 UNK         0.3000 
    231 H231       -3.9790  -23.1483  -58.4092 H         1 UNK         0.0600 
    232 H232       -2.4667  -22.6427  -61.0296 H         1 UNK         0.0600 
    233 H233       -3.9401  -23.5916  -60.8726 H         1 UNK         0.0600 
    234 H234       -2.4625  -24.1435  -60.1017 H         1 UNK         0.0600 
    235 H235       -2.8056  -20.0245  -59.3241 H         1 UNK         0.3000 
    236 H236       -5.1173  -18.8887  -60.5395 H         1 UNK         0.0600 
    237 H237       -2.8430  -17.9026  -60.7159 H         1 UNK         0.0600 
    238 H238       -3.9509  -16.7394  -60.0076 H         1 UNK         0.0600 
    239 H239       -2.8124  -17.5993  -58.9779 H         1 UNK         0.0600 
    240 H240       -4.5051  -19.7208  -57.1692 H         1 UNK         0.3000 
    241 H241       -7.0799  -18.4774  -56.4660 H         1 UNK         0.0600 
    242 H242       -6.6993  -22.1822  -55.5719 H         1 UNK         0.3800 
    243 H243       -5.9981  -21.3752  -56.9497 H         1 UNK         0.3800 
    244 H244       -6.3843  -17.4250  -54.5116 H         1 UNK         0.0800 
    245 H245       -5.3000  -16.8741  -55.7427 H         1 UNK         0.0800 
    246 H246       -5.0927  -16.5819  -52.6364 H         1 UNK         0.0800 
    247 H247       -5.5765  -18.2037  -52.2023 H         1 UNK         0.0800 
@<TRIPOS>BOND
     1    1    2 1    
     2    1  127 1    
     3    1  128 1    
     4    1  129 1    
     5    2    3 2    
     6    2    4 am   BACKBONE|DICT|INTERRES
     7    4    5 1    
     8    4  130 1    
     9    5    6 1    
    10    5   65 1    
    11    5  131 1    
    12    6    7 1    
    13    6  132 1    
    14    6  133 1    
    15    7    8 1    
    16    8    9 1    
    17    8  134 1    
    18    8  135 1    
    19    9   10 ar   
    20    9   14 ar   
    21   10   11 ar   
    22   10  136 1    
    23   11   12 ar   
    24   11  126 1    
    25   12   13 ar   
    26   12  137 1    
    27   13   14 ar   
    28   13   15 1    
    29   14  138 1    
    30   15   16 1    
    31   15  139 1    
    32   15  140 1    
    33   16   17 1    
    34   17   18 1    
    35   17  141 1    
    36   17  142 1    
    37   18   19 1    
    38   18   67 1    
    39   18  143 1    
    40   19   20 am   BACKBONE|DICT|INTERRES
    41   19  144 1    
    42   20   21 2    
    43   20   22 1    
    44   22   23 1    
    45   22   24 1    
    46   22  145 1    
    47   23  146 1    
    48   23  147 1    
    49   23  148 1    
    50   24   25 am   BACKBONE|DICT|INTERRES
    51   24  149 1    
    52   25   26 2    
    53   25   27 1    
    54   27   28 1    
    55   27   29 1    
    56   27  150 1    
    57   28  151 1    
    58   28  152 1    
    59   28  153 1    
    60   29   30 am   BACKBONE|DICT|INTERRES
    61   29  154 1    
    62   30   31 2    
    63   30   32 1    
    64   32   33 1    
    65   32   34 1    
    66   32  155 1    
    67   33  156 1    
    68   33  157 1    
    69   33  158 1    
    70   34   35 am   BACKBONE|DICT|INTERRES
    71   34  159 1    
    72   35   36 2    
    73   35   37 1    
    74   37   38 1    
    75   37   39 1    
    76   37  160 1    
    77   38  161 1    
    78   38  162 1    
    79   38  163 1    
    80   39   40 am   BACKBONE|DICT|INTERRES
    81   39  164 1    
    82   40   41 2    
    83   40   42 1    
    84   42   43 1    
    85   42   44 1    
    86   42  165 1    
    87   43  166 1    
    88   43  167 1    
    89   43  168 1    
    90   44   45 am   BACKBONE|DICT|INTERRES
    91   44  169 1    
    92   45   46 2    
    93   45   47 1    
    94   47   48 1    
    95   47   49 1    
    96   47  170 1    
    97   48  171 1    
    98   48  172 1    
    99   48  173 1    
   100   49   50 am   BACKBONE|DICT|INTERRES
   101   49  174 1    
   102   50   51 2    
   103   50   52 1    
   104   52   53 1    
   105   52   54 1    
   106   52  175 1    
   107   53  176 1    
   108   53  177 1    
   109   53  178 1    
   110   54   55 am   BACKBONE|DICT|INTERRES
   111   54  179 1    
   112   55   56 2    
   113   55   57 1    
   114   57   58 1    
   115   57   59 1    
   116   57  180 1    
   117   58  181 1    
   118   58  182 1    
   119   58  183 1    
   120   59   60 am   BACKBONE|DICT|INTERRES
   121   59  184 1    
   122   60   61 2    
   123   60   62 1    
   124   62   63 1    
   125   62   64 1    
   126   62  185 1    
   127   63  186 1    
   128   63  187 1    
   129   63  188 1    
   130   64   65 am   BACKBONE|DICT|INTERRES
   131   64  189 1    
   132   65   66 2    
   133   67   68 2    
   134   67   69 am   BACKBONE|DICT|INTERRES
   135   69   70 1    
   136   69  190 1    
   137   70   71 1    
   138   70   72 1    
   139   70  191 1    
   140   71  192 1    
   141   71  193 1    
   142   71  194 1    
   143   72   73 2    
   144   72   74 am   BACKBONE|DICT|INTERRES
   145   74   75 1    
   146   74  195 1    
   147   75   76 1    
   148   75   77 1    
   149   75  196 1    
   150   76  197 1    
   151   76  198 1    
   152   76  199 1    
   153   77   78 2    
   154   77   79 am   BACKBONE|DICT|INTERRES
   155   79   80 1    
   156   79  200 1    
   157   80   81 1    
   158   80   82 1    
   159   80  201 1    
   160   81  202 1    
   161   81  203 1    
   162   81  204 1    
   163   82   83 2    
   164   82   84 am   BACKBONE|DICT|INTERRES
   165   84   85 1    
   166   84  205 1    
   167   85   86 1    
   168   85   87 1    
   169   85  206 1    
   170   86  207 1    
   171   86  208 1    
   172   86  209 1    
   173   87   88 2    
   174   87   89 am   BACKBONE|DICT|INTERRES
   175   89   90 1    
   176   89  210 1    
   177   90   91 1    
   178   90   92 1    
   179   90  211 1    
   180   91  212 1    
   181   91  213 1    
   182   91  214 1    
   183   92   93 2    
   184   92   94 am   BACKBONE|DICT|INTERRES
   185   94   95 1    
   186   94  215 1    
   187   95   96 1    
   188   95   97 1    
   189   95  216 1    
   190   96  217 1    
   191   96  218 1    
   192   96  219 1    
   193   97   98 2    
   194   97   99 am   BACKBONE|DICT|INTERRES
   195   99  100 1    
   196   99  220 1    
   197  100  101 1    
   198  100  102 1    
   199  100  221 1    
   200  101  222 1    
   201  101  223 1    
   202  101  224 1    
   203  102  103 2    
   204  102  104 am   BACKBONE|DICT|INTERRES
   205  104  105 1    
   206  104  225 1    
   207  105  106 1    
   208  105  107 1    
   209  105  226 1    
   210  106  227 1    
   211  106  228 1    
   212  106  229 1    
   213  107  108 2    
   214  107  109 am   BACKBONE|DICT|INTERRES
   215  109  110 1    
   216  109  230 1    
   217  110  111 1    
   218  110  112 1    
   219  110  231 1    
   220  111  232 1    
   221  111  233 1    
   222  111  234 1    
   223  112  113 2    
   224  112  114 am   BACKBONE|DICT|INTERRES
   225  114  115 1    
   226  114  235 1    
   227  115  116 1    
   228  115  117 1    
   229  115  236 1    
   230  116  237 1    
   231  116  238 1    
   232  116  239 1    
   233  117  118 2    
   234  117  119 am   BACKBONE|DICT|INTERRES
   235  119  120 1    
   236  119  240 1    
   237  120  121 1    
   238  120  124 1    
   239  120  241 1    
   240  121  122 am   BACKBONE|DICT|INTERRES
   241  121  123 2    
   242  122  242 1    
   243  122  243 1    
   244  124  125 1    
   245  124  244 1    
   246  124  245 1    
   247  125  126 1    
   248  126  246 1    
   249  126  247 1    
@<TRIPOS>SUBSTRUCTURE
     1 UNK         1 GROUP             0       ****    0 ROOT    
