@<TRIPOS>MOLECULE
3R540
247   249    1
SMALL
USER_CHARGES


@<TRIPOS>ATOM
      1 CA          4.0026  -17.6566  -45.2339 C.3       0 UNK        -0.1800 
      2 C           3.4329  -16.5176  -46.0651 C.2       0 UNK         0.5000 
      3 O           4.1795  -15.8171  -46.7476 O.2       0 UNK        -0.5000 
      4 N           2.1100  -16.3272  -45.9997 N.am      1 UNK        -0.5000 
      5 CA          1.2933  -15.3503  -46.7288 C.3       1 UNK         0.1400 
      6 C6          1.4499  -15.4339  -48.2730 C.3       23 UNK        -0.0398 
      7 S7         -0.1230  -15.1043  -49.1363 S.3       23 UNK        -0.2404 
      8 C8         -0.6365  -16.7911  -49.5897 C.3       23 UNK        -0.0205 
      9 C9         -2.1397  -16.8694  -49.7912 C.ar      23 UNK        -0.0193 
     10 C10        -2.6983  -16.6678  -51.0551 C.ar      23 UNK        -0.1150 
     11 C11        -4.0835  -16.7244  -51.2337 C.ar      23 UNK        -0.0193 
     12 C12        -4.9062  -16.9877  -50.1336 C.ar      23 UNK        -0.1150 
     13 C13        -4.3654  -17.1745  -48.8570 C.ar      23 UNK        -0.0193 
     14 C14        -2.9742  -17.1205  -48.6994 C.ar      23 UNK        -0.1150 
     15 C15        -5.3234  -17.3443  -47.6755 C.3       23 UNK        -0.0205 
     16 S16        -4.5831  -18.0077  -46.1417 S.3       23 UNK        -0.2404 
     17 C17        -4.8159  -19.8033  -46.3543 C.3       23 UNK        -0.0398 
     18 CA         -3.6766  -20.4939  -47.1388 C.3       11 UNK         0.1400 
     19 N          -2.3433  -20.2650  -46.5714 N.am      11 UNK        -0.5000 
     20 C          -1.2048  -20.6560  -47.1650 C.2       10 UNK         0.5000 
     21 O          -1.1703  -21.1939  -48.2722 O.2       10 UNK        -0.5000 
     22 CA          0.1131  -20.4818  -46.3913 C.3       10 UNK         0.1400 
     23 CB          0.8845  -19.2695  -46.9172 C.3       10 UNK        -0.1800 
     24 N          -0.0588  -20.3614  -44.9435 N.am      10 UNK        -0.5000 
     25 C          -0.5054  -21.3420  -44.1432 C.2       9 UNK         0.5000 
     26 O          -0.8267  -22.4595  -44.5500 O.2       9 UNK        -0.5000 
     27 CA         -0.6859  -20.9927  -42.6523 C.3       9 UNK         0.1400 
     28 CB          0.6136  -21.2670  -41.8844 C.3       9 UNK        -0.1800 
     29 N          -1.0909  -19.6000  -42.4402 N.am      9 UNK        -0.5000 
     30 C          -2.2107  -19.0579  -42.9421 C.2       8 UNK         0.5000 
     31 O          -3.0623  -19.7163  -43.5381 O.2       8 UNK        -0.5000 
     32 CA         -2.4079  -17.5347  -42.8105 C.3       8 UNK         0.1400 
     33 CB         -3.5148  -17.2231  -41.7921 C.3       8 UNK        -0.1800 
     34 N          -1.2105  -16.7700  -42.4531 N.am      8 UNK        -0.5000 
     35 C          -0.0629  -16.7051  -43.1417 C.2       7 UNK         0.5000 
     36 O           0.1714  -17.3659  -44.1573 O.2       7 UNK        -0.5000 
     37 CA          1.0250  -15.7547  -42.6011 C.3       7 UNK         0.1400 
     38 CB          0.5787  -14.8871  -41.4035 C.3       7 UNK        -0.1800 
     39 N           2.2663  -16.4548  -42.2673 N.am      7 UNK        -0.5000 
     40 C           2.4210  -17.4959  -41.4328 C.2       6 UNK         0.5000 
     41 O           1.4838  -18.0987  -40.9070 O.2       6 UNK        -0.5000 
     42 CA          3.8696  -17.9318  -41.1129 C.3       6 UNK         0.1400 
     43 CB          4.1756  -19.3195  -41.6976 C.3       6 UNK        -0.1800 
     44 N           4.8917  -16.9821  -41.5713 N.am      6 UNK        -0.5000 
     45 C           5.1203  -15.7827  -41.0173 C.2       5 UNK         0.5000 
     46 O           4.5117  -15.3801  -40.0232 O.2       5 UNK        -0.5000 
     47 CA          6.1792  -14.8809  -41.6914 C.3       5 UNK         0.1400 
     48 CB          6.3926  -15.1947  -43.1861 C.3       5 UNK        -0.1800 
     49 N           5.7773  -13.4819  -41.5790 N.am      5 UNK        -0.5000 
     50 C           6.0994  -12.6560  -40.5716 C.2       4 UNK         0.5000 
     51 O           6.8920  -12.9438  -39.6737 O.2       4 UNK        -0.5000 
     52 CA          5.4026  -11.2848  -40.5521 C.3       4 UNK         0.1400 
     53 CB          6.2635  -10.2329  -41.2774 C.3       4 UNK        -0.1800 
     54 N           4.0820  -11.3884  -41.1680 N.am      4 UNK        -0.5000 
     55 C           3.0975  -10.4898  -41.1587 C.2       3 UNK         0.5000 
     56 O           3.1609   -9.4041  -40.5791 O.2       3 UNK        -0.5000 
     57 CA          1.8445  -10.8856  -41.9715 C.3       3 UNK         0.1400 
     58 CB          0.7247   -9.8330  -41.8896 C.3       3 UNK        -0.1800 
     59 N           2.1601  -11.1290  -43.3836 N.am      3 UNK        -0.5000 
     60 C           2.7816  -12.2051  -43.8834 C.2       2 UNK         0.5000 
     61 O           3.1800  -13.1527  -43.1975 O.2       2 UNK        -0.5000 
     62 CA          3.0632  -12.1943  -45.3946 C.3       2 UNK         0.1400 
     63 CB          4.5528  -11.9220  -45.6530 C.3       2 UNK        -0.1800 
     64 N           2.7018  -13.4693  -46.0057 N.am      2 UNK        -0.5000 
     65 C           1.4528  -13.9137  -46.1868 C.2       1 UNK         0.5000 
     66 O           0.4506  -13.2540  -45.9092 O.2       1 UNK        -0.5000 
     67 C          -3.9781  -22.0003  -47.2802 C.2       11 UNK         0.5000 
     68 O          -4.6207  -22.3998  -48.2495 O.2       11 UNK        -0.5000 
     69 N          -3.4802  -22.8067  -46.3337 N.am      12 UNK        -0.5000 
     70 CA         -3.5638  -24.2622  -46.3658 C.3       12 UNK         0.1400 
     71 CB         -3.7360  -24.7895  -44.9327 C.3       12 UNK        -0.1800 
     72 C          -2.3171  -24.8748  -47.0234 C.2       12 UNK         0.5000 
     73 O          -2.4542  -25.7461  -47.8812 O.2       12 UNK        -0.5000 
     74 N          -1.1262  -24.4269  -46.6016 N.am      13 UNK        -0.5000 
     75 CA          0.1496  -25.0524  -46.9519 C.3       13 UNK         0.1400 
     76 CB          1.2290  -24.5955  -45.9582 C.3       13 UNK        -0.1800 
     77 C           0.6137  -24.8076  -48.3987 C.2       13 UNK         0.5000 
     78 O           1.2869  -25.6771  -48.9543 O.2       13 UNK        -0.5000 
     79 N           0.2781  -23.6452  -48.9745 N.am      14 UNK        -0.5000 
     80 CA          0.7162  -23.2403  -50.3111 C.3       14 UNK         0.1400 
     81 CB          1.5118  -21.9262  -50.2226 C.3       14 UNK        -0.1800 
     82 C          -0.4740  -23.1024  -51.2687 C.2       14 UNK         0.5000 
     83 O          -0.4457  -23.6883  -52.3510 O.2       14 UNK        -0.5000 
     84 N          -1.4947  -22.3317  -50.8673 N.am      15 UNK        -0.5000 
     85 CA         -2.6533  -22.0274  -51.7096 C.3       15 UNK         0.1400 
     86 CB         -3.3262  -20.7390  -51.2136 C.3       15 UNK        -0.1800 
     87 C          -3.6780  -23.1710  -51.7900 C.2       15 UNK         0.5000 
     88 O          -4.4373  -23.2175  -52.7595 O.2       15 UNK        -0.5000 
     89 N          -3.6949  -24.0509  -50.7774 N.am      16 UNK        -0.5000 
     90 CA         -4.5922  -25.2019  -50.6204 C.3       16 UNK         0.1400 
     91 CB         -4.2583  -26.2840  -51.6688 C.3       16 UNK        -0.1800 
     92 C          -6.0812  -24.7973  -50.6279 C.2       16 UNK         0.5000 
     93 O          -6.8780  -25.3836  -51.3585 O.2       16 UNK        -0.5000 
     94 N          -6.4197  -23.7519  -49.8592 N.am      17 UNK        -0.5000 
     95 CA         -7.7280  -23.0840  -49.8088 C.3       17 UNK         0.1400 
     96 CB         -8.8021  -24.0137  -49.2069 C.3       17 UNK        -0.1800 
     97 C          -8.1343  -22.4865  -51.1752 C.2       17 UNK         0.5000 
     98 O          -9.3096  -22.5047  -51.5429 O.2       17 UNK        -0.5000 
     99 N          -7.1223  -21.9940  -51.9034 N.am      18 UNK        -0.5000 
    100 CA        -7.1430  -21.4615  -53.2682 C.3       18 UNK         0.1400 
    101 CB        -8.1098  -20.2679  -53.4037 C.3       18 UNK        -0.1800 
    102 C         -7.3523  -22.5264  -54.3668 C.2       18 UNK         0.5000 
    103 O         -7.4805  -22.1545  -55.5342 O.2       18 UNK        -0.5000 
    104 N         -7.3238  -23.8250  -54.0227 N.am      19 UNK        -0.5000 
    105 CA        -7.4061  -24.9291  -54.9868 C.3       19 UNK         0.1400 
    106 CB        -7.6878  -26.2507  -54.2584 C.3       19 UNK        -0.1800 
    107 C         -6.1450  -25.0581  -55.8632 C.2       19 UNK         0.5000 
    108 O         -6.2427  -25.5508  -56.9873 O.2       19 UNK        -0.5000 
    109 N         -4.9983  -24.5755  -55.3619 N.am      20 UNK        -0.5000 
    110 CA        -3.7438  -24.4551  -56.1100 C.3       20 UNK         0.1400 
    111 CB        -2.5642  -24.6934  -55.1518 C.3       20 UNK        -0.1800 
    112 C         -3.6242  -23.0893  -56.8223 C.2       20 UNK         0.5000 
    113 O         -2.5240  -22.7145  -57.2328 O.2       20 UNK        -0.5000 
    114 N         -4.7384  -22.3430  -56.9168 N.am      21 UNK        -0.5000 
    115 CA        -4.8827  -21.0109  -57.5191 C.3       21 UNK         0.1400 
    116 CB        -4.6698  -21.0828  -59.0454 C.3       21 UNK        -0.1800 
    117 C         -4.0064  -19.9326  -56.8464 C.2       21 UNK         0.5000 
    118 O         -3.6639  -18.9349  -57.4831 O.2       21 UNK        -0.5000 
    119 N         -3.6477  -20.1689  -55.5764 N.am      22 UNK        -0.5000 
    120 CA        -2.7092  -19.3678  -54.7733 C.3       22 UNK         0.1400 
    121 C         -1.2345  -19.4080  -55.2835 C.2       22 UNK         0.5000 
    122 N         -0.8459  -20.3679  -56.1170 N.am      22 UNK        -0.7600 
    123 O         -0.4161  -18.5795  -54.8947 O.2       22 UNK        -0.5000 
    124 C124       -3.2231  -17.9305  -54.4864 C.3       23 UNK        -0.0398 
    125 S125       -4.8379  -17.9290  -53.6295 S.3       23 UNK        -0.2404 
    126 C126       -4.7028  -16.4381  -52.5951 C.3       23 UNK        -0.0205 
    127 H127        4.7989  -17.2950  -44.5865 H         1 UNK         0.0600 
    128 H128        4.4176  -18.4237  -45.8875 H         1 UNK         0.0600 
    129 H129        3.2356  -18.1183  -44.6124 H         1 UNK         0.0600 
    130 H130        1.5640  -16.9104  -45.3709 H         1 UNK         0.3000 
    131 H131        0.2730  -15.6501  -46.4822 H         1 UNK         0.0600 
    132 H132        1.7996  -16.4244  -48.5672 H         1 UNK         0.0800 
    133 H133        2.2116  -14.7422  -48.6374 H         1 UNK         0.0800 
    134 H134       -0.1108  -17.1029  -50.4936 H         1 UNK         0.0800 
    135 H135       -0.3473  -17.4917  -48.8080 H         1 UNK         0.0800 
    136 H136       -2.0518  -16.4423  -51.8903 H         1 UNK         0.1150 
    137 H137       -5.9789  -17.0106  -50.2669 H         1 UNK         0.1150 
    138 H138       -2.5265  -17.2423  -47.7241 H         1 UNK         0.1150 
    139 H139       -5.7348  -16.3611  -47.4440 H         1 UNK         0.0800 
    140 H140       -6.1719  -17.9636  -47.9695 H         1 UNK         0.0800 
    141 H141       -5.7762  -19.9766  -46.8432 H         1 UNK         0.0800 
    142 H142       -4.9098  -20.2409  -45.3592 H         1 UNK         0.0800 
    143 H143       -3.6698  -20.0662  -48.1416 H         1 UNK         0.0600 
    144 H144       -2.3144  -19.8566  -45.6460 H         1 UNK         0.3000 
    145 H145        0.7171  -21.3692  -46.5853 H         1 UNK         0.0600 
    146 H146        1.8640  -19.2003  -46.4471 H         1 UNK         0.0600 
    147 H147        1.0493  -19.3420  -47.9928 H         1 UNK         0.0600 
    148 H148        0.3424  -18.3443  -46.7243 H         1 UNK         0.0600 
    149 H149        0.1252  -19.4496  -44.5393 H         1 UNK         0.3000 
    150 H150       -1.4703  -21.6368  -42.2500 H         1 UNK         0.0600 
    151 H151        0.9099  -22.3127  -41.9776 H         1 UNK         0.0600 
    152 H152        0.5002  -21.0525  -40.8216 H         1 UNK         0.0600 
    153 H153        1.4334  -20.6576  -42.2647 H         1 UNK         0.0600 
    154 H154       -0.4296  -18.9985  -41.9646 H         1 UNK         0.3000 
    155 H155       -2.7353  -17.1762  -43.7882 H         1 UNK         0.0600 
    156 H156       -3.2319  -17.5319  -40.7850 H         1 UNK         0.0600 
    157 H157       -3.7412  -16.1570  -41.7674 H         1 UNK         0.0600 
    158 H158       -4.4397  -17.7424  -42.0476 H         1 UNK         0.0600 
    159 H159       -1.2802  -16.2173  -41.6112 H         1 UNK         0.3000 
    160 H160        1.2641  -15.0777  -43.4206 H         1 UNK         0.0600 
    161 H161        0.3157  -15.4890  -40.5329 H         1 UNK         0.0600 
    162 H162       -0.2802  -14.2657  -41.6606 H         1 UNK         0.0600 
    163 H163        1.3799  -14.2131  -41.1001 H         1 UNK         0.0600 
    164 H164        3.1050  -16.0364  -42.6401 H         1 UNK         0.3000 
    165 H165        3.9441  -18.0067  -40.0260 H         1 UNK         0.0600 
    166 H166        5.1913  -19.6338  -41.4564 H         1 UNK         0.0600 
    167 H167        3.5039  -20.0714  -41.2830 H         1 UNK         0.0600 
    168 H168        4.0665  -19.3415  -42.7812 H         1 UNK         0.0600 
    169 H169        5.4426  -17.2619  -42.3693 H         1 UNK         0.3000 
    170 H170        7.1251  -15.0405  -41.1702 H         1 UNK         0.0600 
    171 H171        5.4658  -15.1035  -43.7543 H         1 UNK         0.0600 
    172 H172        7.1139  -14.5065  -43.6273 H         1 UNK         0.0600 
    173 H173        6.7880  -16.1998  -43.3358 H         1 UNK         0.0600 
    174 H174        5.1122  -13.1758  -42.2758 H         1 UNK         0.3000 
    175 H175        5.2759  -10.9886  -39.5089 H         1 UNK         0.0600 
    176 H176        5.8358   -9.2344  -41.1891 H         1 UNK         0.0600 
    177 H177        6.3641  -10.4615  -42.3391 H         1 UNK         0.0600 
    178 H178        7.2674  -10.1903  -40.8530 H         1 UNK         0.0600 
    179 H179        3.8857  -12.2556  -41.6568 H         1 UNK         0.3000 
    180 H180        1.4586  -11.8103  -41.5384 H         1 UNK         0.0600 
    181 H181        1.0354   -8.8791  -42.3174 H         1 UNK         0.0600 
    182 H182        0.4335   -9.6508  -40.8543 H         1 UNK         0.0600 
    183 H183       -0.1672  -10.1649  -42.4215 H         1 UNK         0.0600 
    184 H184        1.9066  -10.3853  -44.0179 H         1 UNK         0.3000 
    185 H185        2.4762  -11.4043  -45.8678 H         1 UNK         0.0600 
    186 H186        5.1855  -12.7001  -45.2232 H         1 UNK         0.0600 
    187 H187        4.7645  -11.8717  -46.7212 H         1 UNK         0.0600 
    188 H188        4.8590  -10.9708  -45.2155 H         1 UNK         0.0600 
    189 H189        3.4606  -14.1069  -46.2282 H         1 UNK         0.3000 
    190 H190       -2.9282  -22.4008  -45.5898 H         1 UNK         0.3000 
    191 H191       -4.4376  -24.5742  -46.9423 H         1 UNK         0.0600 
    192 H192       -4.6535  -24.4095  -44.4832 H         1 UNK         0.0600 
    193 H193       -3.7956  -25.8786  -44.9217 H         1 UNK         0.0600 
    194 H194       -2.9044  -24.4988  -44.2893 H         1 UNK         0.0600 
    195 H195       -1.0906  -23.7140  -45.8766 H         1 UNK         0.3000 
    196 H196        0.0317  -26.1318  -46.8322 H         1 UNK         0.0600 
    197 H197        2.1778  -25.0965  -46.1540 H         1 UNK         0.0600 
    198 H198        0.9449  -24.8290  -44.9319 H         1 UNK         0.0600 
    199 H199        1.4078  -23.5226  -46.0191 H         1 UNK         0.0600 
    200 H200       -0.3055  -22.9861  -48.4727 H         1 UNK         0.3000 
    201 H201        1.3839  -23.9893  -50.7419 H         1 UNK         0.0600 
    202 H202        2.3753  -22.0338  -49.5662 H         1 UNK         0.0600 
    203 H203        0.9081  -21.1012  -49.8458 H         1 UNK         0.0600 
    204 H204        1.8847  -21.6326  -51.2046 H         1 UNK         0.0600 
    205 H205       -1.4402  -21.8654  -49.9642 H         1 UNK         0.3000 
    206 H206       -2.2953  -21.8516  -52.7253 H         1 UNK         0.0600 
    207 H207       -3.7619  -20.8716  -50.2267 H         1 UNK         0.0600 
    208 H208       -2.6185  -19.9112  -51.1602 H         1 UNK         0.0600 
    209 H209       -4.1327  -20.4345  -51.8812 H         1 UNK         0.0600 
    210 H210       -3.0422  -23.9011  -50.0217 H         1 UNK         0.3000 
    211 H211       -4.3990  -25.6239  -49.6346 H         1 UNK         0.0600 
    212 H212       -4.4683  -25.9458  -52.6837 H         1 UNK         0.0600 
    213 H213       -4.8442  -27.1878  -51.4980 H         1 UNK         0.0600 
    214 H214       -3.2063  -26.5651  -51.6213 H         1 UNK         0.0600 
    215 H215       -5.6902  -23.3119  -49.2967 H         1 UNK         0.3000 
    216 H216       -7.6095  -22.2372  -49.1312 H         1 UNK         0.0600 
    217 H217       -9.7341  -23.4737  -49.0366 H         1 UNK         0.0600 
    218 H218       -8.4808  -24.4158  -48.2462 H         1 UNK         0.0600 
    219 H219       -9.0283  -24.8539  -49.8640 H         1 UNK         0.0600 
    220 H220       -6.1969  -22.0970  -51.5124 H         1 UNK         0.3000 
    221 H221       -6.1383  -21.0716  -53.4372 H         1 UNK         0.0600 
    222 H222       -9.1529  -20.5776  -53.3391 H         1 UNK         0.0600 
    223 H223       -7.9280  -19.5238  -52.6282 H         1 UNK         0.0600 
    224 H224       -7.9787  -19.7683  -54.3643 H         1 UNK         0.0600 
    225 H225       -7.1877  -24.0813  -53.0516 H         1 UNK         0.3000 
    226 H226       -8.2499  -24.7285  -55.6504 H         1 UNK         0.0600 
    227 H227       -8.5475  -26.1642  -53.5937 H         1 UNK         0.0600 
    228 H228       -7.9057  -27.0464  -54.9716 H         1 UNK         0.0600 
    229 H229       -6.8318  -26.5745  -53.6660 H         1 UNK         0.0600 
    230 H230       -4.9994  -24.1747  -54.4279 H         1 UNK         0.3000 
    231 H231       -3.7038  -25.2256  -56.8823 H         1 UNK         0.0600 
    232 H232       -2.4503  -23.8771  -54.4393 H         1 UNK         0.0600 
    233 H233       -1.6254  -24.7742  -55.7008 H         1 UNK         0.0600 
    234 H234       -2.6885  -25.6175  -54.5874 H         1 UNK         0.0600 
    235 H235       -5.5916  -22.7181  -56.5212 H         1 UNK         0.3000 
    236 H236       -5.9160  -20.7080  -57.3447 H         1 UNK         0.0600 
    237 H237       -5.3039  -21.8464  -59.4958 H         1 UNK         0.0600 
    238 H238       -4.9200  -20.1342  -59.5218 H         1 UNK         0.0600 
    239 H239       -3.6347  -21.3129  -59.2994 H         1 UNK         0.0600 
    240 H240       -3.9759  -21.0215  -55.1496 H         1 UNK         0.3000 
    241 H241       -2.6574  -19.8690  -53.8101 H         1 UNK         0.0600 
    242 H242       -1.4942  -21.0702  -56.4548 H         1 UNK         0.3800 
    243 H243        0.1115  -20.3878  -56.4299 H         1 UNK         0.3800 
    244 H244       -2.5019  -17.3943  -53.8717 H         1 UNK         0.0800 
    245 H245       -3.3136  -17.3555  -55.4084 H         1 UNK         0.0800 
    246 H246       -4.1313  -15.6699  -53.1185 H         1 UNK         0.0800 
    247 H247       -5.7027  -16.0227  -52.4613 H         1 UNK         0.0800 
@<TRIPOS>BOND
     1    1    2 1    
     2    1  127 1    
     3    1  128 1    
     4    1  129 1    
     5    2    3 2    
     6    2    4 am   BACKBONE|DICT|INTERRES
     7    4    5 1    
     8    4  130 1    
     9    5    6 1    
    10    5   65 1    
    11    5  131 1    
    12    6    7 1    
    13    6  132 1    
    14    6  133 1    
    15    7    8 1    
    16    8    9 1    
    17    8  134 1    
    18    8  135 1    
    19    9   10 ar   
    20    9   14 ar   
    21   10   11 ar   
    22   10  136 1    
    23   11   12 ar   
    24   11  126 1    
    25   12   13 ar   
    26   12  137 1    
    27   13   14 ar   
    28   13   15 1    
    29   14  138 1    
    30   15   16 1    
    31   15  139 1    
    32   15  140 1    
    33   16   17 1    
    34   17   18 1    
    35   17  141 1    
    36   17  142 1    
    37   18   19 1    
    38   18   67 1    
    39   18  143 1    
    40   19   20 am   BACKBONE|DICT|INTERRES
    41   19  144 1    
    42   20   21 2    
    43   20   22 1    
    44   22   23 1    
    45   22   24 1    
    46   22  145 1    
    47   23  146 1    
    48   23  147 1    
    49   23  148 1    
    50   24   25 am   BACKBONE|DICT|INTERRES
    51   24  149 1    
    52   25   26 2    
    53   25   27 1    
    54   27   28 1    
    55   27   29 1    
    56   27  150 1    
    57   28  151 1    
    58   28  152 1    
    59   28  153 1    
    60   29   30 am   BACKBONE|DICT|INTERRES
    61   29  154 1    
    62   30   31 2    
    63   30   32 1    
    64   32   33 1    
    65   32   34 1    
    66   32  155 1    
    67   33  156 1    
    68   33  157 1    
    69   33  158 1    
    70   34   35 am   BACKBONE|DICT|INTERRES
    71   34  159 1    
    72   35   36 2    
    73   35   37 1    
    74   37   38 1    
    75   37   39 1    
    76   37  160 1    
    77   38  161 1    
    78   38  162 1    
    79   38  163 1    
    80   39   40 am   BACKBONE|DICT|INTERRES
    81   39  164 1    
    82   40   41 2    
    83   40   42 1    
    84   42   43 1    
    85   42   44 1    
    86   42  165 1    
    87   43  166 1    
    88   43  167 1    
    89   43  168 1    
    90   44   45 am   BACKBONE|DICT|INTERRES
    91   44  169 1    
    92   45   46 2    
    93   45   47 1    
    94   47   48 1    
    95   47   49 1    
    96   47  170 1    
    97   48  171 1    
    98   48  172 1    
    99   48  173 1    
   100   49   50 am   BACKBONE|DICT|INTERRES
   101   49  174 1    
   102   50   51 2    
   103   50   52 1    
   104   52   53 1    
   105   52   54 1    
   106   52  175 1    
   107   53  176 1    
   108   53  177 1    
   109   53  178 1    
   110   54   55 am   BACKBONE|DICT|INTERRES
   111   54  179 1    
   112   55   56 2    
   113   55   57 1    
   114   57   58 1    
   115   57   59 1    
   116   57  180 1    
   117   58  181 1    
   118   58  182 1    
   119   58  183 1    
   120   59   60 am   BACKBONE|DICT|INTERRES
   121   59  184 1    
   122   60   61 2    
   123   60   62 1    
   124   62   63 1    
   125   62   64 1    
   126   62  185 1    
   127   63  186 1    
   128   63  187 1    
   129   63  188 1    
   130   64   65 am   BACKBONE|DICT|INTERRES
   131   64  189 1    
   132   65   66 2    
   133   67   68 2    
   134   67   69 am   BACKBONE|DICT|INTERRES
   135   69   70 1    
   136   69  190 1    
   137   70   71 1    
   138   70   72 1    
   139   70  191 1    
   140   71  192 1    
   141   71  193 1    
   142   71  194 1    
   143   72   73 2    
   144   72   74 am   BACKBONE|DICT|INTERRES
   145   74   75 1    
   146   74  195 1    
   147   75   76 1    
   148   75   77 1    
   149   75  196 1    
   150   76  197 1    
   151   76  198 1    
   152   76  199 1    
   153   77   78 2    
   154   77   79 am   BACKBONE|DICT|INTERRES
   155   79   80 1    
   156   79  200 1    
   157   80   81 1    
   158   80   82 1    
   159   80  201 1    
   160   81  202 1    
   161   81  203 1    
   162   81  204 1    
   163   82   83 2    
   164   82   84 am   BACKBONE|DICT|INTERRES
   165   84   85 1    
   166   84  205 1    
   167   85   86 1    
   168   85   87 1    
   169   85  206 1    
   170   86  207 1    
   171   86  208 1    
   172   86  209 1    
   173   87   88 2    
   174   87   89 am   BACKBONE|DICT|INTERRES
   175   89   90 1    
   176   89  210 1    
   177   90   91 1    
   178   90   92 1    
   179   90  211 1    
   180   91  212 1    
   181   91  213 1    
   182   91  214 1    
   183   92   93 2    
   184   92   94 am   BACKBONE|DICT|INTERRES
   185   94   95 1    
   186   94  215 1    
   187   95   96 1    
   188   95   97 1    
   189   95  216 1    
   190   96  217 1    
   191   96  218 1    
   192   96  219 1    
   193   97   98 2    
   194   97   99 am   BACKBONE|DICT|INTERRES
   195   99  100 1    
   196   99  220 1    
   197  100  101 1    
   198  100  102 1    
   199  100  221 1    
   200  101  222 1    
   201  101  223 1    
   202  101  224 1    
   203  102  103 2    
   204  102  104 am   BACKBONE|DICT|INTERRES
   205  104  105 1    
   206  104  225 1    
   207  105  106 1    
   208  105  107 1    
   209  105  226 1    
   210  106  227 1    
   211  106  228 1    
   212  106  229 1    
   213  107  108 2    
   214  107  109 am   BACKBONE|DICT|INTERRES
   215  109  110 1    
   216  109  230 1    
   217  110  111 1    
   218  110  112 1    
   219  110  231 1    
   220  111  232 1    
   221  111  233 1    
   222  111  234 1    
   223  112  113 2    
   224  112  114 am   BACKBONE|DICT|INTERRES
   225  114  115 1    
   226  114  235 1    
   227  115  116 1    
   228  115  117 1    
   229  115  236 1    
   230  116  237 1    
   231  116  238 1    
   232  116  239 1    
   233  117  118 2    
   234  117  119 am   BACKBONE|DICT|INTERRES
   235  119  120 1    
   236  119  240 1    
   237  120  121 1    
   238  120  124 1    
   239  120  241 1    
   240  121  122 am   BACKBONE|DICT|INTERRES
   241  121  123 2    
   242  122  242 1    
   243  122  243 1    
   244  124  125 1    
   245  124  244 1    
   246  124  245 1    
   247  125  126 1    
   248  126  246 1    
   249  126  247 1    
@<TRIPOS>SUBSTRUCTURE
     1 UNK         1 GROUP             0       ****    0 ROOT    
