@<TRIPOS>MOLECULE
3R540
247   249    1
SMALL
USER_CHARGES


@<TRIPOS>ATOM
      1 CA          3.4058   -9.4815  -49.2552 C.3       0 UNK        -0.1800 
      2 C           3.0352  -10.5418  -48.2285 C.2       0 UNK         0.5000 
      3 O           3.9125  -11.0591  -47.5369 O.2       0 UNK        -0.5000 
      4 N           1.7402  -10.8625  -48.1189 N.am      1 UNK        -0.5000 
      5 CA          1.1693  -11.8570  -47.2022 C.3       1 UNK         0.1400 
      6 C6         -0.1998  -12.3756  -47.7091 C.3       23 UNK        -0.0398 
      7 S7         -0.0360  -13.3639  -49.2348 S.3       23 UNK        -0.2404 
      8 C8         -0.3117  -15.0325  -48.5585 C.3       23 UNK        -0.0205 
      9 C9         -0.3099  -16.1245  -49.6179 C.ar      23 UNK        -0.0193 
     10 C10        -1.1472  -16.0370  -50.7339 C.ar      23 UNK        -0.1150 
     11 C11        -1.1767  -17.0609  -51.6840 C.ar      23 UNK        -0.0193 
     12 C12        -0.3818  -18.1950  -51.4969 C.ar      23 UNK        -0.1150 
     13 C13         0.4399  -18.3105  -50.3713 C.ar      23 UNK        -0.0193 
     14 C14         0.4900  -17.2582  -49.4500 C.ar      23 UNK        -0.1150 
     15 C15         1.2555  -19.5827  -50.1571 C.3       23 UNK        -0.0205 
     16 S16         1.1574  -20.2395  -48.4547 S.3       23 UNK        -0.2404 
     17 C17        -0.6422  -20.2474  -48.1457 C.3       23 UNK        -0.0398 
     18 CA         -1.0950  -21.4393  -47.2743 C.3       11 UNK         0.1400 
     19 N          -0.4718  -21.4462  -45.9427 N.am      11 UNK        -0.5000 
     20 C          -0.6230  -22.4160  -45.0275 C.2       10 UNK         0.5000 
     21 O          -1.3189  -23.4152  -45.2033 O.2       10 UNK        -0.5000 
     22 CA          0.0592  -22.2099  -43.6679 C.3       10 UNK         0.1400 
     23 CB          1.5702  -22.4745  -43.7548 C.3       10 UNK        -0.1800 
     24 N          -0.1932  -20.8611  -43.1656 N.am      10 UNK        -0.5000 
     25 C          -1.3306  -20.4879  -42.5603 C.2       9 UNK         0.5000 
     26 O          -2.2461  -21.2653  -42.2902 O.2       9 UNK        -0.5000 
     27 CA         -1.4846  -18.9948  -42.2073 C.3       9 UNK         0.1400 
     28 CB         -1.0153  -18.7306  -40.7681 C.3       9 UNK        -0.1800 
     29 N          -0.7538  -18.1060  -43.1097 N.am      9 UNK        -0.5000 
     30 C          -1.0238  -17.9315  -44.4107 C.2       8 UNK         0.5000 
     31 O          -1.9470  -18.4864  -45.0047 O.2       8 UNK        -0.5000 
     32 CA         -0.0433  -17.0327  -45.1849 C.3       8 UNK         0.1400 
     33 CB         -0.4454  -15.5566  -45.0412 C.3       8 UNK        -0.1800 
     34 N           1.3470  -17.2101  -44.7498 N.am      8 UNK        -0.5000 
     35 C           2.0262  -18.3656  -44.8367 C.2       7 UNK         0.5000 
     36 O           1.5105  -19.4110  -45.2319 O.2       7 UNK        -0.5000 
     37 CA          3.4903  -18.3877  -44.3504 C.3       7 UNK         0.1400 
     38 CB          4.3660  -19.3648  -45.1617 C.3       7 UNK        -0.1800 
     39 N           4.1117  -17.0633  -44.2662 N.am      7 UNK        -0.5000 
     40 C           4.3890  -16.2160  -45.2695 C.2       6 UNK         0.5000 
     41 O           4.1848  -16.4714  -46.4564 O.2       6 UNK        -0.5000 
     42 CA          4.9642  -14.8374  -44.8850 C.3       6 UNK         0.1400 
     43 CB          4.1241  -13.7139  -45.5042 C.3       6 UNK        -0.1800 
     44 N           4.9954  -14.6388  -43.4350 N.am      6 UNK        -0.5000 
     45 C           6.0685  -14.8085  -42.6513 C.2       5 UNK         0.5000 
     46 O           7.1944  -15.0659  -43.0779 O.2       5 UNK        -0.5000 
     47 CA          5.8383  -14.7174  -41.1284 C.3       5 UNK         0.1400 
     48 CB          6.1949  -13.3184  -40.6043 C.3       5 UNK        -0.1800 
     49 N           4.4660  -15.0534  -40.7343 N.am      5 UNK        -0.5000 
     50 C           3.9322  -16.2807  -40.8276 C.2       4 UNK         0.5000 
     51 O           4.5605  -17.2639  -41.2180 O.2       4 UNK        -0.5000 
     52 CA          2.4363  -16.4381  -40.4931 C.3       4 UNK         0.1400 
     53 CB          2.2520  -16.9318  -39.0511 C.3       4 UNK        -0.1800 
     54 N           1.6483  -15.2193  -40.6873 N.am      4 UNK        -0.5000 
     55 C           1.4649  -14.5897  -41.8555 C.2       3 UNK         0.5000 
     56 O           1.9581  -14.9826  -42.9165 O.2       3 UNK        -0.5000 
     57 CA          0.5775  -13.3238  -41.8407 C.3       3 UNK         0.1400 
     58 CB          0.3576  -12.7317  -40.4302 C.3       3 UNK        -0.1800 
     59 N           1.0561  -12.2797  -42.7505 N.am      3 UNK        -0.5000 
     60 C           2.2601  -11.6927  -42.7574 C.2       2 UNK         0.5000 
     61 O           3.1762  -12.0089  -41.9962 O.2       2 UNK        -0.5000 
     62 CA          2.4622  -10.5645  -43.7951 C.3       2 UNK         0.1400 
     63 CB          3.8556   -9.9172  -43.6986 C.3       2 UNK        -0.1800 
     64 N           2.2583  -11.0200  -45.1711 N.am      2 UNK        -0.5000 
     65 C           1.0919  -11.3119  -45.7574 C.2       1 UNK         0.5000 
     66 O           0.0026  -11.1708  -45.1976 O.2       1 UNK        -0.5000 
     67 C          -2.6354  -21.4937  -47.2051 C.2       11 UNK         0.5000 
     68 O          -3.2514  -22.1723  -48.0272 O.2       11 UNK        -0.5000 
     69 N          -3.2268  -20.8453  -46.1921 N.am      12 UNK        -0.5000 
     70 CA         -4.6586  -20.8818  -45.8836 C.3       12 UNK         0.1400 
     71 CB         -4.9453  -19.9115  -44.7276 C.3       12 UNK        -0.1800 
     72 C          -5.2104  -22.2860  -45.5543 C.2       12 UNK         0.5000 
     73 O          -6.4176  -22.4911  -45.6798 O.2       12 UNK        -0.5000 
     74 N          -4.3373  -23.2205  -45.1560 N.am      13 UNK        -0.5000 
     75 CA         -4.6708  -24.6243  -44.9271 C.3       13 UNK         0.1400 
     76 CB         -4.0581  -25.0758  -43.5915 C.3       13 UNK        -0.1800 
     77 C          -4.1674  -25.5091  -46.0803 C.2       13 UNK         0.5000 
     78 O          -4.9052  -26.3816  -46.5385 O.2       13 UNK        -0.5000 
     79 N          -2.9184  -25.2871  -46.5135 N.am      14 UNK        -0.5000 
     80 CA         -2.2177  -26.1110  -47.4980 C.3       14 UNK         0.1400 
     81 CB         -0.7134  -25.8021  -47.4397 C.3       14 UNK        -0.1800 
     82 C          -2.7482  -25.9468  -48.9319 C.2       14 UNK         0.5000 
     83 O          -2.9079  -26.9490  -49.6301 O.2       14 UNK        -0.5000 
     84 N          -3.0021  -24.6987  -49.3454 N.am      15 UNK        -0.5000 
     85 CA         -3.5451  -24.3619  -50.6610 C.3       15 UNK         0.1400 
     86 CB         -2.7738  -23.1720  -51.2587 C.3       15 UNK        -0.1800 
     87 C          -5.0416  -24.0416  -50.5635 C.2       15 UNK         0.5000 
     88 O          -5.8091  -24.4676  -51.4287 O.2       15 UNK        -0.5000 
     89 N          -5.4200  -23.2843  -49.5206 N.am      16 UNK        -0.5000 
     90 CA         -6.7860  -22.9226  -49.1135 C.3       16 UNK         0.1400 
     91 CB         -7.5098  -24.1687  -48.5648 C.3       16 UNK        -0.1800 
     92 C          -7.6159  -22.1955  -50.1952 C.2       16 UNK         0.5000 
     93 O          -8.8462  -22.2242  -50.1457 O.2       16 UNK        -0.5000 
     94 N          -6.9227  -21.5892  -51.1711 N.am      17 UNK        -0.5000 
     95 CA         -7.4427  -21.0065  -52.4150 C.3       17 UNK         0.1400 
     96 CB         -8.3380  -19.7848  -52.1257 C.3       17 UNK        -0.1800 
     97 C          -8.1173  -22.0301  -53.3604 C.2       17 UNK         0.5000 
     98 O          -8.7932  -21.6255  -54.3078 O.2       17 UNK        -0.5000 
     99 N          -7.9151  -23.3292  -53.1032 N.am      18 UNK        -0.5000 
    100 CA        -8.4378  -24.4409  -53.8923 C.3       18 UNK         0.1400 
    101 CB        -8.9399  -25.5378  -52.9400 C.3       18 UNK        -0.1800 
    102 C         -7.3568  -24.9934  -54.8328 C.2       18 UNK         0.5000 
    103 O         -7.6563  -25.2978  -55.9884 O.2       18 UNK        -0.5000 
    104 N         -6.1186  -25.1017  -54.3309 N.am      19 UNK        -0.5000 
    105 CA        -4.9462  -25.4913  -55.1122 C.3       19 UNK         0.1400 
    106 CB        -3.8216  -25.9108  -54.1552 C.3       19 UNK        -0.1800 
    107 C         -4.4667  -24.3306  -55.9985 C.2       19 UNK         0.5000 
    108 O         -4.6476  -23.1650  -55.6357 O.2       19 UNK        -0.5000 
    109 N         -3.7921  -24.6654  -57.1060 N.am      20 UNK        -0.5000 
    110 CA        -3.2543  -23.7275  -58.1024 C.3       20 UNK         0.1400 
    111 CB        -2.6472  -24.5351  -59.2603 C.3       20 UNK        -0.1800 
    112 C         -2.2282  -22.7071  -57.5606 C.2       20 UNK         0.5000 
    113 O         -1.9614  -21.7061  -58.2262 O.2       20 UNK        -0.5000 
    114 N         -1.6897  -22.9645  -56.3610 N.am      21 UNK        -0.5000 
    115 CA        -0.8168  -22.0673  -55.6067 C.3       21 UNK         0.1400 
    116 CB        -0.2447  -22.8338  -54.4041 C.3       21 UNK        -0.1800 
    117 C         -1.5042  -20.7679  -55.1362 C.2       21 UNK         0.5000 
    118 O         -0.7998  -19.7881  -54.8913 O.2       21 UNK        -0.5000 
    119 N         -2.8405  -20.7651  -55.0122 N.am      22 UNK        -0.5000 
    120 CA        -3.6218  -19.5800  -54.6179 C.3       22 UNK         0.1400 
    121 C         -5.0759  -19.5402  -55.1739 C.2       22 UNK         0.5000 
    122 N         -5.6434  -20.6238  -55.6861 N.am      22 UNK        -0.7600 
    123 O         -5.7080  -18.4885  -55.1688 O.2       22 UNK        -0.5000 
    124 C124       -3.5499  -19.3213  -53.0842 C.3       23 UNK        -0.0398 
    125 S125       -3.7386  -17.5610  -52.6379 S.3       23 UNK        -0.2404 
    126 C126       -2.0555  -16.9243  -52.9171 C.3       23 UNK        -0.0205 
    127 H127        2.5314   -9.1141  -49.7929 H         1 UNK         0.0600 
    128 H128        4.1046   -9.8934  -49.9833 H         1 UNK         0.0600 
    129 H129        3.8838   -8.6345  -48.7632 H         1 UNK         0.0600 
    130 H130        1.0710  -10.3896  -48.7094 H         1 UNK         0.3000 
    131 H131        1.8440  -12.7147  -47.1666 H         1 UNK         0.0600 
    132 H132       -0.6911  -12.9858  -46.9492 H         1 UNK         0.0800 
    133 H133       -0.8779  -11.5430  -47.9032 H         1 UNK         0.0800 
    134 H134        0.4609  -15.2298  -47.8146 H         1 UNK         0.0800 
    135 H135       -1.2708  -15.0610  -48.0400 H         1 UNK         0.0800 
    136 H136       -1.7749  -15.1667  -50.8653 H         1 UNK         0.1150 
    137 H137       -0.4063  -18.9905  -52.2284 H         1 UNK         0.1150 
    138 H138        1.1299  -17.3405  -48.5822 H         1 UNK         0.1150 
    139 H139        0.9298  -20.3656  -50.8440 H         1 UNK         0.0800 
    140 H140        2.2993  -19.3761  -50.3958 H         1 UNK         0.0800 
    141 H141       -0.9151  -19.3012  -47.6749 H         1 UNK         0.0800 
    142 H142       -1.1570  -20.2729  -49.1083 H         1 UNK         0.0800 
    143 H143       -0.7746  -22.3538  -47.7767 H         1 UNK         0.0600 
    144 H144        0.1512  -20.6698  -45.7338 H         1 UNK         0.3000 
    145 H145       -0.3623  -22.9335  -42.9664 H         1 UNK         0.0600 
    146 H146        2.0549  -22.3151  -42.7916 H         1 UNK         0.0600 
    147 H147        1.7637  -23.5066  -44.0494 H         1 UNK         0.0600 
    148 H148        2.0595  -21.8333  -44.4869 H         1 UNK         0.0600 
    149 H149        0.4789  -20.1526  -43.4249 H         1 UNK         0.3000 
    150 H150       -2.5458  -18.7466  -42.2763 H         1 UNK         0.0600 
    151 H151       -1.5686  -19.3470  -40.0583 H         1 UNK         0.0600 
    152 H152       -1.1733  -17.6897  -40.4847 H         1 UNK         0.0600 
    153 H153        0.0443  -18.9563  -40.6415 H         1 UNK         0.0600 
    154 H154        0.0346  -17.6116  -42.7210 H         1 UNK         0.3000 
    155 H155       -0.0949  -17.3058  -46.2406 H         1 UNK         0.0600 
    156 H156        0.3000  -14.8909  -45.4760 H         1 UNK         0.0600 
    157 H157       -0.5692  -15.2742  -43.9967 H         1 UNK         0.0600 
    158 H158       -1.3954  -15.3635  -45.5404 H         1 UNK         0.0600 
    159 H159        1.8038  -16.4000  -44.3435 H         1 UNK         0.3000 
    160 H160        3.4529  -18.7621  -43.3268 H         1 UNK         0.0600 
    161 H161        4.3716  -19.1189  -46.2239 H         1 UNK         0.0600 
    162 H162        4.0003  -20.3878  -45.0699 H         1 UNK         0.0600 
    163 H163        5.3969  -19.3584  -44.8082 H         1 UNK         0.0600 
    164 H164        4.3377  -16.7612  -43.3272 H         1 UNK         0.3000 
    165 H165        5.9726  -14.7773  -45.2986 H         1 UNK         0.0600 
    166 H166        3.0921  -13.7510  -45.1541 H         1 UNK         0.0600 
    167 H167        4.5367  -12.7379  -45.2512 H         1 UNK         0.0600 
    168 H168        4.1082  -13.7843  -46.5924 H         1 UNK         0.0600 
    169 H169        4.1027  -14.4381  -42.9991 H         1 UNK         0.3000 
    170 H170        6.5097  -15.4359  -40.6532 H         1 UNK         0.0600 
    171 H171        7.2321  -13.0702  -40.8333 H         1 UNK         0.0600 
    172 H172        5.5693  -12.5466  -41.0522 H         1 UNK         0.0600 
    173 H173        6.0788  -13.2599  -39.5220 H         1 UNK         0.0600 
    174 H174        3.8766  -14.2860  -40.4437 H         1 UNK         0.3000 
    175 H175        2.0360  -17.1994  -41.1656 H         1 UNK         0.0600 
    176 H176        2.6091  -16.1990  -38.3264 H         1 UNK         0.0600 
    177 H177        1.2033  -17.1362  -38.8344 H         1 UNK         0.0600 
    178 H178        2.8032  -17.8577  -38.8811 H         1 UNK         0.0600 
    179 H179        1.2184  -14.8286  -39.8613 H         1 UNK         0.3000 
    180 H180       -0.3958  -13.6336  -42.2219 H         1 UNK         0.0600 
    181 H181        1.2993  -12.4643  -39.9489 H         1 UNK         0.0600 
    182 H182       -0.1672  -13.4312  -39.7786 H         1 UNK         0.0600 
    183 H183       -0.2537  -11.8303  -40.4783 H         1 UNK         0.0600 
    184 H184        0.3993  -11.9765  -43.4634 H         1 UNK         0.3000 
    185 H185        1.7223   -9.7922  -43.5757 H         1 UNK         0.0600 
    186 H186        3.9567   -9.0917  -44.4034 H         1 UNK         0.0600 
    187 H187        4.6494  -10.6353  -43.9077 H         1 UNK         0.0600 
    188 H188        4.0318   -9.5138  -42.7006 H         1 UNK         0.0600 
    189 H189        3.0945  -11.1342  -45.7360 H         1 UNK         0.3000 
    190 H190       -2.6563  -20.2504  -45.5989 H         1 UNK         0.3000 
    191 H191       -5.1927  -20.5265  -46.7670 H         1 UNK         0.0600 
    192 H192       -4.6703  -18.8905  -44.9921 H         1 UNK         0.0600 
    193 H193       -6.0060  -19.9042  -44.4734 H         1 UNK         0.0600 
    194 H194       -4.3930  -20.1861  -43.8283 H         1 UNK         0.0600 
    195 H195       -3.3568  -22.9757  -45.0895 H         1 UNK         0.3000 
    196 H196       -5.7526  -24.7557  -44.8571 H         1 UNK         0.0600 
    197 H197       -4.2885  -26.1227  -43.3902 H         1 UNK         0.0600 
    198 H198       -4.4536  -24.4899  -42.7616 H         1 UNK         0.0600 
    199 H199       -2.9726  -24.9704  -43.5850 H         1 UNK         0.0600 
    200 H200       -2.3602  -24.5703  -46.0538 H         1 UNK         0.3000 
    201 H201       -2.3536  -27.1569  -47.2146 H         1 UNK         0.0600 
    202 H202       -0.3110  -25.9900  -46.4441 H         1 UNK         0.0600 
    203 H203       -0.5040  -24.7627  -47.6928 H         1 UNK         0.0600 
    204 H204       -0.1580  -26.4288  -48.1387 H         1 UNK         0.0600 
    205 H205       -2.8966  -23.9291  -48.6926 H         1 UNK         0.3000 
    206 H206       -3.4319  -25.2096  -51.3371 H         1 UNK         0.0600 
    207 H207       -1.7132  -23.4039  -51.3556 H         1 UNK         0.0600 
    208 H208       -3.1463  -22.9244  -52.2538 H         1 UNK         0.0600 
    209 H209       -2.8613  -22.2742  -50.6468 H         1 UNK         0.0600 
    210 H210       -4.6838  -22.9308  -48.9137 H         1 UNK         0.3000 
    211 H211       -6.6813  -22.2079  -48.2980 H         1 UNK         0.0600 
    212 H212       -7.6963  -24.9040  -49.3483 H         1 UNK         0.0600 
    213 H213       -8.4714  -23.9048  -48.1236 H         1 UNK         0.0600 
    214 H214       -6.9216  -24.6514  -47.7841 H         1 UNK         0.0600 
    215 H215       -5.9166  -21.6338  -51.1016 H         1 UNK         0.3000 
    216 H216       -6.5692  -20.6445  -52.9536 H         1 UNK         0.0600 
    217 H217       -7.8367  -19.0762  -51.4665 H         1 UNK         0.0600 
    218 H218       -9.2803  -20.0720  -51.6588 H         1 UNK         0.0600 
    219 H219       -8.5795  -19.2521  -53.0462 H         1 UNK         0.0600 
    220 H220       -7.3088  -23.5811  -52.3295 H         1 UNK         0.3000 
    221 H221       -9.2813  -24.1098  -54.5017 H         1 UNK         0.0600 
    222 H222       -8.1421  -25.9139  -52.2981 H         1 UNK         0.0600 
    223 H223       -9.7359  -25.1631  -52.2961 H         1 UNK         0.0600 
    224 H224       -9.3422  -26.3848  -53.4971 H         1 UNK         0.0600 
    225 H225       -5.9554  -24.8260  -53.3687 H         1 UNK         0.3000 
    226 H226       -5.2103  -26.3428  -55.7428 H         1 UNK         0.0600 
    227 H227       -4.1678  -26.6460  -53.4282 H         1 UNK         0.0600 
    228 H228       -2.9918  -26.3603  -54.7018 H         1 UNK         0.0600 
    229 H229       -3.4243  -25.0546  -53.6112 H         1 UNK         0.0600 
    230 H230       -3.6607  -25.6455  -57.3118 H         1 UNK         0.3000 
    231 H231       -4.0954  -23.1510  -58.4927 H         1 UNK         0.0600 
    232 H232       -2.2677  -23.8761  -60.0426 H         1 UNK         0.0600 
    233 H233       -3.3904  -25.1861  -59.7210 H         1 UNK         0.0600 
    234 H234       -1.8166  -25.1567  -58.9236 H         1 UNK         0.0600 
    235 H235       -1.9660  -23.8171  -55.8986 H         1 UNK         0.3000 
    236 H236        0.0124  -21.7798  -56.2563 H         1 UNK         0.0600 
    237 H237        0.3414  -23.6943  -54.7274 H         1 UNK         0.0600 
    238 H238        0.4137  -22.1988  -53.8096 H         1 UNK         0.0600 
    239 H239       -1.0353  -23.1948  -53.7463 H         1 UNK         0.0600 
    240 H240       -3.3636  -21.6013  -55.2431 H         1 UNK         0.3000 
    241 H241       -3.1429  -18.7362  -55.1186 H         1 UNK         0.0600 
    242 H242       -6.5801  -20.5428  -56.0479 H         1 UNK         0.3800 
    243 H243       -5.1998  -21.5411  -55.6869 H         1 UNK         0.3800 
    244 H244       -2.5996  -19.6646  -52.6771 H         1 UNK         0.0800 
    245 H245       -4.3083  -19.9018  -52.5585 H         1 UNK         0.0800 
    246 H246       -2.1265  -15.8722  -53.1972 H         1 UNK         0.0800 
    247 H247       -1.5955  -17.4274  -53.7684 H         1 UNK         0.0800 
@<TRIPOS>BOND
     1    1    2 1    
     2    1  127 1    
     3    1  128 1    
     4    1  129 1    
     5    2    3 2    
     6    2    4 am   BACKBONE|DICT|INTERRES
     7    4    5 1    
     8    4  130 1    
     9    5    6 1    
    10    5   65 1    
    11    5  131 1    
    12    6    7 1    
    13    6  132 1    
    14    6  133 1    
    15    7    8 1    
    16    8    9 1    
    17    8  134 1    
    18    8  135 1    
    19    9   10 ar   
    20    9   14 ar   
    21   10   11 ar   
    22   10  136 1    
    23   11   12 ar   
    24   11  126 1    
    25   12   13 ar   
    26   12  137 1    
    27   13   14 ar   
    28   13   15 1    
    29   14  138 1    
    30   15   16 1    
    31   15  139 1    
    32   15  140 1    
    33   16   17 1    
    34   17   18 1    
    35   17  141 1    
    36   17  142 1    
    37   18   19 1    
    38   18   67 1    
    39   18  143 1    
    40   19   20 am   BACKBONE|DICT|INTERRES
    41   19  144 1    
    42   20   21 2    
    43   20   22 1    
    44   22   23 1    
    45   22   24 1    
    46   22  145 1    
    47   23  146 1    
    48   23  147 1    
    49   23  148 1    
    50   24   25 am   BACKBONE|DICT|INTERRES
    51   24  149 1    
    52   25   26 2    
    53   25   27 1    
    54   27   28 1    
    55   27   29 1    
    56   27  150 1    
    57   28  151 1    
    58   28  152 1    
    59   28  153 1    
    60   29   30 am   BACKBONE|DICT|INTERRES
    61   29  154 1    
    62   30   31 2    
    63   30   32 1    
    64   32   33 1    
    65   32   34 1    
    66   32  155 1    
    67   33  156 1    
    68   33  157 1    
    69   33  158 1    
    70   34   35 am   BACKBONE|DICT|INTERRES
    71   34  159 1    
    72   35   36 2    
    73   35   37 1    
    74   37   38 1    
    75   37   39 1    
    76   37  160 1    
    77   38  161 1    
    78   38  162 1    
    79   38  163 1    
    80   39   40 am   BACKBONE|DICT|INTERRES
    81   39  164 1    
    82   40   41 2    
    83   40   42 1    
    84   42   43 1    
    85   42   44 1    
    86   42  165 1    
    87   43  166 1    
    88   43  167 1    
    89   43  168 1    
    90   44   45 am   BACKBONE|DICT|INTERRES
    91   44  169 1    
    92   45   46 2    
    93   45   47 1    
    94   47   48 1    
    95   47   49 1    
    96   47  170 1    
    97   48  171 1    
    98   48  172 1    
    99   48  173 1    
   100   49   50 am   BACKBONE|DICT|INTERRES
   101   49  174 1    
   102   50   51 2    
   103   50   52 1    
   104   52   53 1    
   105   52   54 1    
   106   52  175 1    
   107   53  176 1    
   108   53  177 1    
   109   53  178 1    
   110   54   55 am   BACKBONE|DICT|INTERRES
   111   54  179 1    
   112   55   56 2    
   113   55   57 1    
   114   57   58 1    
   115   57   59 1    
   116   57  180 1    
   117   58  181 1    
   118   58  182 1    
   119   58  183 1    
   120   59   60 am   BACKBONE|DICT|INTERRES
   121   59  184 1    
   122   60   61 2    
   123   60   62 1    
   124   62   63 1    
   125   62   64 1    
   126   62  185 1    
   127   63  186 1    
   128   63  187 1    
   129   63  188 1    
   130   64   65 am   BACKBONE|DICT|INTERRES
   131   64  189 1    
   132   65   66 2    
   133   67   68 2    
   134   67   69 am   BACKBONE|DICT|INTERRES
   135   69   70 1    
   136   69  190 1    
   137   70   71 1    
   138   70   72 1    
   139   70  191 1    
   140   71  192 1    
   141   71  193 1    
   142   71  194 1    
   143   72   73 2    
   144   72   74 am   BACKBONE|DICT|INTERRES
   145   74   75 1    
   146   74  195 1    
   147   75   76 1    
   148   75   77 1    
   149   75  196 1    
   150   76  197 1    
   151   76  198 1    
   152   76  199 1    
   153   77   78 2    
   154   77   79 am   BACKBONE|DICT|INTERRES
   155   79   80 1    
   156   79  200 1    
   157   80   81 1    
   158   80   82 1    
   159   80  201 1    
   160   81  202 1    
   161   81  203 1    
   162   81  204 1    
   163   82   83 2    
   164   82   84 am   BACKBONE|DICT|INTERRES
   165   84   85 1    
   166   84  205 1    
   167   85   86 1    
   168   85   87 1    
   169   85  206 1    
   170   86  207 1    
   171   86  208 1    
   172   86  209 1    
   173   87   88 2    
   174   87   89 am   BACKBONE|DICT|INTERRES
   175   89   90 1    
   176   89  210 1    
   177   90   91 1    
   178   90   92 1    
   179   90  211 1    
   180   91  212 1    
   181   91  213 1    
   182   91  214 1    
   183   92   93 2    
   184   92   94 am   BACKBONE|DICT|INTERRES
   185   94   95 1    
   186   94  215 1    
   187   95   96 1    
   188   95   97 1    
   189   95  216 1    
   190   96  217 1    
   191   96  218 1    
   192   96  219 1    
   193   97   98 2    
   194   97   99 am   BACKBONE|DICT|INTERRES
   195   99  100 1    
   196   99  220 1    
   197  100  101 1    
   198  100  102 1    
   199  100  221 1    
   200  101  222 1    
   201  101  223 1    
   202  101  224 1    
   203  102  103 2    
   204  102  104 am   BACKBONE|DICT|INTERRES
   205  104  105 1    
   206  104  225 1    
   207  105  106 1    
   208  105  107 1    
   209  105  226 1    
   210  106  227 1    
   211  106  228 1    
   212  106  229 1    
   213  107  108 2    
   214  107  109 am   BACKBONE|DICT|INTERRES
   215  109  110 1    
   216  109  230 1    
   217  110  111 1    
   218  110  112 1    
   219  110  231 1    
   220  111  232 1    
   221  111  233 1    
   222  111  234 1    
   223  112  113 2    
   224  112  114 am   BACKBONE|DICT|INTERRES
   225  114  115 1    
   226  114  235 1    
   227  115  116 1    
   228  115  117 1    
   229  115  236 1    
   230  116  237 1    
   231  116  238 1    
   232  116  239 1    
   233  117  118 2    
   234  117  119 am   BACKBONE|DICT|INTERRES
   235  119  120 1    
   236  119  240 1    
   237  120  121 1    
   238  120  124 1    
   239  120  241 1    
   240  121  122 am   BACKBONE|DICT|INTERRES
   241  121  123 2    
   242  122  242 1    
   243  122  243 1    
   244  124  125 1    
   245  124  244 1    
   246  124  245 1    
   247  125  126 1    
   248  126  246 1    
   249  126  247 1    
@<TRIPOS>SUBSTRUCTURE
     1 UNK         1 GROUP             0       ****    0 ROOT    
