@<TRIPOS>MOLECULE
3R540
247   249    1
SMALL
USER_CHARGES


@<TRIPOS>ATOM
      1 CA         -0.9491   -9.5553  -49.5658 C.3       0 UNK        -0.1800 
      2 C          -0.3058  -10.7129  -48.8149 C.2       0 UNK         0.5000 
      3 O          -0.3101  -10.7174  -47.5847 O.2       0 UNK        -0.5000 
      4 N           0.2366  -11.6907  -49.5532 N.am      1 UNK        -0.5000 
      5 CA          0.9502  -12.8757  -49.0583 C.3       1 UNK         0.1400 
      6 C6          0.0861  -13.7452  -48.0991 C.3       23 UNK        -0.0398 
      7 S7          0.5226  -15.5129  -48.1870 S.3       23 UNK        -0.2404 
      8 C8         -0.6989  -16.1580  -49.3790 C.3       23 UNK        -0.0205 
      9 C9         -0.1235  -17.2585  -50.2649 C.ar      23 UNK        -0.0193 
     10 C10        -0.3647  -17.2419  -51.6417 C.ar      23 UNK        -0.1150 
     11 C11         0.1639  -18.2363  -52.4691 C.ar      23 UNK        -0.0193 
     12 C12         0.9374  -19.2563  -51.9091 C.ar      23 UNK        -0.1150 
     13 C13         1.1818  -19.2993  -50.5333 C.ar      23 UNK        -0.0193 
     14 C14         0.6413  -18.2949  -49.7191 C.ar      23 UNK        -0.1150 
     15 C15         2.0633  -20.4229  -49.9836 C.3       23 UNK        -0.0205 
     16 S16         1.9252  -20.7262  -48.1881 S.3       23 UNK        -0.2404 
     17 C17         0.2121  -21.3384  -48.0758 C.3       23 UNK        -0.0398 
     18 CA          0.0871  -22.4894  -47.0564 C.3       11 UNK         0.1400 
     19 N           0.2404  -22.0263  -45.6767 N.am      11 UNK        -0.5000 
     20 C           0.3866  -22.8332  -44.6185 C.2       10 UNK         0.5000 
     21 O           0.4441  -24.0606  -44.6975 O.2       10 UNK        -0.5000 
     22 CA          0.4157  -22.1566  -43.2366 C.3       10 UNK         0.1400 
     23 CB          1.7850  -21.5169  -42.9623 C.3       10 UNK        -0.1800 
     24 N          -0.6405  -21.1538  -43.0873 N.am      10 UNK        -0.5000 
     25 C          -1.9518  -21.4339  -43.1164 C.2       9 UNK         0.5000 
     26 O          -2.4051  -22.5730  -43.2311 O.2       9 UNK        -0.5000 
     27 CA         -2.9228  -20.2433  -43.0393 C.3       9 UNK         0.1400 
     28 CB         -3.1057  -19.7920  -41.5829 C.3       9 UNK        -0.1800 
     29 N          -2.5041  -19.1085  -43.8640 N.am      9 UNK        -0.5000 
     30 C          -2.4006  -19.1380  -45.2007 C.2       8 UNK         0.5000 
     31 O          -2.6695  -20.1247  -45.8812 O.2       8 UNK        -0.5000 
     32 CA         -1.8465  -17.8809  -45.8958 C.3       8 UNK         0.1400 
     33 CB         -2.9240  -16.7962  -46.0268 C.3       8 UNK        -0.1800 
     34 N          -0.6714  -17.3360  -45.2187 N.am      8 UNK        -0.5000 
     35 C           0.4745  -18.0119  -45.0515 C.2       7 UNK         0.5000 
     36 O           0.6592  -19.1613  -45.4492 O.2       7 UNK        -0.5000 
     37 CA          1.5836  -17.3026  -44.2621 C.3       7 UNK         0.1400 
     38 CB          2.3276  -16.3018  -45.1544 C.3       7 UNK        -0.1800 
     39 N           1.0625  -16.6314  -43.0712 N.am      7 UNK        -0.5000 
     40 C           0.5598  -17.2810  -42.0113 C.2       6 UNK         0.5000 
     41 O           0.5383  -18.5080  -41.9034 O.2       6 UNK        -0.5000 
     42 CA         -0.0739  -16.4113  -40.9124 C.3       6 UNK         0.1400 
     43 CB          1.0030  -15.7842  -40.0143 C.3       6 UNK        -0.1800 
     44 N          -0.9333  -15.3628  -41.4648 N.am      6 UNK        -0.5000 
     45 C          -2.0856  -15.6017  -42.1082 C.2       5 UNK         0.5000 
     46 O          -2.5423  -16.7282  -42.2896 O.2       5 UNK        -0.5000 
     47 CA         -2.8563  -14.3923  -42.6657 C.3       5 UNK         0.1400 
     48 CB         -3.8891  -13.8981  -41.6420 C.3       5 UNK        -0.1800 
     49 N          -2.0042  -13.2740  -43.0637 N.am      5 UNK        -0.5000 
     50 C          -1.0568  -13.3114  -44.0097 C.2       4 UNK         0.5000 
     51 O          -0.7672  -14.3275  -44.6479 O.2       4 UNK        -0.5000 
     52 CA         -0.3072  -11.9894  -44.2890 C.3       4 UNK         0.1400 
     53 CB         -0.5709  -10.8800  -43.2447 C.3       4 UNK        -0.1800 
     54 N           1.1370  -12.1706  -44.4597 N.am      4 UNK        -0.5000 
     55 C           1.9809  -12.7562  -43.5974 C.2       3 UNK         0.5000 
     56 O           1.6281  -13.3050  -42.5517 O.2       3 UNK        -0.5000 
     57 CA          3.4623  -12.7421  -44.0049 C.3       3 UNK         0.1400 
     58 CB          4.3604  -13.5799  -43.0707 C.3       3 UNK        -0.1800 
     59 N           3.5836  -13.1902  -45.3909 N.am      3 UNK        -0.5000 
     60 C           4.5934  -12.8999  -46.2184 C.2       2 UNK         0.5000 
     61 O           5.5659  -12.2139  -45.9016 O.2       2 UNK        -0.5000 
     62 CA          4.4977  -13.4691  -47.6469 C.3       2 UNK         0.1400 
     63 CB          5.1605  -14.8535  -47.7177 C.3       2 UNK        -0.1800 
     64 N           3.1225  -13.5731  -48.1444 N.am      2 UNK        -0.5000 
     65 C           2.3493  -12.5326  -48.4828 C.2       1 UNK         0.5000 
     66 O           2.7250  -11.3613  -48.3878 O.2       1 UNK        -0.5000 
     67 C          -1.2224  -23.2757  -47.2601 C.2       11 UNK         0.5000 
     68 O          -1.1989  -24.3003  -47.9388 O.2       11 UNK        -0.5000 
     69 N          -2.3277  -22.8256  -46.6495 N.am      12 UNK        -0.5000 
     70 CA         -3.6234  -23.5042  -46.7021 C.3       12 UNK         0.1400 
     71 CB         -4.7181  -22.6037  -46.1129 C.3       12 UNK        -0.1800 
     72 C          -3.6055  -24.8752  -46.0058 C.2       12 UNK         0.5000 
     73 O          -4.1917  -25.8251  -46.5233 O.2       12 UNK        -0.5000 
     74 N          -2.8994  -24.9741  -44.8720 N.am      13 UNK        -0.5000 
     75 CA         -2.6630  -26.2342  -44.1680 C.3       13 UNK         0.1400 
     76 CB         -2.0352  -25.9437  -42.7964 C.3       13 UNK        -0.1800 
     77 C          -1.7860  -27.2100  -44.9777 C.2       13 UNK         0.5000 
     78 O          -2.0321  -28.4164  -44.9447 O.2       13 UNK        -0.5000 
     79 N          -0.7860  -26.6724  -45.6880 N.am      14 UNK        -0.5000 
     80 CA          0.1607  -27.4399  -46.4921 C.3       14 UNK         0.1400 
     81 CB          1.4388  -26.6105  -46.6939 C.3       14 UNK        -0.1800 
     82 C          -0.4033  -27.8912  -47.8522 C.2       14 UNK         0.5000 
     83 O          -0.1785  -29.0393  -48.2385 O.2       14 UNK        -0.5000 
     84 N          -1.0725  -26.9814  -48.5739 N.am      15 UNK        -0.5000 
     85 CA         -1.3482  -27.1158  -50.0071 C.3       15 UNK         0.1400 
     86 CB         -0.2336  -26.3981  -50.7900 C.3       15 UNK        -0.1800 
     87 C          -2.7542  -26.6416  -50.4256 C.2       15 UNK         0.5000 
     88 O          -2.9839  -26.4333  -51.6193 O.2       15 UNK        -0.5000 
     89 N          -3.6838  -26.5236  -49.4658 N.am      16 UNK        -0.5000 
     90 CA         -5.1178  -26.2715  -49.6575 C.3       16 UNK         0.1400 
     91 CB         -5.7990  -27.5219  -50.2591 C.3       16 UNK        -0.1800 
     92 C          -5.4111  -24.9707  -50.4355 C.2       16 UNK         0.5000 
     93 O          -5.2823  -23.8859  -49.8688 O.2       16 UNK        -0.5000 
     94 N          -5.8184  -25.0973  -51.7061 N.am      17 UNK        -0.5000 
     95 CA         -6.1778  -23.9890  -52.5921 C.3       17 UNK         0.1400 
     96 CB         -6.8410  -24.5541  -53.8568 C.3       17 UNK        -0.1800 
     97 C          -4.9933  -23.0793  -52.9675 C.2       17 UNK         0.5000 
     98 O          -5.2111  -21.8983  -53.2502 O.2       17 UNK        -0.5000 
     99 N          -3.7648  -23.6189  -52.9416 N.am      18 UNK        -0.5000 
    100 CA        -2.5176  -22.8946  -53.2001 C.3       18 UNK         0.1400 
    101 CB        -1.4205  -23.8987  -53.5867 C.3       18 UNK        -0.1800 
    102 C         -2.1255  -22.0058  -52.0011 C.2       18 UNK         0.5000 
    103 O         -1.1071  -22.2382  -51.3500 O.2       18 UNK        -0.5000 
    104 N         -2.9798  -21.0155  -51.7378 N.am      19 UNK        -0.5000 
    105 CA        -2.8965  -20.0238  -50.6727 C.3       19 UNK         0.1400 
    106 CB        -3.2231  -20.6662  -49.3157 C.3       19 UNK        -0.1800 
    107 C         -3.8662  -18.8658  -50.9525 C.2       19 UNK         0.5000 
    108 O         -3.5698  -17.7236  -50.6011 O.2       19 UNK        -0.5000 
    109 N         -5.0091  -19.1658  -51.5902 N.am      20 UNK        -0.5000 
    110 CA        -6.0527  -18.2094  -51.9576 C.3       20 UNK         0.1400 
    111 CB        -7.3757  -18.9772  -52.1299 C.3       20 UNK        -0.1800 
    112 C         -5.6609  -17.4115  -53.2175 C.2       20 UNK         0.5000 
    113 O         -6.2675  -17.5843  -54.2756 O.2       20 UNK        -0.5000 
    114 N         -4.6052  -16.5960  -53.0921 N.am      21 UNK        -0.5000 
    115 CA        -3.9721  -15.7264  -54.0975 C.3       21 UNK         0.1400 
    116 CB        -4.9695  -14.6855  -54.6415 C.3       21 UNK        -0.1800 
    117 C         -3.2511  -16.4602  -55.2500 C.2       21 UNK         0.5000 
    118 O         -2.3389  -15.8833  -55.8426 O.2       21 UNK        -0.5000 
    119 N         -3.6401  -17.7099  -55.5271 N.am      22 UNK        -0.5000 
    120 CA        -3.0463  -18.6351  -56.5092 C.3       22 UNK         0.1400 
    121 C         -3.3077  -18.2596  -58.0002 C.2       22 UNK         0.5000 
    122 N         -4.2455  -17.3705  -58.3039 N.am      22 UNK        -0.7600 
    123 O         -2.6752  -18.8025  -58.9023 O.2       22 UNK        -0.5000 
    124 C124       -1.5497  -18.9621  -56.2332 C.3       23 UNK        -0.0398 
    125 S125       -1.2343  -19.4849  -54.5109 S.3       23 UNK        -0.2404 
    126 C126       -0.0742  -18.1922  -53.9701 C.3       23 UNK        -0.0205 
    127 H127       -0.4547   -8.6195  -49.3052 H         1 UNK         0.0600 
    128 H128       -2.0020   -9.4725  -49.2963 H         1 UNK         0.0600 
    129 H129       -0.8838   -9.6852  -50.6463 H         1 UNK         0.0600 
    130 H130        0.2215  -11.5967  -50.5590 H         1 UNK         0.3000 
    131 H131        1.1396  -13.4599  -49.9606 H         1 UNK         0.0600 
    132 H132       -0.9738  -13.6452  -48.3367 H         1 UNK         0.0800 
    133 H133        0.1833  -13.4083  -47.0665 H         1 UNK         0.0800 
    134 H134       -1.5621  -16.5480  -48.8393 H         1 UNK         0.0800 
    135 H135       -1.0658  -15.3394  -49.9997 H         1 UNK         0.0800 
    136 H136       -0.9624  -16.4507  -52.0717 H         1 UNK         0.1150 
    137 H137        1.3507  -20.0214  -52.5513 H         1 UNK         0.1150 
    138 H138        0.8239  -18.3002  -48.6546 H         1 UNK         0.1150 
    139 H139        1.8424  -21.3531  -50.5102 H         1 UNK         0.0800 
    140 H140        3.1023  -20.1803  -50.2090 H         1 UNK         0.0800 
    141 H141       -0.0930  -21.6743  -49.0667 H         1 UNK         0.0800 
    142 H142       -0.4485  -20.5099  -47.8145 H         1 UNK         0.0800 
    143 H143        0.8984  -23.1943  -47.2511 H         1 UNK         0.0600 
    144 H144        0.2469  -21.0185  -45.5362 H         1 UNK         0.3000 
    145 H145        0.2481  -22.9313  -42.4854 H         1 UNK         0.0600 
    146 H146        1.8313  -21.1039  -41.9545 H         1 UNK         0.0600 
    147 H147        2.5842  -22.2538  -43.0498 H         1 UNK         0.0600 
    148 H148        2.0032  -20.7107  -43.6629 H         1 UNK         0.0600 
    149 H149       -0.3443  -20.1914  -42.9714 H         1 UNK         0.3000 
    150 H150       -3.8915  -20.5827  -43.4110 H         1 UNK         0.0600 
    151 H151       -3.4087  -20.6261  -40.9488 H         1 UNK         0.0600 
    152 H152       -3.8777  -19.0267  -41.5025 H         1 UNK         0.0600 
    153 H153       -2.1831  -19.3816  -41.1703 H         1 UNK         0.0600 
    154 H154       -2.3023  -18.2430  -43.3692 H         1 UNK         0.3000 
    155 H155       -1.5349  -18.1696  -46.9019 H         1 UNK         0.0600 
    156 H156       -3.3204  -16.5057  -45.0548 H         1 UNK         0.0600 
    157 H157       -3.7604  -17.1526  -46.6293 H         1 UNK         0.0600 
    158 H158       -2.5296  -15.9021  -46.5107 H         1 UNK         0.0600 
    159 H159       -0.7305  -16.3787  -44.8875 H         1 UNK         0.3000 
    160 H160        2.2980  -18.0642  -43.9419 H         1 UNK         0.0600 
    161 H161        1.7088  -15.4346  -45.3837 H         1 UNK         0.0600 
    162 H162        2.6157  -16.7617  -46.1008 H         1 UNK         0.0600 
    163 H163        3.2426  -15.9584  -44.6765 H         1 UNK         0.0600 
    164 H164        1.0061  -15.6216  -43.0924 H         1 UNK         0.3000 
    165 H165       -0.6935  -17.0617  -40.2911 H         1 UNK         0.0600 
    166 H166        0.5548  -15.2149  -39.1999 H         1 UNK         0.0600 
    167 H167        1.6309  -16.5546  -39.5650 H         1 UNK         0.0600 
    168 H168        1.6573  -15.1136  -40.5718 H         1 UNK         0.0600 
    169 H169       -0.5989  -14.4118  -41.3977 H         1 UNK         0.3000 
    170 H170       -3.3944  -14.7252  -43.5543 H         1 UNK         0.0600 
    171 H171       -4.5595  -14.7052  -41.3431 H         1 UNK         0.0600 
    172 H172       -3.4105  -13.5175  -40.7388 H         1 UNK         0.0600 
    173 H173       -4.5073  -13.1018  -42.0569 H         1 UNK         0.0600 
    174 H174       -2.1621  -12.3999  -42.5839 H         1 UNK         0.3000 
    175 H175       -0.6914  -11.6356  -45.2439 H         1 UNK         0.0600 
    176 H176       -0.2646  -11.1819  -42.2422 H         1 UNK         0.0600 
    177 H177       -0.0210   -9.9729  -43.4963 H         1 UNK         0.0600 
    178 H178       -1.6258  -10.6055  -43.2084 H         1 UNK         0.0600 
    179 H179        1.5228  -11.7662  -45.3014 H         1 UNK         0.3000 
    180 H180        3.7878  -11.7015  -43.9453 H         1 UNK         0.0600 
    181 H181        4.0485  -14.6228  -43.0308 H         1 UNK         0.0600 
    182 H182        4.3241  -13.1930  -42.0518 H         1 UNK         0.0600 
    183 H183        5.4030  -13.5530  -43.3868 H         1 UNK         0.0600 
    184 H184        2.8189  -13.7473  -45.7434 H         1 UNK         0.3000 
    185 H185        5.0482  -12.7957  -48.3074 H         1 UNK         0.0600 
    186 H186        6.1969  -14.8077  -47.3806 H         1 UNK         0.0600 
    187 H187        4.6443  -15.5815  -47.0912 H         1 UNK         0.0600 
    188 H188        5.1690  -15.2354  -48.7387 H         1 UNK         0.0600 
    189 H189        2.7501  -14.5069  -48.2580 H         1 UNK         0.3000 
    190 H190       -2.3021  -21.9348  -46.1588 H         1 UNK         0.3000 
    191 H191       -3.8569  -23.6751  -47.7530 H         1 UNK         0.0600 
    192 H192       -4.8010  -21.6706  -46.6701 H         1 UNK         0.0600 
    193 H193       -5.6914  -23.0940  -46.1565 H         1 UNK         0.0600 
    194 H194       -4.5187  -22.3570  -45.0702 H         1 UNK         0.0600 
    195 H195       -2.4913  -24.1359  -44.4687 H         1 UNK         0.3000 
    196 H196       -3.6294  -26.7150  -44.0028 H         1 UNK         0.0600 
    197 H197       -1.8685  -26.8664  -42.2394 H         1 UNK         0.0600 
    198 H198       -2.6857  -25.3110  -42.1922 H         1 UNK         0.0600 
    199 H199       -1.0738  -25.4382  -42.8914 H         1 UNK         0.0600 
    200 H200       -0.6226  -25.6745  -45.6184 H         1 UNK         0.3000 
    201 H201        0.4361  -28.3377  -45.9343 H         1 UNK         0.0600 
    202 H202        1.8969  -26.3539  -45.7385 H         1 UNK         0.0600 
    203 H203        1.2363  -25.6810  -47.2269 H         1 UNK         0.0600 
    204 H204        2.1790  -27.1657  -47.2713 H         1 UNK         0.0600 
    205 H205       -1.1891  -26.0402  -48.1969 H         1 UNK         0.3000 
    206 H206       -1.3191  -28.1706  -50.2866 H         1 UNK         0.0600 
    207 H207        0.7521  -26.7624  -50.5005 H         1 UNK         0.0600 
    208 H208       -0.3325  -26.5685  -51.8623 H         1 UNK         0.0600 
    209 H209       -0.2562  -25.3212  -50.6161 H         1 UNK         0.0600 
    210 H210       -3.3989  -26.6588  -48.5041 H         1 UNK         0.3000 
    211 H211       -5.5490  -26.1248  -48.6677 H         1 UNK         0.0600 
    212 H212       -5.3867  -27.7948  -51.2310 H         1 UNK         0.0600 
    213 H213       -6.8714  -27.3650  -50.3833 H         1 UNK         0.0600 
    214 H214       -5.6776  -28.3818  -49.6001 H         1 UNK         0.0600 
    215 H215       -5.8675  -26.0256  -52.1002 H         1 UNK         0.3000 
    216 H216       -6.9103  -23.3687  -52.0713 H         1 UNK         0.0600 
    217 H217       -7.1473  -23.7515  -54.5292 H         1 UNK         0.0600 
    218 H218       -7.7342  -25.1289  -53.6115 H         1 UNK         0.0600 
    219 H219       -6.1626  -25.2050  -54.4099 H         1 UNK         0.0600 
    220 H220       -3.6678  -24.5800  -52.6339 H         1 UNK         0.3000 
    221 H221       -2.6699  -22.2355  -54.0575 H         1 UNK         0.0600 
    222 H222       -1.2251  -24.6021  -52.7798 H         1 UNK         0.0600 
    223 H223       -1.7017  -24.4713  -54.4705 H         1 UNK         0.0600 
    224 H224       -0.4845  -23.3865  -53.8127 H         1 UNK         0.0600 
    225 H225       -3.7762  -20.9399  -52.3606 H         1 UNK         0.3000 
    226 H226       -1.8818  -19.6252  -50.6488 H         1 UNK         0.0600 
    227 H227       -2.5497  -21.4916  -49.0999 H         1 UNK         0.0600 
    228 H228       -3.1246  -19.9405  -48.5083 H         1 UNK         0.0600 
    229 H229       -4.2403  -21.0590  -49.2880 H         1 UNK         0.0600 
    230 H230       -5.1956  -20.1241  -51.8518 H         1 UNK         0.3000 
    231 H231       -6.1859  -17.4944  -51.1429 H         1 UNK         0.0600 
    232 H232       -7.6623  -19.4797  -51.2060 H         1 UNK         0.0600 
    233 H233       -7.3048  -19.7333  -52.9132 H         1 UNK         0.0600 
    234 H234       -8.1890  -18.3010  -52.3966 H         1 UNK         0.0600 
    235 H235       -4.1372  -16.6188  -52.1907 H         1 UNK         0.3000 
    236 H236       -3.1957  -15.1820  -53.5578 H         1 UNK         0.0600 
    237 H237       -4.4664  -13.9683  -55.2912 H         1 UNK         0.0600 
    238 H238       -5.7655  -15.1477  -55.2256 H         1 UNK         0.0600 
    239 H239       -5.4311  -14.1207  -53.8316 H         1 UNK         0.0600 
    240 H240       -4.4568  -18.0530  -55.0360 H         1 UNK         0.3000 
    241 H241       -3.5958  -19.5669  -56.3717 H         1 UNK         0.0600 
    242 H242       -4.4180  -17.1388  -59.2697 H         1 UNK         0.3800 
    243 H243       -4.7835  -16.9275  -57.5762 H         1 UNK         0.3800 
    244 H244       -0.9216  -18.1063  -56.4841 H         1 UNK         0.0800 
    245 H245       -1.2169  -19.7739  -56.8818 H         1 UNK         0.0800 
    246 H246        0.8746  -18.3184  -54.4935 H         1 UNK         0.0800 
    247 H247       -0.4577  -17.2134  -54.2603 H         1 UNK         0.0800 
@<TRIPOS>BOND
     1    1    2 1    
     2    1  127 1    
     3    1  128 1    
     4    1  129 1    
     5    2    3 2    
     6    2    4 am   BACKBONE|DICT|INTERRES
     7    4    5 1    
     8    4  130 1    
     9    5    6 1    
    10    5   65 1    
    11    5  131 1    
    12    6    7 1    
    13    6  132 1    
    14    6  133 1    
    15    7    8 1    
    16    8    9 1    
    17    8  134 1    
    18    8  135 1    
    19    9   10 ar   
    20    9   14 ar   
    21   10   11 ar   
    22   10  136 1    
    23   11   12 ar   
    24   11  126 1    
    25   12   13 ar   
    26   12  137 1    
    27   13   14 ar   
    28   13   15 1    
    29   14  138 1    
    30   15   16 1    
    31   15  139 1    
    32   15  140 1    
    33   16   17 1    
    34   17   18 1    
    35   17  141 1    
    36   17  142 1    
    37   18   19 1    
    38   18   67 1    
    39   18  143 1    
    40   19   20 am   BACKBONE|DICT|INTERRES
    41   19  144 1    
    42   20   21 2    
    43   20   22 1    
    44   22   23 1    
    45   22   24 1    
    46   22  145 1    
    47   23  146 1    
    48   23  147 1    
    49   23  148 1    
    50   24   25 am   BACKBONE|DICT|INTERRES
    51   24  149 1    
    52   25   26 2    
    53   25   27 1    
    54   27   28 1    
    55   27   29 1    
    56   27  150 1    
    57   28  151 1    
    58   28  152 1    
    59   28  153 1    
    60   29   30 am   BACKBONE|DICT|INTERRES
    61   29  154 1    
    62   30   31 2    
    63   30   32 1    
    64   32   33 1    
    65   32   34 1    
    66   32  155 1    
    67   33  156 1    
    68   33  157 1    
    69   33  158 1    
    70   34   35 am   BACKBONE|DICT|INTERRES
    71   34  159 1    
    72   35   36 2    
    73   35   37 1    
    74   37   38 1    
    75   37   39 1    
    76   37  160 1    
    77   38  161 1    
    78   38  162 1    
    79   38  163 1    
    80   39   40 am   BACKBONE|DICT|INTERRES
    81   39  164 1    
    82   40   41 2    
    83   40   42 1    
    84   42   43 1    
    85   42   44 1    
    86   42  165 1    
    87   43  166 1    
    88   43  167 1    
    89   43  168 1    
    90   44   45 am   BACKBONE|DICT|INTERRES
    91   44  169 1    
    92   45   46 2    
    93   45   47 1    
    94   47   48 1    
    95   47   49 1    
    96   47  170 1    
    97   48  171 1    
    98   48  172 1    
    99   48  173 1    
   100   49   50 am   BACKBONE|DICT|INTERRES
   101   49  174 1    
   102   50   51 2    
   103   50   52 1    
   104   52   53 1    
   105   52   54 1    
   106   52  175 1    
   107   53  176 1    
   108   53  177 1    
   109   53  178 1    
   110   54   55 am   BACKBONE|DICT|INTERRES
   111   54  179 1    
   112   55   56 2    
   113   55   57 1    
   114   57   58 1    
   115   57   59 1    
   116   57  180 1    
   117   58  181 1    
   118   58  182 1    
   119   58  183 1    
   120   59   60 am   BACKBONE|DICT|INTERRES
   121   59  184 1    
   122   60   61 2    
   123   60   62 1    
   124   62   63 1    
   125   62   64 1    
   126   62  185 1    
   127   63  186 1    
   128   63  187 1    
   129   63  188 1    
   130   64   65 am   BACKBONE|DICT|INTERRES
   131   64  189 1    
   132   65   66 2    
   133   67   68 2    
   134   67   69 am   BACKBONE|DICT|INTERRES
   135   69   70 1    
   136   69  190 1    
   137   70   71 1    
   138   70   72 1    
   139   70  191 1    
   140   71  192 1    
   141   71  193 1    
   142   71  194 1    
   143   72   73 2    
   144   72   74 am   BACKBONE|DICT|INTERRES
   145   74   75 1    
   146   74  195 1    
   147   75   76 1    
   148   75   77 1    
   149   75  196 1    
   150   76  197 1    
   151   76  198 1    
   152   76  199 1    
   153   77   78 2    
   154   77   79 am   BACKBONE|DICT|INTERRES
   155   79   80 1    
   156   79  200 1    
   157   80   81 1    
   158   80   82 1    
   159   80  201 1    
   160   81  202 1    
   161   81  203 1    
   162   81  204 1    
   163   82   83 2    
   164   82   84 am   BACKBONE|DICT|INTERRES
   165   84   85 1    
   166   84  205 1    
   167   85   86 1    
   168   85   87 1    
   169   85  206 1    
   170   86  207 1    
   171   86  208 1    
   172   86  209 1    
   173   87   88 2    
   174   87   89 am   BACKBONE|DICT|INTERRES
   175   89   90 1    
   176   89  210 1    
   177   90   91 1    
   178   90   92 1    
   179   90  211 1    
   180   91  212 1    
   181   91  213 1    
   182   91  214 1    
   183   92   93 2    
   184   92   94 am   BACKBONE|DICT|INTERRES
   185   94   95 1    
   186   94  215 1    
   187   95   96 1    
   188   95   97 1    
   189   95  216 1    
   190   96  217 1    
   191   96  218 1    
   192   96  219 1    
   193   97   98 2    
   194   97   99 am   BACKBONE|DICT|INTERRES
   195   99  100 1    
   196   99  220 1    
   197  100  101 1    
   198  100  102 1    
   199  100  221 1    
   200  101  222 1    
   201  101  223 1    
   202  101  224 1    
   203  102  103 2    
   204  102  104 am   BACKBONE|DICT|INTERRES
   205  104  105 1    
   206  104  225 1    
   207  105  106 1    
   208  105  107 1    
   209  105  226 1    
   210  106  227 1    
   211  106  228 1    
   212  106  229 1    
   213  107  108 2    
   214  107  109 am   BACKBONE|DICT|INTERRES
   215  109  110 1    
   216  109  230 1    
   217  110  111 1    
   218  110  112 1    
   219  110  231 1    
   220  111  232 1    
   221  111  233 1    
   222  111  234 1    
   223  112  113 2    
   224  112  114 am   BACKBONE|DICT|INTERRES
   225  114  115 1    
   226  114  235 1    
   227  115  116 1    
   228  115  117 1    
   229  115  236 1    
   230  116  237 1    
   231  116  238 1    
   232  116  239 1    
   233  117  118 2    
   234  117  119 am   BACKBONE|DICT|INTERRES
   235  119  120 1    
   236  119  240 1    
   237  120  121 1    
   238  120  124 1    
   239  120  241 1    
   240  121  122 am   BACKBONE|DICT|INTERRES
   241  121  123 2    
   242  122  242 1    
   243  122  243 1    
   244  124  125 1    
   245  124  244 1    
   246  124  245 1    
   247  125  126 1    
   248  126  246 1    
   249  126  247 1    
@<TRIPOS>SUBSTRUCTURE
     1 UNK         1 GROUP             0       ****    0 ROOT    
