@<TRIPOS>MOLECULE
3R540
247   249    1
SMALL
USER_CHARGES


@<TRIPOS>ATOM
      1 CA         -0.4629  -15.0119  -48.3590 C.3       0 UNK        -0.1800 
      2 C          -0.7192  -14.2497  -49.6578 C.2       0 UNK         0.5000 
      3 O           0.1244  -14.2824  -50.5500 O.2       0 UNK        -0.5000 
      4 N          -1.8554  -13.5563  -49.8202 N.am      1 UNK        -0.5000 
      5 CA         -2.9002  -13.3250  -48.8145 C.3       1 UNK         0.1400 
      6 C6         -4.2182  -12.8527  -49.4806 C.3       23 UNK        -0.0398 
      7 S7         -5.6807  -13.1055  -48.4172 S.3       23 UNK        -0.2404 
      8 C8         -6.3834  -14.6392  -49.1061 C.3       23 UNK        -0.0205 
      9 C9         -5.4146  -15.8093  -49.0122 C.ar      23 UNK        -0.0193 
     10 C10        -4.8576  -16.3595  -50.1687 C.ar      23 UNK        -0.1150 
     11 C11        -3.9729  -17.4369  -50.0857 C.ar      23 UNK        -0.0193 
     12 C12        -3.6360  -17.9566  -48.8321 C.ar      23 UNK        -0.1150 
     13 C13        -4.1745  -17.4065  -47.6604 C.ar      23 UNK        -0.0193 
     14 C14        -5.0738  -16.3416  -47.7665 C.ar      23 UNK        -0.1150 
     15 C15        -3.8357  -17.9211  -46.2610 C.3       23 UNK        -0.0205 
     16 S16        -2.3420  -18.9592  -46.1384 S.3       23 UNK        -0.2404 
     17 C17        -3.0313  -20.6302  -46.3960 C.3       23 UNK        -0.0398 
     18 CA         -1.9738  -21.6532  -46.8775 C.3       11 UNK         0.1400 
     19 N          -0.7589  -21.6043  -46.0574 N.am      11 UNK        -0.5000 
     20 C           0.3611  -22.3219  -46.2147 C.2       10 UNK         0.5000 
     21 O           0.4969  -23.1900  -47.0756 O.2       10 UNK        -0.5000 
     22 CA          1.5130  -22.0463  -45.2283 C.3       10 UNK         0.1400 
     23 CB          2.6763  -21.3444  -45.9433 C.3       10 UNK        -0.1800 
     24 N           1.1049  -21.2374  -44.0768 N.am      10 UNK        -0.5000 
     25 C           0.3460  -21.6710  -43.0604 C.2       9 UNK         0.5000 
     26 O          -0.0852  -22.8230  -42.9817 O.2       9 UNK        -0.5000 
     27 CA         -0.0069  -20.6273  -41.9799 C.3       9 UNK         0.1400 
     28 CB         -0.5736  -21.2523  -40.6884 C.3       9 UNK        -0.1800 
     29 N           1.1059  -19.7204  -41.6844 N.am      9 UNK        -0.5000 
     30 C           2.3057  -20.0301  -41.1697 C.2       8 UNK         0.5000 
     31 O           2.6314  -21.1644  -40.8176 O.2       8 UNK        -0.5000 
     32 CA          3.3302  -18.8833  -41.0377 C.3       8 UNK         0.1400 
     33 CB          4.4479  -19.0501  -42.0795 C.3       8 UNK        -0.1800 
     34 N           2.7429  -17.5512  -41.1951 N.am      8 UNK        -0.5000 
     35 C           1.9677  -16.9304  -40.2958 C.2       7 UNK         0.5000 
     36 O           1.7135  -17.3842  -39.1799 O.2       7 UNK        -0.5000 
     37 CA          1.3333  -15.5992  -40.7437 C.3       7 UNK         0.1400 
     38 CB          2.2927  -14.4226  -40.5073 C.3       7 UNK        -0.1800 
     39 N           0.9239  -15.6261  -42.1511 N.am      7 UNK        -0.5000 
     40 C          -0.0900  -16.3616  -42.6299 C.2       6 UNK         0.5000 
     41 O          -0.8164  -17.0625  -41.9258 O.2       6 UNK        -0.5000 
     42 CA         -0.3002  -16.3533  -44.1531 C.3       6 UNK         0.1400 
     43 CB         -1.2054  -15.1878  -44.5785 C.3       6 UNK        -0.1800 
     44 N           0.9657  -16.3078  -44.8869 N.am      6 UNK        -0.5000 
     45 C           1.7931  -17.3592  -45.0001 C.2       5 UNK         0.5000 
     46 O           1.5482  -18.4686  -44.5254 O.2       5 UNK        -0.5000 
     47 CA          3.1474  -17.1263  -45.7024 C.3       5 UNK         0.1400 
     48 CB          3.0294  -17.3548  -47.2156 C.3       5 UNK        -0.1800 
     49 N           3.7004  -15.7925  -45.4694 N.am      5 UNK        -0.5000 
     50 C           4.0152  -15.2866  -44.2696 C.2       4 UNK         0.5000 
     51 O           3.9485  -15.9304  -43.2242 O.2       4 UNK        -0.5000 
     52 CA          4.4187  -13.7998  -44.2149 C.3       4 UNK         0.1400 
     53 CB          5.9461  -13.6638  -44.1321 C.3       4 UNK        -0.1800 
     54 N           3.9241  -12.9904  -45.3355 N.am      4 UNK        -0.5000 
     55 C           2.6372  -12.8213  -45.6679 C.2       3 UNK         0.5000 
     56 O           1.6979  -13.3816  -45.0946 O.2       3 UNK        -0.5000 
     57 CA          2.3649  -11.9153  -46.8744 C.3       3 UNK         0.1400 
     58 CB          2.7152  -12.6324  -48.1911 C.3       3 UNK        -0.1800 
     59 N           0.9546  -11.5461  -46.8767 N.am      3 UNK        -0.5000 
     60 C           0.4463  -10.4278  -47.4011 C.2       2 UNK         0.5000 
     61 O           1.1212   -9.5735  -47.9788 O.2       2 UNK        -0.5000 
     62 CA         -1.0799  -10.2830  -47.3033 C.3       2 UNK         0.1400 
     63 CB         -1.5824   -8.8979  -47.7505 C.3       2 UNK        -0.1800 
     64 N          -1.6861  -11.3033  -48.1534 N.am      2 UNK        -0.5000 
     65 C          -2.4252  -12.3350  -47.7285 C.2       1 UNK         0.5000 
     66 O          -2.6955  -12.5436  -46.5462 O.2       1 UNK        -0.5000 
     67 C          -2.6034  -23.0608  -46.9625 C.2       11 UNK         0.5000 
     68 O          -3.2644  -23.3693  -47.9549 O.2       11 UNK        -0.5000 
     69 N          -2.3673  -23.9004  -45.9438 N.am      12 UNK        -0.5000 
     70 CA         -2.7620  -25.3084  -45.9044 C.3       12 UNK         0.1400 
     71 CB         -2.4740  -25.8729  -44.5059 C.3       12 UNK        -0.1800 
     72 C          -2.0676  -26.1587  -46.9861 C.2       12 UNK         0.5000 
     73 O          -2.7074  -27.0394  -47.5614 O.2       12 UNK        -0.5000 
     74 N          -0.7956  -25.8502  -47.2844 N.am      13 UNK        -0.5000 
     75 CA         -0.0127  -26.4940  -48.3448 C.3       13 UNK         0.1400 
     76 CB          1.4826  -26.2214  -48.1211 C.3       13 UNK        -0.1800 
     77 C          -0.4469  -26.0423  -49.7526 C.2       13 UNK         0.5000 
     78 O          -0.2226  -26.7688  -50.7201 O.2       13 UNK        -0.5000 
     79 N          -1.1129  -24.8827  -49.8327 N.am      14 UNK        -0.5000 
     80 CA         -1.7785  -24.3516  -51.0218 C.3       14 UNK         0.1400 
     81 CB         -1.7058  -22.8159  -50.9808 C.3       14 UNK        -0.1800 
     82 C          -3.2300  -24.8632  -51.1547 C.2       14 UNK         0.5000 
     83 O          -4.0555  -24.1921  -51.7756 O.2       14 UNK        -0.5000 
     84 N          -3.5201  -26.0316  -50.5614 N.am      15 UNK        -0.5000 
     85 CA         -4.8053  -26.7348  -50.5479 C.3       15 UNK         0.1400 
     86 CB         -5.1501  -27.2640  -51.9554 C.3       15 UNK        -0.1800 
     87 C          -5.9290  -25.8979  -49.9054 C.2       15 UNK         0.5000 
     88 O          -7.0280  -25.8067  -50.4529 O.2       15 UNK        -0.5000 
     89 N          -5.6062  -25.2944  -48.7521 N.am      16 UNK        -0.5000 
     90 CA         -6.4442  -24.3942  -47.9548 C.3       16 UNK         0.1400 
     91 CB         -7.6872  -25.1252  -47.4046 C.3       16 UNK        -0.1800 
     92 C          -6.7773  -23.1002  -48.7225 C.2       16 UNK         0.5000 
     93 O          -7.9489  -22.7676  -48.9096 O.2       16 UNK        -0.5000 
     94 N          -5.7136  -22.4061  -49.1541 N.am      17 UNK        -0.5000 
     95 CA         -5.7131  -21.1200  -49.8649 C.3       17 UNK         0.1400 
     96 CB         -6.3711  -20.0212  -49.0001 C.3       17 UNK        -0.1800 
     97 C          -6.3187  -21.1704  -51.2856 C.2       17 UNK         0.5000 
     98 O          -6.6806  -20.1240  -51.8264 O.2       17 UNK        -0.5000 
     99 N          -6.4261  -22.3688  -51.8728 N.am      18 UNK        -0.5000 
    100 CA        -6.9815  -22.5789  -53.2081 C.3       18 UNK         0.1400 
    101 CB        -7.4839  -24.0239  -53.3322 C.3       18 UNK        -0.1800 
    102 C         -5.9645  -22.2566  -54.3151 C.2       18 UNK         0.5000 
    103 O         -6.3365  -21.6472  -55.3193 O.2       18 UNK        -0.5000 
    104 N         -4.7057  -22.6693  -54.1189 N.am      19 UNK        -0.5000 
    105 CA        -3.6034  -22.3976  -55.0376 C.3       19 UNK         0.1400 
    106 CB        -2.5231  -23.4779  -54.8750 C.3       19 UNK        -0.1800 
    107 C         -3.0179  -20.9977  -54.7896 C.2       19 UNK         0.5000 
    108 O         -2.9358  -20.5544  -53.6421 O.2       19 UNK        -0.5000 
    109 N         -2.5712  -20.3499  -55.8724 N.am      20 UNK        -0.5000 
    110 CA        -2.0115  -18.9937  -55.8799 C.3       20 UNK         0.1400 
    111 CB        -1.9810  -18.4870  -57.3312 C.3       20 UNK        -0.1800 
    112 C         -0.6168  -18.8680  -55.2302 C.2       20 UNK         0.5000 
    113 O         -0.1371  -17.7479  -55.0522 O.2       20 UNK        -0.5000 
    114 N          0.0167  -20.0022  -54.8986 N.am      21 UNK        -0.5000 
    115 CA         1.2856  -20.0681  -54.1720 C.3       21 UNK         0.1400 
    116 CB         1.8104  -21.5120  -54.2114 C.3       21 UNK        -0.1800 
    117 C          1.1645  -19.5788  -52.7152 C.2       21 UNK         0.5000 
    118 O          2.1012  -18.9643  -52.2049 O.2       21 UNK        -0.5000 
    119 N          0.0132  -19.8599  -52.0878 N.am      22 UNK        -0.5000 
    120 CA        -0.3778  -19.4306  -50.7322 C.3       22 UNK         0.1400 
    121 C          0.5172  -19.9484  -49.5637 C.2       22 UNK         0.5000 
    122 N          1.3563  -20.9568  -49.7638 N.am      22 UNK        -0.7600 
    123 O          0.4181  -19.4606  -48.4438 O.2       22 UNK        -0.5000 
    124 C124       -0.6536  -17.9031  -50.6391 C.3       23 UNK        -0.0398 
    125 S125       -1.8498  -17.2870  -51.8784 S.3       23 UNK        -0.2404 
    126 C126       -3.4145  -18.0588  -51.3559 C.3       23 UNK        -0.0205 
    127 H127       -1.3172  -15.6291  -48.0819 H         1 UNK         0.0600 
    128 H128        0.3892  -15.6797  -48.4774 H         1 UNK         0.0600 
    129 H129       -0.2371  -14.3251  -47.5440 H         1 UNK         0.0600 
    130 H130       -2.0027  -13.0981  -50.7079 H         1 UNK         0.3000 
    131 H131       -3.1010  -14.2776  -48.3233 H         1 UNK         0.0600 
    132 H132       -4.3808  -13.3936  -50.4139 H         1 UNK         0.0800 
    133 H133       -4.1647  -11.7993  -49.7615 H         1 UNK         0.0800 
    134 H134       -6.6848  -14.4640  -50.1400 H         1 UNK         0.0800 
    135 H135       -7.2949  -14.8866  -48.5604 H         1 UNK         0.0800 
    136 H136       -5.1184  -15.9563  -51.1371 H         1 UNK         0.1150 
    137 H137       -2.9570  -18.7940  -48.7819 H         1 UNK         0.1150 
    138 H138       -5.5034  -15.9113  -46.8724 H         1 UNK         0.1150 
    139 H139       -3.6833  -17.0630  -45.6044 H         1 UNK         0.0800 
    140 H140       -4.6932  -18.4633  -45.8604 H         1 UNK         0.0800 
    141 H141       -3.4805  -20.9502  -45.4538 H         1 UNK         0.0800 
    142 H142       -3.8438  -20.5689  -47.1206 H         1 UNK         0.0800 
    143 H143       -1.6754  -21.3787  -47.8905 H         1 UNK         0.0600 
    144 H144       -0.7442  -20.8784  -45.3564 H         1 UNK         0.3000 
    145 H145        1.8687  -23.0111  -44.8615 H         1 UNK         0.0600 
    146 H146        3.5004  -21.1433  -45.2585 H         1 UNK         0.0600 
    147 H147        3.0671  -21.9613  -46.7533 H         1 UNK         0.0600 
    148 H148        2.3592  -20.3962  -46.3763 H         1 UNK         0.0600 
    149 H149        1.3704  -20.2541  -44.1036 H         1 UNK         0.3000 
    150 H150       -0.7919  -20.0045  -42.4114 H         1 UNK         0.0600 
    151 H151       -1.4900  -21.8069  -40.8931 H         1 UNK         0.0600 
    152 H152       -0.8173  -20.4843  -39.9542 H         1 UNK         0.0600 
    153 H153        0.1306  -21.9459  -40.2283 H         1 UNK         0.0600 
    154 H154        0.9582  -18.7580  -41.9553 H         1 UNK         0.3000 
    155 H155        3.7737  -18.9495  -40.0422 H         1 UNK         0.0600 
    156 H156        4.9526  -20.0101  -41.9642 H         1 UNK         0.0600 
    157 H157        5.2037  -18.2711  -41.9770 H         1 UNK         0.0600 
    158 H158        4.0562  -19.0054  -43.0961 H         1 UNK         0.0600 
    159 H159        2.9725  -17.0576  -42.0540 H         1 UNK         0.3000 
    160 H160        0.4414  -15.4345  -40.1353 H         1 UNK         0.0600 
    161 H161        3.2194  -14.5329  -41.0702 H         1 UNK         0.0600 
    162 H162        1.8353  -13.4758  -40.7952 H         1 UNK         0.0600 
    163 H163        2.5600  -14.3468  -39.4526 H         1 UNK         0.0600 
    164 H164        1.4858  -15.0970  -42.8021 H         1 UNK         0.3000 
    165 H165       -0.8117  -17.2812  -44.4096 H         1 UNK         0.0600 
    166 H166       -1.4578  -15.2511  -45.6358 H         1 UNK         0.0600 
    167 H167       -2.1458  -15.2037  -44.0262 H         1 UNK         0.0600 
    168 H168       -0.7377  -14.2198  -44.3985 H         1 UNK         0.0600 
    169 H169        1.2580  -15.4018  -45.2350 H         1 UNK         0.3000 
    170 H170        3.8542  -17.8554  -45.3017 H         1 UNK         0.0600 
    171 H171        2.6267  -18.3429  -47.4345 H         1 UNK         0.0600 
    172 H172        2.3715  -16.6231  -47.6834 H         1 UNK         0.0600 
    173 H173        4.0029  -17.2895  -47.7018 H         1 UNK         0.0600 
    174 H174        3.7911  -15.1924  -46.2750 H         1 UNK         0.3000 
    175 H175        3.9895  -13.3864  -43.3001 H         1 UNK         0.0600 
    176 H176        6.4321  -14.0315  -45.0367 H         1 UNK         0.0600 
    177 H177        6.2434  -12.6249  -43.9881 H         1 UNK         0.0600 
    178 H178        6.3445  -14.2328  -43.2908 H         1 UNK         0.0600 
    179 H179        4.6289  -12.5057  -45.8728 H         1 UNK         0.3000 
    180 H180        2.9775  -11.0172  -46.7692 H         1 UNK         0.0600 
    181 H181        3.7754  -12.8838  -48.2344 H         1 UNK         0.0600 
    182 H182        2.1532  -13.5594  -48.3071 H         1 UNK         0.0600 
    183 H183        2.4989  -12.0033  -49.0547 H         1 UNK         0.0600 
    184 H184        0.3564  -12.1832  -46.3654 H         1 UNK         0.3000 
    185 H185       -1.3582  -10.4220  -46.2565 H         1 UNK         0.0600 
    186 H186       -1.1366   -8.1070  -47.1461 H         1 UNK         0.0600 
    187 H187       -1.3382   -8.6943  -48.7939 H         1 UNK         0.0600 
    188 H188       -2.6642   -8.8201  -47.6404 H         1 UNK         0.0600 
    189 H189       -1.4539  -11.2503  -49.1353 H         1 UNK         0.3000 
    190 H190       -1.8110  -23.5659  -45.1692 H         1 UNK         0.3000 
    191 H191       -3.8384  -25.3624  -46.0786 H         1 UNK         0.0600 
    192 H192       -2.7706  -26.9204  -44.4380 H         1 UNK         0.0600 
    193 H193       -3.0271  -25.3290  -43.7399 H         1 UNK         0.0600 
    194 H194       -1.4132  -25.8140  -44.2580 H         1 UNK         0.0600 
    195 H195       -0.3595  -25.0533  -46.8337 H         1 UNK         0.3000 
    196 H196       -0.1718  -27.5725  -48.2802 H         1 UNK         0.0600 
    197 H197        2.0887  -26.7809  -48.8347 H         1 UNK         0.0600 
    198 H198        1.7957  -26.5234  -47.1217 H         1 UNK         0.0600 
    199 H199        1.7268  -25.1665  -48.2468 H         1 UNK         0.0600 
    200 H200       -1.2661  -24.3696  -48.9760 H         1 UNK         0.3000 
    201 H201       -1.2438  -24.6873  -51.9122 H         1 UNK         0.0600 
    202 H202       -0.6696  -22.4850  -50.9503 H         1 UNK         0.0600 
    203 H203       -2.2179  -22.4047  -50.1129 H         1 UNK         0.0600 
    204 H204       -2.1617  -22.3668  -51.8615 H         1 UNK         0.0600 
    205 H205       -2.7789  -26.4857  -50.0466 H         1 UNK         0.3000 
    206 H206       -4.6730  -27.6018  -49.8989 H         1 UNK         0.0600 
    207 H207       -4.3718  -27.9334  -52.3215 H         1 UNK         0.0600 
    208 H208       -6.0833  -27.8284  -51.9470 H         1 UNK         0.0600 
    209 H209       -5.2591  -26.4581  -52.6796 H         1 UNK         0.0600 
    210 H210       -4.6521  -25.3924  -48.4332 H         1 UNK         0.3000 
    211 H211       -5.8431  -24.0935  -47.0956 H         1 UNK         0.0600 
    212 H212       -8.3723  -25.4252  -48.1978 H         1 UNK         0.0600 
    213 H213       -8.2437  -24.4820  -46.7220 H         1 UNK         0.0600 
    214 H214       -7.4042  -26.0196  -46.8497 H         1 UNK         0.0600 
    215 H215       -4.7964  -22.7899  -48.9411 H         1 UNK         0.3000 
    216 H216       -4.6639  -20.8531  -49.9968 H         1 UNK         0.0600 
    217 H217       -6.2549  -19.0380  -49.4552 H         1 UNK         0.0600 
    218 H218       -5.9274  -19.9712  -48.0070 H         1 UNK         0.0600 
    219 H219       -7.4415  -20.1856  -48.8781 H         1 UNK         0.0600 
    220 H220       -6.0476  -23.1803  -51.4012 H         1 UNK         0.3000 
    221 H221       -7.8408  -21.9177  -53.3396 H         1 UNK         0.0600 
    222 H222       -6.6740  -24.7405  -53.2036 H         1 UNK         0.0600 
    223 H223       -8.2448  -24.2423  -52.5826 H         1 UNK         0.0600 
    224 H224       -7.9289  -24.2014  -54.3119 H         1 UNK         0.0600 
    225 H225       -4.4735  -23.1424  -53.2484 H         1 UNK         0.3000 
    226 H226       -3.9778  -22.4490  -56.0624 H         1 UNK         0.0600 
    227 H227       -2.9394  -24.4757  -55.0153 H         1 UNK         0.0600 
    228 H228       -1.7297  -23.3504  -55.6123 H         1 UNK         0.0600 
    229 H229       -2.0601  -23.4460  -53.8908 H         1 UNK         0.0600 
    230 H230       -2.6533  -20.7970  -56.7744 H         1 UNK         0.3000 
    231 H231       -2.6841  -18.3502  -55.3084 H         1 UNK         0.0600 
    232 H232       -1.3290  -19.0984  -57.9563 H         1 UNK         0.0600 
    233 H233       -2.9773  -18.4954  -57.7737 H         1 UNK         0.0600 
    234 H234       -1.6156  -17.4604  -57.3817 H         1 UNK         0.0600 
    235 H235       -0.4394  -20.8774  -55.1055 H         1 UNK         0.3000 
    236 H236        2.0061  -19.4257  -54.6826 H         1 UNK         0.0600 
    237 H237        1.1174  -22.2073  -53.7356 H         1 UNK         0.0600 
    238 H238        1.9697  -21.8457  -55.2369 H         1 UNK         0.0600 
    239 H239        2.7664  -21.5938  -53.6924 H         1 UNK         0.0600 
    240 H240       -0.7105  -20.3274  -52.6165 H         1 UNK         0.3000 
    241 H241       -1.3244  -19.9348  -50.5475 H         1 UNK         0.0600 
    242 H242        1.9014  -21.3004  -48.9912 H         1 UNK         0.3800 
    243 H243        1.4663  -21.3620  -50.6778 H         1 UNK         0.3800 
    244 H244        0.2771  -17.3494  -50.7706 H         1 UNK         0.0800 
    245 H245       -1.0182  -17.6323  -49.6486 H         1 UNK         0.0800 
    246 H246       -4.1377  -17.9455  -52.1650 H         1 UNK         0.0800 
    247 H247       -3.2902  -19.1341  -51.2350 H         1 UNK         0.0800 
@<TRIPOS>BOND
     1    1    2 1    
     2    1  127 1    
     3    1  128 1    
     4    1  129 1    
     5    2    3 2    
     6    2    4 am   BACKBONE|DICT|INTERRES
     7    4    5 1    
     8    4  130 1    
     9    5    6 1    
    10    5   65 1    
    11    5  131 1    
    12    6    7 1    
    13    6  132 1    
    14    6  133 1    
    15    7    8 1    
    16    8    9 1    
    17    8  134 1    
    18    8  135 1    
    19    9   10 ar   
    20    9   14 ar   
    21   10   11 ar   
    22   10  136 1    
    23   11   12 ar   
    24   11  126 1    
    25   12   13 ar   
    26   12  137 1    
    27   13   14 ar   
    28   13   15 1    
    29   14  138 1    
    30   15   16 1    
    31   15  139 1    
    32   15  140 1    
    33   16   17 1    
    34   17   18 1    
    35   17  141 1    
    36   17  142 1    
    37   18   19 1    
    38   18   67 1    
    39   18  143 1    
    40   19   20 am   BACKBONE|DICT|INTERRES
    41   19  144 1    
    42   20   21 2    
    43   20   22 1    
    44   22   23 1    
    45   22   24 1    
    46   22  145 1    
    47   23  146 1    
    48   23  147 1    
    49   23  148 1    
    50   24   25 am   BACKBONE|DICT|INTERRES
    51   24  149 1    
    52   25   26 2    
    53   25   27 1    
    54   27   28 1    
    55   27   29 1    
    56   27  150 1    
    57   28  151 1    
    58   28  152 1    
    59   28  153 1    
    60   29   30 am   BACKBONE|DICT|INTERRES
    61   29  154 1    
    62   30   31 2    
    63   30   32 1    
    64   32   33 1    
    65   32   34 1    
    66   32  155 1    
    67   33  156 1    
    68   33  157 1    
    69   33  158 1    
    70   34   35 am   BACKBONE|DICT|INTERRES
    71   34  159 1    
    72   35   36 2    
    73   35   37 1    
    74   37   38 1    
    75   37   39 1    
    76   37  160 1    
    77   38  161 1    
    78   38  162 1    
    79   38  163 1    
    80   39   40 am   BACKBONE|DICT|INTERRES
    81   39  164 1    
    82   40   41 2    
    83   40   42 1    
    84   42   43 1    
    85   42   44 1    
    86   42  165 1    
    87   43  166 1    
    88   43  167 1    
    89   43  168 1    
    90   44   45 am   BACKBONE|DICT|INTERRES
    91   44  169 1    
    92   45   46 2    
    93   45   47 1    
    94   47   48 1    
    95   47   49 1    
    96   47  170 1    
    97   48  171 1    
    98   48  172 1    
    99   48  173 1    
   100   49   50 am   BACKBONE|DICT|INTERRES
   101   49  174 1    
   102   50   51 2    
   103   50   52 1    
   104   52   53 1    
   105   52   54 1    
   106   52  175 1    
   107   53  176 1    
   108   53  177 1    
   109   53  178 1    
   110   54   55 am   BACKBONE|DICT|INTERRES
   111   54  179 1    
   112   55   56 2    
   113   55   57 1    
   114   57   58 1    
   115   57   59 1    
   116   57  180 1    
   117   58  181 1    
   118   58  182 1    
   119   58  183 1    
   120   59   60 am   BACKBONE|DICT|INTERRES
   121   59  184 1    
   122   60   61 2    
   123   60   62 1    
   124   62   63 1    
   125   62   64 1    
   126   62  185 1    
   127   63  186 1    
   128   63  187 1    
   129   63  188 1    
   130   64   65 am   BACKBONE|DICT|INTERRES
   131   64  189 1    
   132   65   66 2    
   133   67   68 2    
   134   67   69 am   BACKBONE|DICT|INTERRES
   135   69   70 1    
   136   69  190 1    
   137   70   71 1    
   138   70   72 1    
   139   70  191 1    
   140   71  192 1    
   141   71  193 1    
   142   71  194 1    
   143   72   73 2    
   144   72   74 am   BACKBONE|DICT|INTERRES
   145   74   75 1    
   146   74  195 1    
   147   75   76 1    
   148   75   77 1    
   149   75  196 1    
   150   76  197 1    
   151   76  198 1    
   152   76  199 1    
   153   77   78 2    
   154   77   79 am   BACKBONE|DICT|INTERRES
   155   79   80 1    
   156   79  200 1    
   157   80   81 1    
   158   80   82 1    
   159   80  201 1    
   160   81  202 1    
   161   81  203 1    
   162   81  204 1    
   163   82   83 2    
   164   82   84 am   BACKBONE|DICT|INTERRES
   165   84   85 1    
   166   84  205 1    
   167   85   86 1    
   168   85   87 1    
   169   85  206 1    
   170   86  207 1    
   171   86  208 1    
   172   86  209 1    
   173   87   88 2    
   174   87   89 am   BACKBONE|DICT|INTERRES
   175   89   90 1    
   176   89  210 1    
   177   90   91 1    
   178   90   92 1    
   179   90  211 1    
   180   91  212 1    
   181   91  213 1    
   182   91  214 1    
   183   92   93 2    
   184   92   94 am   BACKBONE|DICT|INTERRES
   185   94   95 1    
   186   94  215 1    
   187   95   96 1    
   188   95   97 1    
   189   95  216 1    
   190   96  217 1    
   191   96  218 1    
   192   96  219 1    
   193   97   98 2    
   194   97   99 am   BACKBONE|DICT|INTERRES
   195   99  100 1    
   196   99  220 1    
   197  100  101 1    
   198  100  102 1    
   199  100  221 1    
   200  101  222 1    
   201  101  223 1    
   202  101  224 1    
   203  102  103 2    
   204  102  104 am   BACKBONE|DICT|INTERRES
   205  104  105 1    
   206  104  225 1    
   207  105  106 1    
   208  105  107 1    
   209  105  226 1    
   210  106  227 1    
   211  106  228 1    
   212  106  229 1    
   213  107  108 2    
   214  107  109 am   BACKBONE|DICT|INTERRES
   215  109  110 1    
   216  109  230 1    
   217  110  111 1    
   218  110  112 1    
   219  110  231 1    
   220  111  232 1    
   221  111  233 1    
   222  111  234 1    
   223  112  113 2    
   224  112  114 am   BACKBONE|DICT|INTERRES
   225  114  115 1    
   226  114  235 1    
   227  115  116 1    
   228  115  117 1    
   229  115  236 1    
   230  116  237 1    
   231  116  238 1    
   232  116  239 1    
   233  117  118 2    
   234  117  119 am   BACKBONE|DICT|INTERRES
   235  119  120 1    
   236  119  240 1    
   237  120  121 1    
   238  120  124 1    
   239  120  241 1    
   240  121  122 am   BACKBONE|DICT|INTERRES
   241  121  123 2    
   242  122  242 1    
   243  122  243 1    
   244  124  125 1    
   245  124  244 1    
   246  124  245 1    
   247  125  126 1    
   248  126  246 1    
   249  126  247 1    
@<TRIPOS>SUBSTRUCTURE
     1 UNK         1 GROUP             0       ****    0 ROOT    
