@<TRIPOS>MOLECULE
3R540
247   249    1
SMALL
USER_CHARGES


@<TRIPOS>ATOM
      1 CA         -1.5232  -13.1357  -41.5940 C.3       0 UNK        -0.1800 
      2 C          -2.0274  -12.3610  -42.8033 C.2       0 UNK         0.5000 
      3 O          -2.4343  -11.2064  -42.6705 O.2       0 UNK        -0.5000 
      4 N          -1.9935  -12.9865  -43.9851 N.am      1 UNK        -0.5000 
      5 CA         -2.4289  -12.4433  -45.2772 C.3       1 UNK         0.1400 
      6 C6         -2.8514  -13.5743  -46.2549 C.3       23 UNK        -0.0398 
      7 S7         -1.6156  -14.9061  -46.4231 S.3       23 UNK        -0.2404 
      8 C8         -2.3990  -15.9963  -47.6553 C.3       23 UNK        -0.0205 
      9 C9         -1.3644  -16.7245  -48.5055 C.ar      23 UNK        -0.0193 
     10 C10        -1.4162  -16.6487  -49.9002 C.ar      23 UNK        -0.1150 
     11 C11        -0.4502  -17.2878  -50.6838 C.ar      23 UNK        -0.0193 
     12 C12         0.5773  -18.0043  -50.0627 C.ar      23 UNK        -0.1150 
     13 C13         0.6271  -18.1107  -48.6714 C.ar      23 UNK        -0.0193 
     14 C14        -0.3493  -17.4719  -47.9023 C.ar      23 UNK        -0.1150 
     15 C15         1.7416  -18.9037  -48.0002 C.3       23 UNK        -0.0205 
     16 S16         1.5597  -20.7068  -48.2237 S.3       23 UNK        -0.2404 
     17 C17        -0.1802  -20.9861  -47.7546 C.3       23 UNK        -0.0398 
     18 CA         -0.4537  -22.4200  -47.2486 C.3       11 UNK         0.1400 
     19 N           0.2815  -22.7439  -46.0194 N.am      11 UNK        -0.5000 
     20 C           0.3342  -23.9670  -45.4710 C.2       10 UNK         0.5000 
     21 O          -0.2086  -24.9583  -45.9573 O.2       10 UNK        -0.5000 
     22 CA          1.0641  -24.0965  -44.1250 C.3       10 UNK         0.1400 
     23 CB          2.5851  -24.1792  -44.3240 C.3       10 UNK        -0.1800 
     24 N           0.7326  -22.9923  -43.2254 N.am      10 UNK        -0.5000 
     25 C          -0.4531  -22.8515  -42.6145 C.2       9 UNK         0.5000 
     26 O          -1.3783  -23.6544  -42.7280 O.2       9 UNK        -0.5000 
     27 CA         -0.6590  -21.5760  -41.7751 C.3       9 UNK         0.1400 
     28 CB         -0.0771  -21.7543  -40.3651 C.3       9 UNK        -0.1800 
     29 N          -0.0700  -20.3905  -42.3981 N.am      9 UNK        -0.5000 
     30 C          -0.4587  -19.8892  -43.5783 C.2       8 UNK         0.5000 
     31 O          -1.4011  -20.3329  -44.2316 O.2       8 UNK        -0.5000 
     32 CA          0.3814  -18.7458  -44.1671 C.3       8 UNK         0.1400 
     33 CB         -0.2330  -17.3818  -43.8335 C.3       8 UNK        -0.1800 
     34 N           1.7984  -18.7757  -43.7892 N.am      8 UNK        -0.5000 
     35 C           2.6336  -19.7821  -44.0937 C.2       7 UNK         0.5000 
     36 O           2.2666  -20.7945  -44.6930 O.2       7 UNK        -0.5000 
     37 CA          4.0961  -19.6671  -43.6114 C.3       7 UNK         0.1400 
     38 CB          5.0727  -20.5071  -44.4617 C.3       7 UNK        -0.1800 
     39 N           4.5636  -18.2834  -43.4696 N.am      7 UNK        -0.5000 
     40 C           4.7296  -17.3791  -44.4451 C.2       6 UNK         0.5000 
     41 O           4.5514  -17.6039  -45.6432 O.2       6 UNK        -0.5000 
     42 CA          5.1422  -15.9665  -43.9859 C.3       6 UNK         0.1400 
     43 CB          6.3817  -15.4685  -44.7468 C.3       6 UNK        -0.1800 
     44 N           4.0538  -15.0086  -44.1687 N.am      6 UNK        -0.5000 
     45 C           2.8498  -15.0778  -43.5834 C.2       5 UNK         0.5000 
     46 O           2.5487  -15.9233  -42.7386 O.2       5 UNK        -0.5000 
     47 CA          1.7999  -14.0331  -44.0166 C.3       5 UNK         0.1400 
     48 CB          1.7861  -12.8637  -43.0229 C.3       5 UNK        -0.1800 
     49 N           1.9694  -13.5150  -45.3803 N.am      5 UNK        -0.5000 
     50 C           1.9783  -14.2598  -46.5003 C.2       4 UNK         0.5000 
     51 O           1.8776  -15.4853  -46.4919 O.2       4 UNK        -0.5000 
     52 CA          2.1442  -13.5363  -47.8533 C.3       4 UNK         0.1400 
     53 CB          1.0618  -13.9502  -48.8636 C.3       4 UNK        -0.1800 
     54 N           2.1311  -12.0794  -47.7253 N.am      4 UNK        -0.5000 
     55 C           3.2215  -11.3144  -47.5824 C.2       3 UNK         0.5000 
     56 O           4.3673  -11.7635  -47.5416 O.2       3 UNK        -0.5000 
     57 CA          3.0050   -9.7925  -47.4515 C.3       3 UNK         0.1400 
     58 CB          3.2683   -9.0962  -48.7956 C.3       3 UNK        -0.1800 
     59 N           1.6697   -9.4178  -46.9788 N.am      3 UNK        -0.5000 
     60 C           1.1812   -9.6953  -45.7631 C.2       2 UNK         0.5000 
     61 O           1.8195  -10.3054  -44.9055 O.2       2 UNK        -0.5000 
     62 CA         -0.2582   -9.2381  -45.4465 C.3       2 UNK         0.1400 
     63 CB         -0.9049   -8.3688  -46.5489 C.3       2 UNK        -0.1800 
     64 N          -1.1325  -10.3671  -45.1160 N.am      2 UNK        -0.5000 
     65 C          -1.4035  -11.4426  -45.8694 C.2       1 UNK         0.5000 
     66 O          -0.8906  -11.6436  -46.9723 O.2       1 UNK        -0.5000 
     67 C          -1.9734  -22.6519  -47.1007 C.2       11 UNK         0.5000 
     68 O          -2.6099  -23.1042  -48.0540 O.2       11 UNK        -0.5000 
     69 N          -2.5249  -22.3566  -45.9154 N.am      12 UNK        -0.5000 
     70 CA         -3.9134  -22.6301  -45.5531 C.3       12 UNK         0.1400 
     71 CB         -4.2853  -21.8456  -44.2865 C.3       12 UNK        -0.1800 
     72 C          -4.1808  -24.1331  -45.3657 C.2       12 UNK         0.5000 
     73 O          -5.1746  -24.6319  -45.8920 O.2       12 UNK        -0.5000 
     74 N          -3.2846  -24.8368  -44.6564 N.am      13 UNK        -0.5000 
     75 CA         -3.3665  -26.2816  -44.4106 C.3       13 UNK         0.1400 
     76 CB         -2.2822  -26.7015  -43.4073 C.3       13 UNK        -0.1800 
     77 C          -3.2674  -27.1237  -45.6962 C.2       13 UNK         0.5000 
     78 O          -3.9810  -28.1183  -45.8303 O.2       13 UNK        -0.5000 
     79 N          -2.4164  -26.6863  -46.6335 N.am      14 UNK        -0.5000 
     80 CA         -2.2801  -27.2557  -47.9756 C.3       14 UNK         0.1400 
     81 CB         -0.9538  -26.7667  -48.5805 C.3       14 UNK        -0.1800 
     82 C          -3.4509  -26.8990  -48.9154 C.2       14 UNK         0.5000 
     83 O          -3.5506  -27.4840  -49.9940 O.2       14 UNK        -0.5000 
     84 N          -4.2812  -25.9239  -48.5126 N.am      15 UNK        -0.5000 
     85 CA         -5.3866  -25.3038  -49.2525 C.3       15 UNK         0.1400 
     86 CB         -6.4814  -26.3322  -49.6003 C.3       15 UNK        -0.1800 
     87 C          -4.9324  -24.4899  -50.4816 C.2       15 UNK         0.5000 
     88 O          -5.7707  -24.0904  -51.2895 O.2       15 UNK        -0.5000 
     89 N          -3.6266  -24.2112  -50.5857 N.am      16 UNK        -0.5000 
     90 CA         -3.0128  -23.4405  -51.6626 C.3       16 UNK         0.1400 
     91 CB         -1.4855  -23.5794  -51.5841 C.3       16 UNK        -0.1800 
     92 C          -3.4335  -21.9645  -51.6258 C.2       16 UNK         0.5000 
     93 O          -3.6905  -21.3866  -52.6814 O.2       16 UNK        -0.5000 
     94 N          -3.5410  -21.4021  -50.4132 N.am      17 UNK        -0.5000 
     95 CA         -4.0511  -20.0490  -50.1816 C.3       17 UNK         0.1400 
     96 CB         -3.7224  -19.6095  -48.7462 C.3       17 UNK        -0.1800 
     97 C          -5.5648  -19.9378  -50.4418 C.2       17 UNK         0.5000 
     98 O          -6.0241  -18.9019  -50.9216 O.2       17 UNK        -0.5000 
     99 N          -6.3080  -21.0079  -50.1256 N.am      18 UNK        -0.5000 
    100 CA        -7.7589  -21.0929  -50.2945 C.3       18 UNK         0.1400 
    101 CB        -8.3041  -22.2610  -49.4572 C.3       18 UNK        -0.1800 
    102 C         -8.1648  -21.2357  -51.7714 C.2       18 UNK         0.5000 
    103 O         -9.0799  -20.5462  -52.2224 O.2       18 UNK        -0.5000 
    104 N         -7.4628  -22.1133  -52.5004 N.am      19 UNK        -0.5000 
    105 CA        -7.6670  -22.3594  -53.9290 C.3       19 UNK         0.1400 
    106 CB        -7.0637  -23.7293  -54.2795 C.3       19 UNK        -0.1800 
    107 C         -7.0556  -21.2697  -54.8310 C.2       19 UNK         0.5000 
    108 O         -7.3912  -21.2169  -56.0146 O.2       19 UNK        -0.5000 
    109 N         -6.1441  -20.4587  -54.2712 N.am      20 UNK        -0.5000 
    110 CA        -5.2751  -19.4873  -54.9483 C.3       20 UNK         0.1400 
    111 CB        -6.0920  -18.3592  -55.6110 C.3       20 UNK        -0.1800 
    112 C         -4.2731  -20.1625  -55.9122 C.2       20 UNK         0.5000 
    113 O         -3.8236  -19.5486  -56.8811 O.2       20 UNK        -0.5000 
    114 N         -3.9220  -21.4183  -55.6048 N.am      21 UNK        -0.5000 
    115 CA        -2.9298  -22.2309  -56.3080 C.3       21 UNK         0.1400 
    116 CB        -3.2282  -23.7130  -56.0331 C.3       21 UNK        -0.1800 
    117 C         -1.4863  -21.8782  -55.8978 C.2       21 UNK         0.5000 
    118 O         -0.5440  -22.3150  -56.5591 O.2       21 UNK        -0.5000 
    119 N         -1.3412  -21.0960  -54.8209 N.am      22 UNK        -0.5000 
    120 CA        -0.0803  -20.5527  -54.2988 C.3       22 UNK         0.1400 
    121 C          0.6838  -19.5748  -55.2441 C.2       22 UNK         0.5000 
    122 N          0.0696  -19.0413  -56.2937 N.am      22 UNK        -0.7600 
    123 O          1.8600  -19.3021  -55.0209 O.2       22 UNK        -0.5000 
    124 C124       -0.2955  -19.9307  -52.8962 C.3       23 UNK        -0.0398 
    125 S125       -1.5096  -18.5595  -52.8908 S.3       23 UNK        -0.2404 
    126 C126       -0.5216  -17.1981  -52.1996 C.3       23 UNK        -0.0205 
    127 H127       -1.1022  -14.1009  -41.8775 H         1 UNK         0.0600 
    128 H128       -2.3403  -13.3116  -40.8945 H         1 UNK         0.0600 
    129 H129       -0.7494  -12.5662  -41.0793 H         1 UNK         0.0600 
    130 H130       -1.6335  -13.9288  -44.0365 H         1 UNK         0.3000 
    131 H131       -3.3302  -11.8536  -45.0956 H         1 UNK         0.0600 
    132 H132       -3.7771  -14.0279  -45.8985 H         1 UNK         0.0800 
    133 H133       -3.0817  -13.1679  -47.2413 H         1 UNK         0.0800 
    134 H134       -3.0617  -15.4080  -48.2914 H         1 UNK         0.0800 
    135 H135       -3.0247  -16.7269  -47.1416 H         1 UNK         0.0800 
    136 H136       -2.2049  -16.0865  -50.3798 H         1 UNK         0.1150 
    137 H137        1.3384  -18.4887  -50.6562 H         1 UNK         0.1150 
    138 H138       -0.3064  -17.5210  -46.8265 H         1 UNK         0.1150 
    139 H139        1.8004  -18.6699  -46.9376 H         1 UNK         0.0800 
    140 H140        2.7004  -18.5943  -48.4180 H         1 UNK         0.0800 
    141 H141       -0.7737  -20.7813  -48.6467 H         1 UNK         0.0800 
    142 H142       -0.4808  -20.2557  -47.0027 H         1 UNK         0.0800 
    143 H143       -0.1089  -23.1140  -48.0183 H         1 UNK         0.0600 
    144 H144        0.7985  -21.9898  -45.5796 H         1 UNK         0.3000 
    145 H145        0.7394  -25.0273  -43.6553 H         1 UNK         0.0600 
    146 H146        2.8483  -25.0502  -44.9254 H         1 UNK         0.0600 
    147 H147        3.1043  -24.2738  -43.3703 H         1 UNK         0.0600 
    148 H148        2.9794  -23.3019  -44.8361 H         1 UNK         0.0600 
    149 H149        1.4105  -22.2459  -43.1598 H         1 UNK         0.3000 
    150 H150       -1.7343  -21.4090  -41.6832 H         1 UNK         0.0600 
    151 H151        1.0038  -21.8981  -40.3890 H         1 UNK         0.0600 
    152 H152       -0.5132  -22.6236  -39.8708 H         1 UNK         0.0600 
    153 H153       -0.2872  -20.8869  -39.7392 H         1 UNK         0.0600 
    154 H154        0.7146  -19.9641  -41.9279 H         1 UNK         0.3000 
    155 H155        0.3367  -18.8773  -45.2454 H         1 UNK         0.0600 
    156 H156        0.2158  -16.6082  -44.4530 H         1 UNK         0.0600 
    157 H157       -0.0885  -17.1140  -42.7864 H         1 UNK         0.0600 
    158 H158       -1.3048  -17.3687  -44.0371 H         1 UNK         0.0600 
    159 H159        2.1619  -17.9574  -43.3131 H         1 UNK         0.3000 
    160 H160        4.1051  -20.0869  -42.6047 H         1 UNK         0.0600 
    161 H161        5.0459  -20.2201  -45.5133 H         1 UNK         0.0600 
    162 H162        4.8232  -21.5673  -44.4097 H         1 UNK         0.0600 
    163 H163        6.0983  -20.3995  -44.1088 H         1 UNK         0.0600 
    164 H164        4.7079  -17.9773  -42.5170 H         1 UNK         0.3000 
    165 H165        5.3892  -15.9949  -42.9227 H         1 UNK         0.0600 
    166 H166        6.7124  -14.4998  -44.3718 H         1 UNK         0.0600 
    167 H167        7.2145  -16.1634  -44.6314 H         1 UNK         0.0600 
    168 H168        6.1856  -15.3653  -45.8149 H         1 UNK         0.0600 
    169 H169        4.1923  -14.3002  -44.8737 H         1 UNK         0.3000 
    170 H170        0.8216  -14.5111  -43.9737 H         1 UNK         0.0600 
    171 H171        0.9655  -12.1785  -43.2320 H         1 UNK         0.0600 
    172 H172        2.7159  -12.2949  -43.0593 H         1 UNK         0.0600 
    173 H173        1.6571  -13.2183  -41.9995 H         1 UNK         0.0600 
    174 H174        2.0507  -12.5101  -45.4700 H         1 UNK         0.3000 
    175 H175        3.1046  -13.8591  -48.2601 H         1 UNK         0.0600 
    176 H176        1.0642  -15.0290  -49.0203 H         1 UNK         0.0600 
    177 H177        0.0645  -13.6691  -48.5267 H         1 UNK         0.0600 
    178 H178        1.2295  -13.4844  -49.8345 H         1 UNK         0.0600 
    179 H179        1.2150  -11.6460  -47.6942 H         1 UNK         0.3000 
    180 H180        3.7330   -9.4222  -46.7267 H         1 UNK         0.0600 
    181 H181        2.5548   -9.4115  -49.5580 H         1 UNK         0.0600 
    182 H182        4.2680   -9.3266  -49.1664 H         1 UNK         0.0600 
    183 H183        3.2015   -8.0124  -48.6991 H         1 UNK         0.0600 
    184 H184        1.0769   -8.9322  -47.6361 H         1 UNK         0.3000 
    185 H185       -0.1888   -8.6284  -44.5447 H         1 UNK         0.0600 
    186 H186       -0.3086   -7.4782  -46.7515 H         1 UNK         0.0600 
    187 H187       -1.0269   -8.9126  -47.4863 H         1 UNK         0.0600 
    188 H188       -1.8922   -8.0249  -46.2402 H         1 UNK         0.0600 
    189 H189       -1.5646  -10.3374  -44.1969 H         1 UNK         0.3000 
    190 H190       -1.9585  -21.8942  -45.2099 H         1 UNK         0.3000 
    191 H191       -4.5525  -22.2776  -46.3655 H         1 UNK         0.0600 
    192 H192       -4.1811  -20.7722  -44.4455 H         1 UNK         0.0600 
    193 H193       -5.3207  -22.0330  -43.9996 H         1 UNK         0.0600 
    194 H194       -3.6537  -22.1203  -43.4411 H         1 UNK         0.0600 
    195 H195       -2.5119  -24.3492  -44.2136 H         1 UNK         0.3000 
    196 H196       -4.3400  -26.4850  -43.9600 H         1 UNK         0.0600 
    197 H197       -2.3274  -27.7727  -43.2069 H         1 UNK         0.0600 
    198 H198       -2.4079  -26.1886  -42.4537 H         1 UNK         0.0600 
    199 H199       -1.2823  -26.4785  -43.7798 H         1 UNK         0.0600 
    200 H200       -1.8039  -25.9057  -46.4093 H         1 UNK         0.3000 
    201 H201       -2.2420  -28.3437  -47.8921 H         1 UNK         0.0600 
    202 H202       -0.7911  -27.1923  -49.5715 H         1 UNK         0.0600 
    203 H203       -0.1066  -27.0585  -47.9596 H         1 UNK         0.0600 
    204 H204       -0.9352  -25.6806  -48.6814 H         1 UNK         0.0600 
    205 H205       -4.1180  -25.5256  -47.5964 H         1 UNK         0.3000 
    206 H206       -5.8289  -24.5783  -48.5689 H         1 UNK         0.0600 
    207 H207       -6.7913  -26.8909  -48.7172 H         1 UNK         0.0600 
    208 H208       -7.3687  -25.8387  -49.9985 H         1 UNK         0.0600 
    209 H209       -6.1450  -27.0473  -50.3512 H         1 UNK         0.0600 
    210 H210       -3.0256  -24.4850  -49.8206 H         1 UNK         0.3000 
    211 H211       -3.3499  -23.8631  -52.6105 H         1 UNK         0.0600 
    212 H212       -1.0848  -23.1402  -50.6693 H         1 UNK         0.0600 
    213 H213       -1.0062  -23.0839  -52.4289 H         1 UNK         0.0600 
    214 H214       -1.1839  -24.6267  -51.6122 H         1 UNK         0.0600 
    215 H215       -3.3082  -21.9613  -49.5994 H         1 UNK         0.3000 
    216 H216       -3.5482  -19.3654  -50.8680 H         1 UNK         0.0600 
    217 H217       -4.1648  -18.6375  -48.5247 H         1 UNK         0.0600 
    218 H218       -2.6489  -19.5054  -48.6029 H         1 UNK         0.0600 
    219 H219       -4.0979  -20.3177  -48.0071 H         1 UNK         0.0600 
    220 H220       -5.8420  -21.8267  -49.7674 H         1 UNK         0.3000 
    221 H221       -8.2024  -20.1704  -49.9134 H         1 UNK         0.0600 
    222 H222       -7.9035  -23.2201  -49.7858 H         1 UNK         0.0600 
    223 H223       -8.0590  -22.1388  -48.4020 H         1 UNK         0.0600 
    224 H224       -9.3907  -22.3187  -49.5331 H         1 UNK         0.0600 
    225 H225       -6.7636  -22.6921  -52.0401 H         1 UNK         0.3000 
    226 H226       -8.7395  -22.3948  -54.1311 H         1 UNK         0.0600 
    227 H227       -7.2276  -23.9748  -55.3296 H         1 UNK         0.0600 
    228 H228       -5.9877  -23.7520  -54.1008 H         1 UNK         0.0600 
    229 H229       -7.5168  -24.5233  -53.6856 H         1 UNK         0.0600 
    230 H230       -5.9307  -20.6122  -53.2949 H         1 UNK         0.3000 
    231 H231       -4.6704  -19.0328  -54.1618 H         1 UNK         0.0600 
    232 H232       -6.6565  -18.7158  -56.4726 H         1 UNK         0.0600 
    233 H233       -5.4380  -17.5594  -55.9600 H         1 UNK         0.0600 
    234 H234       -6.7961  -17.9171  -54.9061 H         1 UNK         0.0600 
    235 H235       -4.2790  -21.7945  -54.7360 H         1 UNK         0.3000 
    236 H236       -3.0230  -22.0530  -57.3813 H         1 UNK         0.0600 
    237 H237       -3.1286  -23.9547  -54.9751 H         1 UNK         0.0600 
    238 H238       -4.2395  -23.9761  -56.3440 H         1 UNK         0.0600 
    239 H239       -2.5417  -24.3583  -56.5828 H         1 UNK         0.0600 
    240 H240       -2.1760  -20.8060  -54.3281 H         1 UNK         0.3000 
    241 H241        0.5864  -21.4072  -54.1695 H         1 UNK         0.0600 
    242 H242       -0.8991  -19.2478  -56.4805 H         1 UNK         0.3800 
    243 H243        0.5751  -18.4141  -56.8992 H         1 UNK         0.3800 
    244 H244        0.6595  -19.5980  -52.4912 H         1 UNK         0.0800 
    245 H245       -0.6526  -20.6904  -52.2014 H         1 UNK         0.0800 
    246 H246        0.4786  -17.1975  -52.6358 H         1 UNK         0.0800 
    247 H247       -0.9785  -16.2514  -52.4913 H         1 UNK         0.0800 
@<TRIPOS>BOND
     1    1    2 1    
     2    1  127 1    
     3    1  128 1    
     4    1  129 1    
     5    2    3 2    
     6    2    4 am   BACKBONE|DICT|INTERRES
     7    4    5 1    
     8    4  130 1    
     9    5    6 1    
    10    5   65 1    
    11    5  131 1    
    12    6    7 1    
    13    6  132 1    
    14    6  133 1    
    15    7    8 1    
    16    8    9 1    
    17    8  134 1    
    18    8  135 1    
    19    9   10 ar   
    20    9   14 ar   
    21   10   11 ar   
    22   10  136 1    
    23   11   12 ar   
    24   11  126 1    
    25   12   13 ar   
    26   12  137 1    
    27   13   14 ar   
    28   13   15 1    
    29   14  138 1    
    30   15   16 1    
    31   15  139 1    
    32   15  140 1    
    33   16   17 1    
    34   17   18 1    
    35   17  141 1    
    36   17  142 1    
    37   18   19 1    
    38   18   67 1    
    39   18  143 1    
    40   19   20 am   BACKBONE|DICT|INTERRES
    41   19  144 1    
    42   20   21 2    
    43   20   22 1    
    44   22   23 1    
    45   22   24 1    
    46   22  145 1    
    47   23  146 1    
    48   23  147 1    
    49   23  148 1    
    50   24   25 am   BACKBONE|DICT|INTERRES
    51   24  149 1    
    52   25   26 2    
    53   25   27 1    
    54   27   28 1    
    55   27   29 1    
    56   27  150 1    
    57   28  151 1    
    58   28  152 1    
    59   28  153 1    
    60   29   30 am   BACKBONE|DICT|INTERRES
    61   29  154 1    
    62   30   31 2    
    63   30   32 1    
    64   32   33 1    
    65   32   34 1    
    66   32  155 1    
    67   33  156 1    
    68   33  157 1    
    69   33  158 1    
    70   34   35 am   BACKBONE|DICT|INTERRES
    71   34  159 1    
    72   35   36 2    
    73   35   37 1    
    74   37   38 1    
    75   37   39 1    
    76   37  160 1    
    77   38  161 1    
    78   38  162 1    
    79   38  163 1    
    80   39   40 am   BACKBONE|DICT|INTERRES
    81   39  164 1    
    82   40   41 2    
    83   40   42 1    
    84   42   43 1    
    85   42   44 1    
    86   42  165 1    
    87   43  166 1    
    88   43  167 1    
    89   43  168 1    
    90   44   45 am   BACKBONE|DICT|INTERRES
    91   44  169 1    
    92   45   46 2    
    93   45   47 1    
    94   47   48 1    
    95   47   49 1    
    96   47  170 1    
    97   48  171 1    
    98   48  172 1    
    99   48  173 1    
   100   49   50 am   BACKBONE|DICT|INTERRES
   101   49  174 1    
   102   50   51 2    
   103   50   52 1    
   104   52   53 1    
   105   52   54 1    
   106   52  175 1    
   107   53  176 1    
   108   53  177 1    
   109   53  178 1    
   110   54   55 am   BACKBONE|DICT|INTERRES
   111   54  179 1    
   112   55   56 2    
   113   55   57 1    
   114   57   58 1    
   115   57   59 1    
   116   57  180 1    
   117   58  181 1    
   118   58  182 1    
   119   58  183 1    
   120   59   60 am   BACKBONE|DICT|INTERRES
   121   59  184 1    
   122   60   61 2    
   123   60   62 1    
   124   62   63 1    
   125   62   64 1    
   126   62  185 1    
   127   63  186 1    
   128   63  187 1    
   129   63  188 1    
   130   64   65 am   BACKBONE|DICT|INTERRES
   131   64  189 1    
   132   65   66 2    
   133   67   68 2    
   134   67   69 am   BACKBONE|DICT|INTERRES
   135   69   70 1    
   136   69  190 1    
   137   70   71 1    
   138   70   72 1    
   139   70  191 1    
   140   71  192 1    
   141   71  193 1    
   142   71  194 1    
   143   72   73 2    
   144   72   74 am   BACKBONE|DICT|INTERRES
   145   74   75 1    
   146   74  195 1    
   147   75   76 1    
   148   75   77 1    
   149   75  196 1    
   150   76  197 1    
   151   76  198 1    
   152   76  199 1    
   153   77   78 2    
   154   77   79 am   BACKBONE|DICT|INTERRES
   155   79   80 1    
   156   79  200 1    
   157   80   81 1    
   158   80   82 1    
   159   80  201 1    
   160   81  202 1    
   161   81  203 1    
   162   81  204 1    
   163   82   83 2    
   164   82   84 am   BACKBONE|DICT|INTERRES
   165   84   85 1    
   166   84  205 1    
   167   85   86 1    
   168   85   87 1    
   169   85  206 1    
   170   86  207 1    
   171   86  208 1    
   172   86  209 1    
   173   87   88 2    
   174   87   89 am   BACKBONE|DICT|INTERRES
   175   89   90 1    
   176   89  210 1    
   177   90   91 1    
   178   90   92 1    
   179   90  211 1    
   180   91  212 1    
   181   91  213 1    
   182   91  214 1    
   183   92   93 2    
   184   92   94 am   BACKBONE|DICT|INTERRES
   185   94   95 1    
   186   94  215 1    
   187   95   96 1    
   188   95   97 1    
   189   95  216 1    
   190   96  217 1    
   191   96  218 1    
   192   96  219 1    
   193   97   98 2    
   194   97   99 am   BACKBONE|DICT|INTERRES
   195   99  100 1    
   196   99  220 1    
   197  100  101 1    
   198  100  102 1    
   199  100  221 1    
   200  101  222 1    
   201  101  223 1    
   202  101  224 1    
   203  102  103 2    
   204  102  104 am   BACKBONE|DICT|INTERRES
   205  104  105 1    
   206  104  225 1    
   207  105  106 1    
   208  105  107 1    
   209  105  226 1    
   210  106  227 1    
   211  106  228 1    
   212  106  229 1    
   213  107  108 2    
   214  107  109 am   BACKBONE|DICT|INTERRES
   215  109  110 1    
   216  109  230 1    
   217  110  111 1    
   218  110  112 1    
   219  110  231 1    
   220  111  232 1    
   221  111  233 1    
   222  111  234 1    
   223  112  113 2    
   224  112  114 am   BACKBONE|DICT|INTERRES
   225  114  115 1    
   226  114  235 1    
   227  115  116 1    
   228  115  117 1    
   229  115  236 1    
   230  116  237 1    
   231  116  238 1    
   232  116  239 1    
   233  117  118 2    
   234  117  119 am   BACKBONE|DICT|INTERRES
   235  119  120 1    
   236  119  240 1    
   237  120  121 1    
   238  120  124 1    
   239  120  241 1    
   240  121  122 am   BACKBONE|DICT|INTERRES
   241  121  123 2    
   242  122  242 1    
   243  122  243 1    
   244  124  125 1    
   245  124  244 1    
   246  124  245 1    
   247  125  126 1    
   248  126  246 1    
   249  126  247 1    
@<TRIPOS>SUBSTRUCTURE
     1 UNK         1 GROUP             0       ****    0 ROOT    
