@<TRIPOS>MOLECULE
3R540
247   249    1
SMALL
USER_CHARGES


@<TRIPOS>ATOM
      1 CA          2.0522   -9.3945  -49.4142 C.3       0 UNK        -0.1800 
      2 C           2.6512  -10.4748  -48.5258 C.2       0 UNK         0.5000 
      3 O           2.9991  -10.2000  -47.3779 O.2       0 UNK        -0.5000 
      4 N           2.7620  -11.7039  -49.0474 N.am      1 UNK        -0.5000 
      5 CA          3.2997  -12.8871  -48.3598 C.3       1 UNK         0.1400 
      6 C6          3.4038  -14.1230  -49.2944 C.3       23 UNK        -0.0398 
      7 S7          1.8831  -14.4503  -50.2557 S.3       23 UNK        -0.2404 
      8 C8          1.0560  -15.7412  -49.2718 C.3       23 UNK        -0.0205 
      9 C9          1.2948  -17.1334  -49.8361 C.ar      23 UNK        -0.0193 
     10 C10         0.7629  -17.4730  -51.0825 C.ar      23 UNK        -0.1150 
     11 C11         0.9715  -18.7432  -51.6228 C.ar      23 UNK        -0.0193 
     12 C12         1.7028  -19.6877  -50.8994 C.ar      23 UNK        -0.1150 
     13 C13         2.2289  -19.3676  -49.6443 C.ar      23 UNK        -0.0193 
     14 C14         2.0246  -18.0864  -49.1177 C.ar      23 UNK        -0.1150 
     15 C15         3.0430  -20.4024  -48.8797 C.3       23 UNK        -0.0205 
     16 S16         2.0215  -21.7794  -48.2612 S.3       23 UNK        -0.2404 
     17 C17         1.0920  -20.9615  -46.9230 C.3       23 UNK        -0.0398 
     18 CA         -0.4019  -21.3583  -46.8711 C.3       11 UNK         0.1400 
     19 N          -1.0221  -20.9500  -45.6089 N.am      11 UNK        -0.5000 
     20 C          -2.2454  -21.3094  -45.1943 C.2       10 UNK         0.5000 
     21 O          -2.9635  -22.1085  -45.7922 O.2       10 UNK        -0.5000 
     22 CA         -2.7751  -20.6284  -43.9185 C.3       10 UNK         0.1400 
     23 CB         -2.3200  -21.3899  -42.6650 C.3       10 UNK        -0.1800 
     24 N          -2.3706  -19.2249  -43.8175 N.am      10 UNK        -0.5000 
     25 C          -2.7427  -18.2583  -44.6694 C.2       9 UNK         0.5000 
     26 O          -3.5265  -18.4383  -45.6003 O.2       9 UNK        -0.5000 
     27 CA         -2.0777  -16.8795  -44.4918 C.3       9 UNK         0.1400 
     28 CB         -2.7552  -16.0681  -43.3785 C.3       9 UNK        -0.1800 
     29 N          -0.6453  -16.9980  -44.2167 N.am      9 UNK        -0.5000 
     30 C           0.2485  -17.4565  -45.1036 C.2       8 UNK         0.5000 
     31 O          -0.0324  -17.7389  -46.2681 O.2       8 UNK        -0.5000 
     32 CA          1.6812  -17.6867  -44.5953 C.3       8 UNK         0.1400 
     33 CB          2.5303  -16.4242  -44.7566 C.3       8 UNK        -0.1800 
     34 N           1.7114  -18.1294  -43.2017 N.am      8 UNK        -0.5000 
     35 C           1.3831  -19.3706  -42.8162 C.2       7 UNK         0.5000 
     36 O           1.0362  -20.2528  -43.6005 O.2       7 UNK        -0.5000 
     37 CA          1.4034  -19.6689  -41.3054 C.3       7 UNK         0.1400 
     38 CB          2.8276  -20.0064  -40.8405 C.3       7 UNK        -0.1800 
     39 N           0.8803  -18.5680  -40.4973 N.am      7 UNK        -0.5000 
     40 C          -0.3689  -18.0880  -40.5715 C.2       6 UNK         0.5000 
     41 O          -1.2374  -18.5626  -41.3009 O.2       6 UNK        -0.5000 
     42 CA         -0.6973  -16.8448  -39.7233 C.3       6 UNK         0.1400 
     43 CB         -1.3867  -17.2568  -38.4143 C.3       6 UNK        -0.1800 
     44 N           0.4670  -16.0105  -39.4120 N.am      6 UNK        -0.5000 
     45 C           1.2427  -15.3972  -40.3168 C.2       5 UNK         0.5000 
     46 O           1.0603  -15.4873  -41.5338 O.2       5 UNK        -0.5000 
     47 CA          2.4017  -14.5596  -39.7361 C.3       5 UNK         0.1400 
     48 CB          3.3505  -15.4151  -38.8680 C.3       5 UNK        -0.1800 
     49 N           3.1533  -13.8133  -40.7490 N.am      5 UNK        -0.5000 
     50 C           3.9349  -14.2857  -41.7293 C.2       4 UNK         0.5000 
     51 O           4.1847  -15.4808  -41.8998 O.2       4 UNK        -0.5000 
     52 CA          4.5366  -13.2195  -42.6712 C.3       4 UNK         0.1400 
     53 CB          5.4724  -13.8227  -43.7341 C.3       4 UNK        -0.1800 
     54 N           3.5011  -12.4240  -43.3382 N.am      4 UNK        -0.5000 
     55 C           2.8124  -11.4166  -42.7776 C.2       3 UNK         0.5000 
     56 O           2.9892  -11.0490  -41.6148 O.2       3 UNK        -0.5000 
     57 CA          1.7449  -10.6993  -43.6301 C.3       3 UNK         0.1400 
     58 CB          2.2779   -9.3482  -44.1298 C.3       3 UNK        -0.1800 
     59 N           1.2987  -11.4895  -44.7760 N.am      3 UNK        -0.5000 
     60 C           0.5063  -12.5681  -44.6937 C.2       2 UNK         0.5000 
     61 O          -0.0391  -12.9280  -43.6512 O.2       2 UNK        -0.5000 
     62 CA          0.2959  -13.3993  -45.9775 C.3       2 UNK         0.1400 
     63 CB         -1.1517  -13.2869  -46.4791 C.3       2 UNK        -0.1800 
     64 N           1.2067  -13.0718  -47.0792 N.am      2 UNK        -0.5000 
     65 C           2.5378  -13.2361  -47.0658 C.2       1 UNK         0.5000 
     66 O           3.1664  -13.6094  -46.0779 O.2       1 UNK        -0.5000 
     67 C          -1.2019  -20.8361  -48.0840 C.2       11 UNK         0.5000 
     68 O          -1.5493  -21.6279  -48.9606 O.2       11 UNK        -0.5000 
     69 N          -1.5557  -19.5421  -48.0770 N.am      12 UNK        -0.5000 
     70 CA         -2.3929  -18.9022  -49.0989 C.3       12 UNK         0.1400 
     71 CB         -2.4882  -17.3995  -48.8032 C.3       12 UNK        -0.1800 
     72 C          -3.8060  -19.5115  -49.1967 C.2       12 UNK         0.5000 
     73 O          -4.3568  -19.6291  -50.2924 O.2       12 UNK        -0.5000 
     74 N          -4.3515  -19.9175  -48.0440 N.am      13 UNK        -0.5000 
     75 CA         -5.6377  -20.5967  -47.9010 C.3       13 UNK         0.1400 
     76 CB         -6.1381  -20.4035  -46.4605 C.3       13 UNK        -0.1800 
     77 C          -5.6039  -22.0946  -48.2751 C.2       13 UNK         0.5000 
     78 O          -6.6519  -22.7376  -48.2131 O.2       13 UNK        -0.5000 
     79 N          -4.4345  -22.6321  -48.6479 N.am      14 UNK        -0.5000 
     80 CA         -4.2506  -24.0258  -49.0501 C.3       14 UNK         0.1400 
     81 CB         -3.3143  -24.7261  -48.0537 C.3       14 UNK        -0.1800 
     82 C          -3.6884  -24.1373  -50.4730 C.2       14 UNK         0.5000 
     83 O          -4.1302  -25.0022  -51.2292 O.2       14 UNK        -0.5000 
     84 N          -2.7098  -23.2914  -50.8220 N.am      15 UNK        -0.5000 
     85 CA         -1.9486  -23.3049  -52.0795 C.3       15 UNK         0.1400 
     86 CB         -2.8660  -22.9908  -53.2798 C.3       15 UNK        -0.1800 
     87 C          -1.1284  -24.5989  -52.2887 C.2       15 UNK         0.5000 
     88 O          -0.8047  -24.9442  -53.4253 O.2       15 UNK        -0.5000 
     89 N          -0.8326  -25.3014  -51.1828 N.am      16 UNK        -0.5000 
     90 CA         -0.1314  -26.5882  -51.0810 C.3       16 UNK         0.1400 
     91 CB          1.3299  -26.4499  -51.5565 C.3       16 UNK        -0.1800 
     92 C          -0.8575  -27.7778  -51.7537 C.2       16 UNK         0.5000 
     93 O          -0.2452  -28.8329  -51.9282 O.2       16 UNK        -0.5000 
     94 N          -2.1391  -27.6071  -52.1079 N.am      17 UNK        -0.5000 
     95 CA         -2.9424  -28.5979  -52.8332 C.3       17 UNK         0.1400 
     96 CB         -2.8519  -28.2961  -54.3409 C.3       17 UNK        -0.1800 
     97 C          -4.4092  -28.6466  -52.3639 C.2       17 UNK         0.5000 
     98 O          -5.2015  -29.3804  -52.9558 O.2       17 UNK        -0.5000 
     99 N          -4.7566  -27.8476  -51.3425 N.am      18 UNK        -0.5000 
    100 CA        -6.1129  -27.5681  -50.8468 C.3       18 UNK         0.1400 
    101 CB        -6.7710  -28.8357  -50.2627 C.3       18 UNK        -0.1800 
    102 C         -7.0035  -26.8470  -51.8866 C.2       18 UNK         0.5000 
    103 O         -8.2303  -26.9384  -51.8189 O.2       18 UNK        -0.5000 
    104 N         -6.3653  -26.1399  -52.8286 N.am      19 UNK        -0.5000 
    105 CA        -7.0101  -25.3764  -53.8949 C.3       19 UNK         0.1400 
    106 CB        -6.0990  -25.3786  -55.1327 C.3       19 UNK        -0.1800 
    107 C         -7.3278  -23.9371  -53.4551 C.2       19 UNK         0.5000 
    108 O         -8.3721  -23.4116  -53.8431 O.2       19 UNK        -0.5000 
    109 N         -6.4344  -23.3539  -52.6382 N.am      20 UNK        -0.5000 
    110 CA        -6.4715  -21.9999  -52.0685 C.3       20 UNK         0.1400 
    111 CB        -7.7322  -21.8280  -51.1945 C.3       20 UNK        -0.1800 
    112 C         -6.3709  -20.8569  -53.1038 C.2       20 UNK         0.5000 
    113 O         -6.4360  -21.0827  -54.3139 O.2       20 UNK        -0.5000 
    114 N         -6.2300  -19.6305  -52.5795 N.am      21 UNK        -0.5000 
    115 CA        -6.3047  -18.3432  -53.2811 C.3       21 UNK         0.1400 
    116 CB        -7.7298  -18.1061  -53.8243 C.3       21 UNK        -0.1800 
    117 C         -5.2107  -18.1482  -54.3509 C.2       21 UNK         0.5000 
    118 O         -5.4665  -17.5587  -55.4028 O.2       21 UNK        -0.5000 
    119 N         -4.0027  -18.6386  -54.0540 N.am      22 UNK        -0.5000 
    120 CA        -2.8113  -18.5188  -54.9100 C.3       22 UNK         0.1400 
    121 C         -2.1365  -17.1139  -54.9173 C.2       22 UNK         0.5000 
    122 N         -2.5167  -16.1842  -54.0491 N.am      22 UNK        -0.7600 
    123 O         -1.2574  -16.8601  -55.7363 O.2       22 UNK        -0.5000 
    124 C124       -1.7947  -19.6502  -54.6186 C.3       23 UNK        -0.0398 
    125 S125       -1.2763  -19.7226  -52.8685 S.3       23 UNK        -0.2404 
    126 C126        0.4166  -19.0817  -52.9938 C.3       23 UNK        -0.0205 
    127 H127        2.7678   -8.5840  -49.5527 H         1 UNK         0.0600 
    128 H128        1.1552   -8.9835  -48.9511 H         1 UNK         0.0600 
    129 H129        1.7815   -9.7814  -50.3969 H         1 UNK         0.0600 
    130 H130        2.4440  -11.8694  -49.9923 H         1 UNK         0.3000 
    131 H131        4.3153  -12.6297  -48.0514 H         1 UNK         0.0600 
    132 H132        3.7003  -15.0188  -48.7448 H         1 UNK         0.0800 
    133 H133        4.2045  -13.9519  -50.0149 H         1 UNK         0.0800 
    134 H134       -0.0113  -15.5260  -49.2902 H         1 UNK         0.0800 
    135 H135        1.3558  -15.6903  -48.2248 H         1 UNK         0.0800 
    136 H136        0.1929  -16.7414  -51.6384 H         1 UNK         0.1150 
    137 H137        1.8630  -20.6741  -51.3116 H         1 UNK         0.1150 
    138 H138        2.4309  -17.8309  -48.1493 H         1 UNK         0.1150 
    139 H139        3.8102  -20.8067  -49.5415 H         1 UNK         0.0800 
    140 H140        3.5747  -19.9422  -48.0452 H         1 UNK         0.0800 
    141 H141        1.1994  -19.8812  -47.0029 H         1 UNK         0.0800 
    142 H142        1.5804  -21.2426  -45.9896 H         1 UNK         0.0800 
    143 H143       -0.4531  -22.4490  -46.8996 H         1 UNK         0.0600 
    144 H144       -0.4690  -20.3515  -45.0065 H         1 UNK         0.3000 
    145 H145       -3.8656  -20.6576  -43.9534 H         1 UNK         0.0600 
    146 H146       -2.7501  -20.9554  -41.7625 H         1 UNK         0.0600 
    147 H147       -1.2354  -21.3782  -42.5571 H         1 UNK         0.0600 
    148 H148       -2.6351  -22.4333  -42.7062 H         1 UNK         0.0600 
    149 H149       -1.7775  -18.9811  -43.0278 H         1 UNK         0.3000 
    150 H150       -2.1958  -16.3299  -45.4283 H         1 UNK         0.0600 
    151 H151       -3.8108  -15.9099  -43.6023 H         1 UNK         0.0600 
    152 H152       -2.2938  -15.0859  -43.2706 H         1 UNK         0.0600 
    153 H153       -2.6981  -16.5737  -42.4149 H         1 UNK         0.0600 
    154 H154       -0.3331  -16.7813  -43.2799 H         1 UNK         0.3000 
    155 H155        2.1316  -18.4655  -45.2140 H         1 UNK         0.0600 
    156 H156        2.5608  -16.1204  -45.8027 H         1 UNK         0.0600 
    157 H157        3.5585  -16.5985  -44.4405 H         1 UNK         0.0600 
    158 H158        2.1374  -15.5896  -44.1743 H         1 UNK         0.0600 
    159 H159        1.9418  -17.4317  -42.5049 H         1 UNK         0.3000 
    160 H160        0.7702  -20.5412  -41.1312 H         1 UNK         0.0600 
    161 H161        3.5022  -19.1571  -40.9584 H         1 UNK         0.0600 
    162 H162        3.2398  -20.8360  -41.4166 H         1 UNK         0.0600 
    163 H163        2.8405  -20.3028  -39.7915 H         1 UNK         0.0600 
    164 H164        1.5291  -18.1128  -39.8731 H         1 UNK         0.3000 
    165 H165       -1.3951  -16.2342  -40.2996 H         1 UNK         0.0600 
    166 H166       -1.7094  -16.3843  -37.8459 H         1 UNK         0.0600 
    167 H167       -2.2744  -17.8590  -38.6131 H         1 UNK         0.0600 
    168 H168       -0.7249  -17.8472  -37.7793 H         1 UNK         0.0600 
    169 H169        0.6735  -15.8866  -38.4313 H         1 UNK         0.3000 
    170 H170        1.9478  -13.8042  -39.0932 H         1 UNK         0.0600 
    171 H171        4.1957  -14.8263  -38.5113 H         1 UNK         0.0600 
    172 H172        2.8407  -15.8050  -37.9867 H         1 UNK         0.0600 
    173 H173        3.7472  -16.2698  -39.4169 H         1 UNK         0.0600 
    174 H174        2.9963  -12.8099  -40.7525 H         1 UNK         0.3000 
    175 H175        5.1406  -12.5523  -42.0527 H         1 UNK         0.0600 
    176 H176        4.9531  -14.5394  -44.3700 H         1 UNK         0.0600 
    177 H177        5.8926  -13.0487  -44.3765 H         1 UNK         0.0600 
    178 H178        6.3070  -14.3462  -43.2666 H         1 UNK         0.0600 
    179 H179        3.2761  -12.7048  -44.2877 H         1 UNK         0.3000 
    180 H180        0.8834  -10.5075  -42.9870 H         1 UNK         0.0600 
    181 H181        1.5277   -8.8187  -44.7173 H         1 UNK         0.0600 
    182 H182        3.1656   -9.4718  -44.7510 H         1 UNK         0.0600 
    183 H183        2.5512   -8.7033  -43.2937 H         1 UNK         0.0600 
    184 H184        1.7144  -11.2603  -45.6697 H         1 UNK         0.3000 
    185 H185        0.4731  -14.4413  -45.7069 H         1 UNK         0.0600 
    186 H186       -1.3879  -12.2713  -46.7985 H         1 UNK         0.0600 
    187 H187       -1.3303  -13.9569  -47.3206 H         1 UNK         0.0600 
    188 H188       -1.8603  -13.5593  -45.6956 H         1 UNK         0.0600 
    189 H189        0.7822  -12.7262  -47.9278 H         1 UNK         0.3000 
    190 H190       -1.2077  -18.9420  -47.3354 H         1 UNK         0.3000 
    191 H191       -1.8941  -19.0359  -50.0597 H         1 UNK         0.0600 
    192 H192       -1.5067  -16.9801  -48.5988 H         1 UNK         0.0600 
    193 H193       -3.1157  -17.1936  -47.9359 H         1 UNK         0.0600 
    194 H194       -2.9112  -16.8614  -49.6521 H         1 UNK         0.0600 
    195 H195       -3.8524  -19.7161  -47.1838 H         1 UNK         0.3000 
    196 H196       -6.3532  -20.1156  -48.5703 H         1 UNK         0.0600 
    197 H197       -6.1914  -19.3467  -46.1983 H         1 UNK         0.0600 
    198 H198       -5.4836  -20.8951  -45.7412 H         1 UNK         0.0600 
    199 H199       -7.1379  -20.8196  -46.3314 H         1 UNK         0.0600 
    200 H200       -3.6086  -22.0465  -48.6437 H         1 UNK         0.3000 
    201 H201       -5.2032  -24.5589  -49.0466 H         1 UNK         0.0600 
    202 H202       -3.7441  -24.7274  -47.0517 H         1 UNK         0.0600 
    203 H203       -2.3432  -24.2330  -47.9939 H         1 UNK         0.0600 
    204 H204       -3.1434  -25.7659  -48.3357 H         1 UNK         0.0600 
    205 H205       -2.3595  -22.6317  -50.1270 H         1 UNK         0.3000 
    206 H206       -1.2159  -22.5025  -51.9947 H         1 UNK         0.0600 
    207 H207       -3.5749  -23.7941  -53.4739 H         1 UNK         0.0600 
    208 H208       -3.4305  -22.0733  -53.1159 H         1 UNK         0.0600 
    209 H209       -2.2812  -22.8559  -54.1896 H         1 UNK         0.0600 
    210 H210       -1.1418  -24.9115  -50.3043 H         1 UNK         0.3000 
    211 H211       -0.1048  -26.8264  -50.0168 H         1 UNK         0.0600 
    212 H212        1.3923  -26.2856  -52.6325 H         1 UNK         0.0600 
    213 H213        1.9036  -27.3496  -51.3312 H         1 UNK         0.0600 
    214 H214        1.8291  -25.6177  -51.0601 H         1 UNK         0.0600 
    215 H215       -2.5568  -26.6977  -51.9647 H         1 UNK         0.3000 
    216 H216       -2.5438  -29.5990  -52.6570 H         1 UNK         0.0600 
    217 H217       -3.4077  -29.0286  -54.9274 H         1 UNK         0.0600 
    218 H218       -1.8186  -28.3243  -54.6870 H         1 UNK         0.0600 
    219 H219       -3.2554  -27.3102  -54.5754 H         1 UNK         0.0600 
    220 H220       -4.0355  -27.2738  -50.9302 H         1 UNK         0.3000 
    221 H221       -5.9896  -26.8612  -50.0254 H         1 UNK         0.0600 
    222 H222       -7.0174  -29.5614  -51.0380 H         1 UNK         0.0600 
    223 H223       -6.1156  -29.3235  -49.5413 H         1 UNK         0.0600 
    224 H224       -7.6974  -28.5898  -49.7427 H         1 UNK         0.0600 
    225 H225       -5.3597  -26.0715  -52.7548 H         1 UNK         0.3000 
    226 H226       -7.9501  -25.8605  -54.1688 H         1 UNK         0.0600 
    227 H227       -5.9144  -26.3945  -55.4827 H         1 UNK         0.0600 
    228 H228       -6.5589  -24.8293  -55.9552 H         1 UNK         0.0600 
    229 H229       -5.1339  -24.9150  -54.9284 H         1 UNK         0.0600 
    230 H230       -5.6236  -23.9018  -52.3822 H         1 UNK         0.3000 
    231 H231       -5.5947  -21.9242  -51.4246 H         1 UNK         0.0600 
    232 H232       -7.6547  -20.9482  -50.5558 H         1 UNK         0.0600 
    233 H233       -7.8859  -22.6892  -50.5449 H         1 UNK         0.0600 
    234 H234       -8.6317  -21.7086  -51.7992 H         1 UNK         0.0600 
    235 H235       -6.0367  -19.5626  -51.5864 H         1 UNK         0.3000 
    236 H236       -6.1161  -17.5803  -52.5244 H         1 UNK         0.0600 
    237 H237       -7.9775  -18.8015  -54.6269 H         1 UNK         0.0600 
    238 H238       -8.4757  -18.2225  -53.0380 H         1 UNK         0.0600 
    239 H239       -7.8355  -17.0962  -54.2221 H         1 UNK         0.0600 
    240 H240       -3.8661  -19.1017  -53.1662 H         1 UNK         0.3000 
    241 H241       -3.1461  -18.6698  -55.9381 H         1 UNK         0.0600 
    242 H242       -2.0778  -15.2774  -54.0704 H         1 UNK         0.3800 
    243 H243       -3.2339  -16.3794  -53.3707 H         1 UNK         0.3800 
    244 H244       -0.9217  -19.5701  -55.2687 H         1 UNK         0.0800 
    245 H245       -2.2510  -20.6064  -54.8717 H         1 UNK         0.0800 
    246 H246        0.4292  -18.1903  -53.6229 H         1 UNK         0.0800 
    247 H247        1.0488  -19.8200  -53.4893 H         1 UNK         0.0800 
@<TRIPOS>BOND
     1    1    2 1    
     2    1  127 1    
     3    1  128 1    
     4    1  129 1    
     5    2    3 2    
     6    2    4 am   BACKBONE|DICT|INTERRES
     7    4    5 1    
     8    4  130 1    
     9    5    6 1    
    10    5   65 1    
    11    5  131 1    
    12    6    7 1    
    13    6  132 1    
    14    6  133 1    
    15    7    8 1    
    16    8    9 1    
    17    8  134 1    
    18    8  135 1    
    19    9   10 ar   
    20    9   14 ar   
    21   10   11 ar   
    22   10  136 1    
    23   11   12 ar   
    24   11  126 1    
    25   12   13 ar   
    26   12  137 1    
    27   13   14 ar   
    28   13   15 1    
    29   14  138 1    
    30   15   16 1    
    31   15  139 1    
    32   15  140 1    
    33   16   17 1    
    34   17   18 1    
    35   17  141 1    
    36   17  142 1    
    37   18   19 1    
    38   18   67 1    
    39   18  143 1    
    40   19   20 am   BACKBONE|DICT|INTERRES
    41   19  144 1    
    42   20   21 2    
    43   20   22 1    
    44   22   23 1    
    45   22   24 1    
    46   22  145 1    
    47   23  146 1    
    48   23  147 1    
    49   23  148 1    
    50   24   25 am   BACKBONE|DICT|INTERRES
    51   24  149 1    
    52   25   26 2    
    53   25   27 1    
    54   27   28 1    
    55   27   29 1    
    56   27  150 1    
    57   28  151 1    
    58   28  152 1    
    59   28  153 1    
    60   29   30 am   BACKBONE|DICT|INTERRES
    61   29  154 1    
    62   30   31 2    
    63   30   32 1    
    64   32   33 1    
    65   32   34 1    
    66   32  155 1    
    67   33  156 1    
    68   33  157 1    
    69   33  158 1    
    70   34   35 am   BACKBONE|DICT|INTERRES
    71   34  159 1    
    72   35   36 2    
    73   35   37 1    
    74   37   38 1    
    75   37   39 1    
    76   37  160 1    
    77   38  161 1    
    78   38  162 1    
    79   38  163 1    
    80   39   40 am   BACKBONE|DICT|INTERRES
    81   39  164 1    
    82   40   41 2    
    83   40   42 1    
    84   42   43 1    
    85   42   44 1    
    86   42  165 1    
    87   43  166 1    
    88   43  167 1    
    89   43  168 1    
    90   44   45 am   BACKBONE|DICT|INTERRES
    91   44  169 1    
    92   45   46 2    
    93   45   47 1    
    94   47   48 1    
    95   47   49 1    
    96   47  170 1    
    97   48  171 1    
    98   48  172 1    
    99   48  173 1    
   100   49   50 am   BACKBONE|DICT|INTERRES
   101   49  174 1    
   102   50   51 2    
   103   50   52 1    
   104   52   53 1    
   105   52   54 1    
   106   52  175 1    
   107   53  176 1    
   108   53  177 1    
   109   53  178 1    
   110   54   55 am   BACKBONE|DICT|INTERRES
   111   54  179 1    
   112   55   56 2    
   113   55   57 1    
   114   57   58 1    
   115   57   59 1    
   116   57  180 1    
   117   58  181 1    
   118   58  182 1    
   119   58  183 1    
   120   59   60 am   BACKBONE|DICT|INTERRES
   121   59  184 1    
   122   60   61 2    
   123   60   62 1    
   124   62   63 1    
   125   62   64 1    
   126   62  185 1    
   127   63  186 1    
   128   63  187 1    
   129   63  188 1    
   130   64   65 am   BACKBONE|DICT|INTERRES
   131   64  189 1    
   132   65   66 2    
   133   67   68 2    
   134   67   69 am   BACKBONE|DICT|INTERRES
   135   69   70 1    
   136   69  190 1    
   137   70   71 1    
   138   70   72 1    
   139   70  191 1    
   140   71  192 1    
   141   71  193 1    
   142   71  194 1    
   143   72   73 2    
   144   72   74 am   BACKBONE|DICT|INTERRES
   145   74   75 1    
   146   74  195 1    
   147   75   76 1    
   148   75   77 1    
   149   75  196 1    
   150   76  197 1    
   151   76  198 1    
   152   76  199 1    
   153   77   78 2    
   154   77   79 am   BACKBONE|DICT|INTERRES
   155   79   80 1    
   156   79  200 1    
   157   80   81 1    
   158   80   82 1    
   159   80  201 1    
   160   81  202 1    
   161   81  203 1    
   162   81  204 1    
   163   82   83 2    
   164   82   84 am   BACKBONE|DICT|INTERRES
   165   84   85 1    
   166   84  205 1    
   167   85   86 1    
   168   85   87 1    
   169   85  206 1    
   170   86  207 1    
   171   86  208 1    
   172   86  209 1    
   173   87   88 2    
   174   87   89 am   BACKBONE|DICT|INTERRES
   175   89   90 1    
   176   89  210 1    
   177   90   91 1    
   178   90   92 1    
   179   90  211 1    
   180   91  212 1    
   181   91  213 1    
   182   91  214 1    
   183   92   93 2    
   184   92   94 am   BACKBONE|DICT|INTERRES
   185   94   95 1    
   186   94  215 1    
   187   95   96 1    
   188   95   97 1    
   189   95  216 1    
   190   96  217 1    
   191   96  218 1    
   192   96  219 1    
   193   97   98 2    
   194   97   99 am   BACKBONE|DICT|INTERRES
   195   99  100 1    
   196   99  220 1    
   197  100  101 1    
   198  100  102 1    
   199  100  221 1    
   200  101  222 1    
   201  101  223 1    
   202  101  224 1    
   203  102  103 2    
   204  102  104 am   BACKBONE|DICT|INTERRES
   205  104  105 1    
   206  104  225 1    
   207  105  106 1    
   208  105  107 1    
   209  105  226 1    
   210  106  227 1    
   211  106  228 1    
   212  106  229 1    
   213  107  108 2    
   214  107  109 am   BACKBONE|DICT|INTERRES
   215  109  110 1    
   216  109  230 1    
   217  110  111 1    
   218  110  112 1    
   219  110  231 1    
   220  111  232 1    
   221  111  233 1    
   222  111  234 1    
   223  112  113 2    
   224  112  114 am   BACKBONE|DICT|INTERRES
   225  114  115 1    
   226  114  235 1    
   227  115  116 1    
   228  115  117 1    
   229  115  236 1    
   230  116  237 1    
   231  116  238 1    
   232  116  239 1    
   233  117  118 2    
   234  117  119 am   BACKBONE|DICT|INTERRES
   235  119  120 1    
   236  119  240 1    
   237  120  121 1    
   238  120  124 1    
   239  120  241 1    
   240  121  122 am   BACKBONE|DICT|INTERRES
   241  121  123 2    
   242  122  242 1    
   243  122  243 1    
   244  124  125 1    
   245  124  244 1    
   246  124  245 1    
   247  125  126 1    
   248  126  246 1    
   249  126  247 1    
@<TRIPOS>SUBSTRUCTURE
     1 UNK         1 GROUP             0       ****    0 ROOT    
