@<TRIPOS>MOLECULE
3R540
247   249    1
SMALL
USER_CHARGES


@<TRIPOS>ATOM
      1 CA          7.0442  -13.1420  -52.1913 C.3       0 UNK        -0.1800 
      2 C           6.5322  -12.9386  -50.7721 C.2       0 UNK         0.5000 
      3 O           6.6721  -11.8465  -50.2203 O.2       0 UNK        -0.5000 
      4 N           5.9499  -13.9864  -50.1779 N.am      1 UNK        -0.5000 
      5 CA          5.3248  -13.9635  -48.8525 C.3       1 UNK         0.1400 
      6 C6          5.1463  -15.3936  -48.2794 C.3       23 UNK        -0.0398 
      7 S7          4.1803  -16.5229  -49.3460 S.3       23 UNK        -0.2404 
      8 C8          2.6386  -16.6367  -48.3919 C.3       23 UNK        -0.0205 
      9 C9          1.5500  -17.3673  -49.1599 C.ar      23 UNK        -0.0193 
     10 C10         0.4615  -16.6632  -49.6837 C.ar      23 UNK        -0.1150 
     11 C11        -0.5610  -17.3417  -50.3513 C.ar      23 UNK        -0.0193 
     12 C12        -0.4864  -18.7284  -50.4930 C.ar      23 UNK        -0.1150 
     13 C13         0.5907  -19.4499  -49.9729 C.ar      23 UNK        -0.0193 
     14 C14         1.6151  -18.7550  -49.3159 C.ar      23 UNK        -0.1150 
     15 C15         0.5653  -20.9699  -50.1386 C.3       23 UNK        -0.0205 
     16 S16         1.8743  -21.9264  -49.2972 S.3       23 UNK        -0.2404 
     17 C17         1.4921  -21.5704  -47.5523 C.3       23 UNK        -0.0398 
     18 CA          1.0795  -22.7901  -46.6978 C.3       11 UNK         0.1400 
     19 N           1.1861  -22.4517  -45.2745 N.am      11 UNK        -0.5000 
     20 C           1.0146  -23.2869  -44.2413 C.2       10 UNK         0.5000 
     21 O           0.7377  -24.4807  -44.3603 O.2       10 UNK        -0.5000 
     22 CA          1.1485  -22.6655  -42.8381 C.3       10 UNK         0.1400 
     23 CB          2.6241  -22.4497  -42.4689 C.3       10 UNK        -0.1800 
     24 N           0.4288  -21.3951  -42.7373 N.am      10 UNK        -0.5000 
     25 C          -0.9071  -21.2925  -42.6944 C.2       9 UNK         0.5000 
     26 O          -1.6612  -22.2630  -42.6259 O.2       9 UNK        -0.5000 
     27 CA         -1.5076  -19.8745  -42.7681 C.3       9 UNK         0.1400 
     28 CB         -1.6103  -19.2528  -41.3679 C.3       9 UNK        -0.1800 
     29 N          -0.7610  -18.9729  -43.6472 N.am      9 UNK        -0.5000 
     30 C          -0.6111  -19.1435  -44.9676 C.2       8 UNK         0.5000 
     31 O          -1.1038  -20.0758  -45.5969 O.2       8 UNK        -0.5000 
     32 CA          0.2845  -18.1359  -45.7041 C.3       8 UNK         0.1400 
     33 CB         -0.5011  -16.8723  -46.0778 C.3       8 UNK        -0.1800 
     34 N           1.4711  -17.7779  -44.9285 N.am      8 UNK        -0.5000 
     35 C           2.4622  -18.6299  -44.6295 C.2       7 UNK         0.5000 
     36 O           2.4841  -19.8075  -44.9855 O.2       7 UNK        -0.5000 
     37 CA          3.5924  -18.0820  -43.7418 C.3       7 UNK         0.1400 
     38 CB          4.5159  -17.1582  -44.5523 C.3       7 UNK        -0.1800 
     39 N           3.0772  -17.3598  -42.5784 N.am      7 UNK        -0.5000 
     40 C           2.3432  -17.9108  -41.5998 C.2       6 UNK         0.5000 
     41 O           2.0834  -19.1123  -41.5315 O.2       6 UNK        -0.5000 
     42 CA          1.7551  -16.9434  -40.5516 C.3       6 UNK         0.1400 
     43 CB          2.7380  -16.7475  -39.3879 C.3       6 UNK        -0.1800 
     44 N           1.3870  -15.6331  -41.1028 N.am      6 UNK        -0.5000 
     45 C           0.5033  -15.4445  -42.0926 C.2       5 UNK         0.5000 
     46 O          -0.1059  -16.3685  -42.6371 O.2       5 UNK        -0.5000 
     47 CA          0.3222  -13.9969  -42.5884 C.3       5 UNK         0.1400 
     48 CB          1.6244  -13.4699  -43.2138 C.3       5 UNK        -0.1800 
     49 N          -0.7373  -13.9144  -43.5929 N.am      5 UNK        -0.5000 
     50 C          -2.0496  -13.8799  -43.3251 C.2       4 UNK         0.5000 
     51 O          -2.5003  -13.7915  -42.1815 O.2       4 UNK        -0.5000 
     52 CA         -3.0305  -13.9997  -44.5160 C.3       4 UNK         0.1400 
     53 CB         -4.1876  -12.9830  -44.4226 C.3       4 UNK        -0.1800 
     54 N          -2.4030  -13.9686  -45.8466 N.am      4 UNK        -0.5000 
     55 C          -1.7689  -12.9415  -46.4281 C.2       3 UNK         0.5000 
     56 O          -1.6472  -11.8236  -45.9221 O.2       3 UNK        -0.5000 
     57 CA         -1.1602  -13.2227  -47.8151 C.3       3 UNK         0.1400 
     58 CB         -2.1339  -12.8224  -48.9335 C.3       3 UNK        -0.1800 
     59 N           0.1001  -12.5030  -47.9926 N.am      3 UNK        -0.5000 
     60 C           1.2284  -12.7933  -47.3346 C.2       2 UNK         0.5000 
     61 O           1.3498  -13.7568  -46.5745 O.2       2 UNK        -0.5000 
     62 CA          2.4083  -11.8266  -47.5314 C.3       2 UNK         0.1400 
     63 CB          2.5542  -10.9006  -46.3144 C.3       2 UNK        -0.1800 
     64 N           3.6590  -12.5570  -47.7273 N.am      2 UNK        -0.5000 
     65 C           3.9978  -13.1704  -48.8675 C.2       1 UNK         0.5000 
     66 O           3.3078  -13.1332  -49.8903 O.2       1 UNK        -0.5000 
     67 C          -0.3217  -23.3202  -47.0799 C.2       11 UNK         0.5000 
     68 O          -0.4265  -24.2768  -47.8494 O.2       11 UNK        -0.5000 
     69 N          -1.3694  -22.7232  -46.4936 N.am      12 UNK        -0.5000 
     70 CA         -2.7897  -23.0319  -46.6779 C.3       12 UNK         0.1400 
     71 CB         -3.6113  -22.1472  -45.7268 C.3       12 UNK        -0.1800 
     72 C          -3.1838  -24.5070  -46.4849 C.2       12 UNK         0.5000 
     73 O          -4.1503  -24.9511  -47.1068 O.2       12 UNK        -0.5000 
     74 N          -2.4307  -25.2398  -45.6537 N.am      13 UNK        -0.5000 
     75 CA         -2.6127  -26.6718  -45.4153 C.3       13 UNK         0.1400 
     76 CB         -1.7325  -27.0981  -44.2311 C.3       13 UNK        -0.1800 
     77 C          -2.3093  -27.5380  -46.6543 C.2       13 UNK         0.5000 
     78 O          -2.9257  -28.5917  -46.8171 O.2       13 UNK        -0.5000 
     79 N          -1.3809  -27.0781  -47.5033 N.am      14 UNK        -0.5000 
     80 CA         -1.0105  -27.7236  -48.7622 C.3       14 UNK         0.1400 
     81 CB          0.5172  -27.6676  -48.9193 C.3       14 UNK        -0.1800 
     82 C          -1.6938  -27.0435  -49.9601 C.2       14 UNK         0.5000 
     83 O          -2.0964  -27.7262  -50.9017 O.2       14 UNK        -0.5000 
     84 N          -1.8170  -25.7116  -49.9030 N.am      15 UNK        -0.5000 
     85 CA         -2.2934  -24.8503  -50.9862 C.3       15 UNK         0.1400 
     86 CB         -1.5851  -23.4968  -50.8559 C.3       15 UNK        -0.1800 
     87 C          -3.8240  -24.6703  -51.0323 C.2       15 UNK         0.5000 
     88 O          -4.2892  -23.7051  -51.6393 O.2       15 UNK        -0.5000 
     89 N          -4.5769  -25.5729  -50.3868 N.am      16 UNK        -0.5000 
     90 CA         -6.0427  -25.6547  -50.3691 C.3       16 UNK         0.1400 
     91 CB         -6.5679  -26.1172  -51.7439 C.3       16 UNK        -0.1800 
     92 C          -6.7053  -24.3514  -49.8784 C.2       16 UNK         0.5000 
     93 O          -7.4491  -23.7066  -50.6191 O.2       16 UNK        -0.5000 
     94 N          -6.3742  -23.9775  -48.6356 N.am      17 UNK        -0.5000 
     95 CA         -6.8123  -22.7760  -47.9153 C.3       17 UNK         0.1400 
     96 CB         -8.3506  -22.6526  -47.8673 C.3       17 UNK        -0.1800 
     97 C          -6.1284  -21.4772  -48.3930 C.2       17 UNK         0.5000 
     98 O          -6.5650  -20.3938  -48.0047 O.2       17 UNK        -0.5000 
     99 N          -5.0738  -21.5966  -49.2169 N.am      18 UNK        -0.5000 
    100 CA        -4.2054  -20.5484  -49.7821 C.3       18 UNK         0.1400 
    101 CB        -3.4781  -19.7518  -48.6806 C.3       18 UNK        -0.1800 
    102 C         -4.8873  -19.6088  -50.7963 C.2       18 UNK         0.5000 
    103 O         -4.2417  -19.1886  -51.7578 O.2       18 UNK        -0.5000 
    104 N         -6.1830  -19.3333  -50.6118 N.am      19 UNK        -0.5000 
    105 CA        -7.0343  -18.5632  -51.5195 C.3       19 UNK         0.1400 
    106 CB        -8.4217  -18.3964  -50.8831 C.3       19 UNK        -0.1800 
    107 C         -7.1531  -19.1931  -52.9205 C.2       19 UNK         0.5000 
    108 O         -7.2975  -18.4645  -53.9007 O.2       19 UNK        -0.5000 
    109 N         -7.0392  -20.5261  -53.0010 N.am      20 UNK        -0.5000 
    110 CA        -6.9835  -21.2781  -54.2547 C.3       20 UNK         0.1400 
    111 CB        -7.1330  -22.7742  -53.9451 C.3       20 UNK        -0.1800 
    112 C         -5.6954  -21.0214  -55.0643 C.2       20 UNK         0.5000 
    113 O         -5.7173  -21.1769  -56.2860 O.2       20 UNK        -0.5000 
    114 N         -4.6069  -20.6345  -54.3837 N.am      21 UNK        -0.5000 
    115 CA        -3.3288  -20.2906  -55.0000 C.3       21 UNK         0.1400 
    116 CB        -2.1757  -20.6860  -54.0620 C.3       21 UNK        -0.1800 
    117 C         -3.2705  -18.7969  -55.3587 C.2       21 UNK         0.5000 
    118 O         -2.9434  -18.4662  -56.4996 O.2       21 UNK        -0.5000 
    119 N         -3.5805  -17.9250  -54.3887 N.am      22 UNK        -0.5000 
    120 CA        -3.4967  -16.4609  -54.5517 C.3       22 UNK         0.1400 
    121 C         -4.7236  -15.8016  -55.2442 C.2       22 UNK         0.5000 
    122 N         -5.8682  -16.4582  -55.3714 N.am      22 UNK        -0.7600 
    123 O         -4.6289  -14.6637  -55.6964 O.2       22 UNK        -0.5000 
    124 C124       -3.1485  -15.7403  -53.2243 C.3       23 UNK        -0.0398 
    125 S125       -1.4647  -16.1598  -52.6595 S.3       23 UNK        -0.2404 
    126 C126       -1.7534  -16.5922  -50.9204 C.3       23 UNK        -0.0205 
    127 H127        6.8623  -14.1568  -52.5463 H         1 UNK         0.0600 
    128 H128        8.1171  -12.9540  -52.2342 H         1 UNK         0.0600 
    129 H129        6.5479  -12.4500  -52.8717 H         1 UNK         0.0600 
    130 H130        5.8263  -14.8467  -50.6928 H         1 UNK         0.3000 
    131 H131        6.0082  -13.4341  -48.1846 H         1 UNK         0.0600 
    132 H132        6.1293  -15.8445  -48.1370 H         1 UNK         0.0800 
    133 H133        4.7044  -15.3541  -47.2823 H         1 UNK         0.0800 
    134 H134        2.3026  -15.6338  -48.1305 H         1 UNK         0.0800 
    135 H135        2.8323  -17.1538  -47.4516 H         1 UNK         0.0800 
    136 H136        0.4093  -15.5894  -49.5705 H         1 UNK         0.1150 
    137 H137       -1.2807  -19.2501  -51.0088 H         1 UNK         0.1150 
    138 H138        2.4660  -19.2804  -48.9088 H         1 UNK         0.1150 
    139 H139       -0.3935  -21.3195  -49.7606 H         1 UNK         0.0800 
    140 H140        0.5936  -21.2075  -51.2029 H         1 UNK         0.0800 
    141 H141        0.7359  -20.7887  -47.4823 H         1 UNK         0.0800 
    142 H142        2.4058  -21.1368  -47.1464 H         1 UNK         0.0800 
    143 H143        1.7926  -23.5956  -46.8838 H         1 UNK         0.0600 
    144 H144        1.4481  -21.4919  -45.0701 H         1 UNK         0.3000 
    145 H145        0.7199  -23.3660  -42.1182 H         1 UNK         0.0600 
    146 H146        2.7223  -22.0696  -41.4518 H         1 UNK         0.0600 
    147 H147        3.1811  -23.3858  -42.5227 H         1 UNK         0.0600 
    148 H148        3.1103  -21.7382  -43.1370 H         1 UNK         0.0600 
    149 H149        0.9860  -20.5486  -42.7277 H         1 UNK         0.3000 
    150 H150       -2.5172  -19.9657  -43.1743 H         1 UNK         0.0600 
    151 H151       -2.2294  -19.8675  -40.7133 H         1 UNK         0.0600 
    152 H152       -2.0608  -18.2607  -41.4070 H         1 UNK         0.0600 
    153 H153       -0.6313  -19.1588  -40.8989 H         1 UNK         0.0600 
    154 H154       -0.3634  -18.1395  -43.2204 H         1 UNK         0.3000 
    155 H155        0.6207  -18.6049  -46.6290 H         1 UNK         0.0600 
    156 H156        0.1280  -16.1642  -46.6153 H         1 UNK         0.0600 
    157 H157       -0.8981  -16.3715  -45.1958 H         1 UNK         0.0600 
    158 H158       -1.3423  -17.1187  -46.7270 H         1 UNK         0.0600 
    159 H159        1.4923  -16.8478  -44.5384 H         1 UNK         0.3000 
    160 H160        4.1794  -18.9305  -43.3839 H         1 UNK         0.0600 
    161 H161        3.9936  -16.2662  -44.9008 H         1 UNK         0.0600 
    162 H162        4.9095  -17.6719  -45.4306 H         1 UNK         0.0600 
    163 H163        5.3698  -16.8348  -43.9568 H         1 UNK         0.0600 
    164 H164        3.2449  -16.3656  -42.5468 H         1 UNK         0.3000 
    165 H165        0.8467  -17.4005  -40.1554 H         1 UNK         0.0600 
    166 H166        2.2977  -16.1397  -38.5972 H         1 UNK         0.0600 
    167 H167        3.0130  -17.7054  -38.9441 H         1 UNK         0.0600 
    168 H168        3.6578  -16.2607  -39.7144 H         1 UNK         0.0600 
    169 H169        1.8530  -14.8316  -40.7026 H         1 UNK         0.3000 
    170 H170        0.0605  -13.3681  -41.7350 H         1 UNK         0.0600 
    171 H171        2.4200  -13.3925  -42.4723 H         1 UNK         0.0600 
    172 H172        1.9822  -14.1214  -44.0118 H         1 UNK         0.0600 
    173 H173        1.4807  -12.4745  -43.6340 H         1 UNK         0.0600 
    174 H174       -0.4463  -14.0009  -44.5556 H         1 UNK         0.3000 
    175 H175       -3.4697  -14.9944  -44.4266 H         1 UNK         0.0600 
    176 H176       -4.8791  -13.0936  -45.2579 H         1 UNK         0.0600 
    177 H177       -4.7625  -13.1275  -43.5072 H         1 UNK         0.0600 
    178 H178       -3.8268  -11.9543  -44.4183 H         1 UNK         0.0600 
    179 H179       -2.4544  -14.8398  -46.3549 H         1 UNK         0.3000 
    180 H180       -0.9573  -14.2919  -47.9031 H         1 UNK         0.0600 
    181 H181       -2.3674  -11.7574  -48.9021 H         1 UNK         0.0600 
    182 H182       -3.0747  -13.3674  -48.8462 H         1 UNK         0.0600 
    183 H183       -1.7196  -13.0472  -49.9168 H         1 UNK         0.0600 
    184 H184        0.0656  -11.6751  -48.5690 H         1 UNK         0.3000 
    185 H185        2.2202  -11.2071  -48.4112 H         1 UNK         0.0600 
    186 H186        1.6281  -10.3567  -46.1231 H         1 UNK         0.0600 
    187 H187        2.7996  -11.4591  -45.4106 H         1 UNK         0.0600 
    188 H188        3.3389  -10.1609  -46.4741 H         1 UNK         0.0600 
    189 H189        4.2505  -12.6522  -46.9149 H         1 UNK         0.3000 
    190 H190       -1.1807  -21.8979  -45.9287 H         1 UNK         0.3000 
    191 H191       -3.0442  -22.7716  -47.7052 H         1 UNK         0.0600 
    192 H192       -3.2812  -22.2604  -44.6952 H         1 UNK         0.0600 
    193 H193       -4.6685  -22.4016  -45.7479 H         1 UNK         0.0600 
    194 H194       -3.5305  -21.0930  -45.9884 H         1 UNK         0.0600 
    195 H195       -1.6460  -24.7971  -45.1940 H         1 UNK         0.3000 
    196 H196       -3.6571  -26.8379  -45.1431 H         1 UNK         0.0600 
    197 H197       -1.8730  -28.1547  -43.9999 H         1 UNK         0.0600 
    198 H198       -1.9788  -26.5327  -43.3321 H         1 UNK         0.0600 
    199 H199       -0.6733  -26.9458  -44.4429 H         1 UNK         0.0600 
    200 H200       -0.9506  -26.1796  -47.3142 H         1 UNK         0.3000 
    201 H201       -1.3101  -28.7737  -48.7556 H         1 UNK         0.0600 
    202 H202        1.0151  -28.1890  -48.1017 H         1 UNK         0.0600 
    203 H203        0.8852  -26.6406  -48.9340 H         1 UNK         0.0600 
    204 H204        0.8324  -28.1437  -49.8487 H         1 UNK         0.0600 
    205 H205       -1.4242  -25.2283  -49.0996 H         1 UNK         0.3000 
    206 H206       -1.9991  -25.2894  -51.9415 H         1 UNK         0.0600 
    207 H207       -0.5027  -23.6236  -50.8299 H         1 UNK         0.0600 
    208 H208       -1.8138  -22.8390  -51.6946 H         1 UNK         0.0600 
    209 H209       -1.8903  -22.9896  -49.9412 H         1 UNK         0.0600 
    210 H210       -4.0900  -26.3008  -49.8837 H         1 UNK         0.3000 
    211 H211       -6.3038  -26.4262  -49.6432 H         1 UNK         0.0600 
    212 H212       -6.3231  -25.4073  -52.5336 H         1 UNK         0.0600 
    213 H213       -7.6525  -26.2306  -51.7304 H         1 UNK         0.0600 
    214 H214       -6.1441  -27.0823  -52.0213 H         1 UNK         0.0600 
    215 H215       -5.6950  -24.5459  -48.1328 H         1 UNK         0.3000 
    216 H216       -6.4874  -22.9283  -46.8877 H         1 UNK         0.0600 
    217 H217       -8.6565  -21.8919  -47.1483 H         1 UNK         0.0600 
    218 H218       -8.8142  -23.5903  -47.5611 H         1 UNK         0.0600 
    219 H219       -8.7698  -22.3673  -48.8323 H         1 UNK         0.0600 
    220 H220       -4.8746  -22.5298  -49.5507 H         1 UNK         0.3000 
    221 H221       -3.4409  -21.0784  -50.3516 H         1 UNK         0.0600 
    222 H222       -4.1664  -19.3263  -47.9510 H         1 UNK         0.0600 
    223 H223       -2.7642  -20.3777  -48.1466 H         1 UNK         0.0600 
    224 H224       -2.9134  -18.9208  -49.1005 H         1 UNK         0.0600 
    225 H225       -6.6099  -19.6794  -49.7574 H         1 UNK         0.3000 
    226 H226       -6.5859  -17.5749  -51.6393 H         1 UNK         0.0600 
    227 H227       -9.0783  -17.8072  -51.5247 H         1 UNK         0.0600 
    228 H228       -8.9042  -19.3600  -50.7133 H         1 UNK         0.0600 
    229 H229       -8.3562  -17.8811  -49.9246 H         1 UNK         0.0600 
    230 H230       -6.9282  -21.0570  -52.1487 H         1 UNK         0.3000 
    231 H231       -7.8294  -20.9707  -54.8732 H         1 UNK         0.0600 
    232 H232       -8.0693  -22.9812  -53.4265 H         1 UNK         0.0600 
    233 H233       -6.3172  -23.1319  -53.3170 H         1 UNK         0.0600 
    234 H234       -7.1286  -23.3678  -54.8600 H         1 UNK         0.0600 
    235 H235       -4.6806  -20.4772  -53.3870 H         1 UNK         0.3000 
    236 H236       -3.2050  -20.8611  -55.9231 H         1 UNK         0.0600 
    237 H237       -1.2106  -20.4553  -54.5143 H         1 UNK         0.0600 
    238 H238       -2.2209  -20.1613  -53.1083 H         1 UNK         0.0600 
    239 H239       -2.1906  -21.7562  -53.8563 H         1 UNK         0.0600 
    240 H240       -3.8274  -18.2736  -53.4679 H         1 UNK         0.3000 
    241 H241       -2.6661  -16.2581  -55.2314 H         1 UNK         0.0600 
    242 H242       -6.0225  -17.3637  -54.9427 H         1 UNK         0.3800 
    243 H243       -6.6389  -16.0043  -55.8347 H         1 UNK         0.3800 
    244 H244       -3.1822  -14.6561  -53.3465 H         1 UNK         0.0800 
    245 H245       -3.8847  -15.9840  -52.4568 H         1 UNK         0.0800 
    246 H246       -1.9472  -15.6855  -50.3459 H         1 UNK         0.0800 
    247 H247       -2.6478  -17.2101  -50.8379 H         1 UNK         0.0800 
@<TRIPOS>BOND
     1    1    2 1    
     2    1  127 1    
     3    1  128 1    
     4    1  129 1    
     5    2    3 2    
     6    2    4 am   BACKBONE|DICT|INTERRES
     7    4    5 1    
     8    4  130 1    
     9    5    6 1    
    10    5   65 1    
    11    5  131 1    
    12    6    7 1    
    13    6  132 1    
    14    6  133 1    
    15    7    8 1    
    16    8    9 1    
    17    8  134 1    
    18    8  135 1    
    19    9   10 ar   
    20    9   14 ar   
    21   10   11 ar   
    22   10  136 1    
    23   11   12 ar   
    24   11  126 1    
    25   12   13 ar   
    26   12  137 1    
    27   13   14 ar   
    28   13   15 1    
    29   14  138 1    
    30   15   16 1    
    31   15  139 1    
    32   15  140 1    
    33   16   17 1    
    34   17   18 1    
    35   17  141 1    
    36   17  142 1    
    37   18   19 1    
    38   18   67 1    
    39   18  143 1    
    40   19   20 am   BACKBONE|DICT|INTERRES
    41   19  144 1    
    42   20   21 2    
    43   20   22 1    
    44   22   23 1    
    45   22   24 1    
    46   22  145 1    
    47   23  146 1    
    48   23  147 1    
    49   23  148 1    
    50   24   25 am   BACKBONE|DICT|INTERRES
    51   24  149 1    
    52   25   26 2    
    53   25   27 1    
    54   27   28 1    
    55   27   29 1    
    56   27  150 1    
    57   28  151 1    
    58   28  152 1    
    59   28  153 1    
    60   29   30 am   BACKBONE|DICT|INTERRES
    61   29  154 1    
    62   30   31 2    
    63   30   32 1    
    64   32   33 1    
    65   32   34 1    
    66   32  155 1    
    67   33  156 1    
    68   33  157 1    
    69   33  158 1    
    70   34   35 am   BACKBONE|DICT|INTERRES
    71   34  159 1    
    72   35   36 2    
    73   35   37 1    
    74   37   38 1    
    75   37   39 1    
    76   37  160 1    
    77   38  161 1    
    78   38  162 1    
    79   38  163 1    
    80   39   40 am   BACKBONE|DICT|INTERRES
    81   39  164 1    
    82   40   41 2    
    83   40   42 1    
    84   42   43 1    
    85   42   44 1    
    86   42  165 1    
    87   43  166 1    
    88   43  167 1    
    89   43  168 1    
    90   44   45 am   BACKBONE|DICT|INTERRES
    91   44  169 1    
    92   45   46 2    
    93   45   47 1    
    94   47   48 1    
    95   47   49 1    
    96   47  170 1    
    97   48  171 1    
    98   48  172 1    
    99   48  173 1    
   100   49   50 am   BACKBONE|DICT|INTERRES
   101   49  174 1    
   102   50   51 2    
   103   50   52 1    
   104   52   53 1    
   105   52   54 1    
   106   52  175 1    
   107   53  176 1    
   108   53  177 1    
   109   53  178 1    
   110   54   55 am   BACKBONE|DICT|INTERRES
   111   54  179 1    
   112   55   56 2    
   113   55   57 1    
   114   57   58 1    
   115   57   59 1    
   116   57  180 1    
   117   58  181 1    
   118   58  182 1    
   119   58  183 1    
   120   59   60 am   BACKBONE|DICT|INTERRES
   121   59  184 1    
   122   60   61 2    
   123   60   62 1    
   124   62   63 1    
   125   62   64 1    
   126   62  185 1    
   127   63  186 1    
   128   63  187 1    
   129   63  188 1    
   130   64   65 am   BACKBONE|DICT|INTERRES
   131   64  189 1    
   132   65   66 2    
   133   67   68 2    
   134   67   69 am   BACKBONE|DICT|INTERRES
   135   69   70 1    
   136   69  190 1    
   137   70   71 1    
   138   70   72 1    
   139   70  191 1    
   140   71  192 1    
   141   71  193 1    
   142   71  194 1    
   143   72   73 2    
   144   72   74 am   BACKBONE|DICT|INTERRES
   145   74   75 1    
   146   74  195 1    
   147   75   76 1    
   148   75   77 1    
   149   75  196 1    
   150   76  197 1    
   151   76  198 1    
   152   76  199 1    
   153   77   78 2    
   154   77   79 am   BACKBONE|DICT|INTERRES
   155   79   80 1    
   156   79  200 1    
   157   80   81 1    
   158   80   82 1    
   159   80  201 1    
   160   81  202 1    
   161   81  203 1    
   162   81  204 1    
   163   82   83 2    
   164   82   84 am   BACKBONE|DICT|INTERRES
   165   84   85 1    
   166   84  205 1    
   167   85   86 1    
   168   85   87 1    
   169   85  206 1    
   170   86  207 1    
   171   86  208 1    
   172   86  209 1    
   173   87   88 2    
   174   87   89 am   BACKBONE|DICT|INTERRES
   175   89   90 1    
   176   89  210 1    
   177   90   91 1    
   178   90   92 1    
   179   90  211 1    
   180   91  212 1    
   181   91  213 1    
   182   91  214 1    
   183   92   93 2    
   184   92   94 am   BACKBONE|DICT|INTERRES
   185   94   95 1    
   186   94  215 1    
   187   95   96 1    
   188   95   97 1    
   189   95  216 1    
   190   96  217 1    
   191   96  218 1    
   192   96  219 1    
   193   97   98 2    
   194   97   99 am   BACKBONE|DICT|INTERRES
   195   99  100 1    
   196   99  220 1    
   197  100  101 1    
   198  100  102 1    
   199  100  221 1    
   200  101  222 1    
   201  101  223 1    
   202  101  224 1    
   203  102  103 2    
   204  102  104 am   BACKBONE|DICT|INTERRES
   205  104  105 1    
   206  104  225 1    
   207  105  106 1    
   208  105  107 1    
   209  105  226 1    
   210  106  227 1    
   211  106  228 1    
   212  106  229 1    
   213  107  108 2    
   214  107  109 am   BACKBONE|DICT|INTERRES
   215  109  110 1    
   216  109  230 1    
   217  110  111 1    
   218  110  112 1    
   219  110  231 1    
   220  111  232 1    
   221  111  233 1    
   222  111  234 1    
   223  112  113 2    
   224  112  114 am   BACKBONE|DICT|INTERRES
   225  114  115 1    
   226  114  235 1    
   227  115  116 1    
   228  115  117 1    
   229  115  236 1    
   230  116  237 1    
   231  116  238 1    
   232  116  239 1    
   233  117  118 2    
   234  117  119 am   BACKBONE|DICT|INTERRES
   235  119  120 1    
   236  119  240 1    
   237  120  121 1    
   238  120  124 1    
   239  120  241 1    
   240  121  122 am   BACKBONE|DICT|INTERRES
   241  121  123 2    
   242  122  242 1    
   243  122  243 1    
   244  124  125 1    
   245  124  244 1    
   246  124  245 1    
   247  125  126 1    
   248  126  246 1    
   249  126  247 1    
@<TRIPOS>SUBSTRUCTURE
     1 UNK         1 GROUP             0       ****    0 ROOT    
