@<TRIPOS>MOLECULE
3R540
247   249    1
SMALL
USER_CHARGES


@<TRIPOS>ATOM
      1 CA          8.7822  -18.3815  -48.8415 C.3       0 UNK        -0.1800 
      2 C           7.4718  -18.5687  -48.0898 C.2       0 UNK         0.5000 
      3 O           7.4675  -19.1400  -46.9993 O.2       0 UNK        -0.5000 
      4 N           6.3626  -18.0983  -48.6721 N.am      1 UNK        -0.5000 
      5 CA          5.0167  -18.1428  -48.0914 C.3       1 UNK         0.1400 
      6 C6          3.9190  -17.8490  -49.1463 C.3       23 UNK        -0.0398 
      7 S7          4.0352  -18.9463  -50.6053 S.3       23 UNK        -0.2404 
      8 C8          3.4498  -17.8587  -51.9458 C.3       23 UNK        -0.0205 
      9 C9          1.9350  -17.9016  -52.0841 C.ar      23 UNK        -0.0193 
     10 C10         1.3423  -18.6412  -53.1101 C.ar      23 UNK        -0.1150 
     11 C11        -0.0481  -18.6872  -53.2429 C.ar      23 UNK        -0.0193 
     12 C12        -0.8505  -17.9979  -52.3262 C.ar      23 UNK        -0.1150 
     13 C13        -0.2721  -17.2730  -51.2745 C.ar      23 UNK        -0.0193 
     14 C14         1.1217  -17.2157  -51.1795 C.ar      23 UNK        -0.1150 
     15 C15        -1.0819  -16.5288  -50.2111 C.3       23 UNK        -0.0205 
     16 S16        -2.8750  -16.8704  -50.1266 S.3       23 UNK        -0.2404 
     17 C17        -2.9354  -18.5991  -49.5448 C.3       23 UNK        -0.0398 
     18 CA         -2.5527  -18.8296  -48.0567 C.3       11 UNK         0.1400 
     19 N          -3.2235  -17.9379  -47.1048 N.am      11 UNK        -0.5000 
     20 C          -4.5305  -17.9057  -46.8106 C.2       10 UNK         0.5000 
     21 O          -5.3890  -18.5421  -47.4212 O.2       10 UNK        -0.5000 
     22 CA         -4.9445  -17.0694  -45.5841 C.3       10 UNK         0.1400 
     23 CB         -5.2114  -17.9982  -44.3890 C.3       10 UNK        -0.1800 
     24 N          -3.9415  -16.0777  -45.1882 N.am      10 UNK        -0.5000 
     25 C          -3.7423  -14.9108  -45.8158 C.2       9 UNK         0.5000 
     26 O          -4.4115  -14.5272  -46.7756 O.2       9 UNK        -0.5000 
     27 CA         -2.5939  -14.0294  -45.2901 C.3       9 UNK         0.1400 
     28 CB         -3.0486  -13.2166  -44.0683 C.3       9 UNK        -0.1800 
     29 N          -1.3941  -14.7974  -44.9503 N.am      9 UNK        -0.5000 
     30 C          -0.6288  -15.4410  -45.8432 C.2       8 UNK         0.5000 
     31 O          -0.8419  -15.4324  -47.0533 O.2       8 UNK        -0.5000 
     32 CA          0.5542  -16.2596  -45.2968 C.3       8 UNK         0.1400 
     33 CB          1.7701  -15.3585  -45.0370 C.3       8 UNK        -0.1800 
     34 N           0.2154  -16.9838  -44.0739 N.am      8 UNK        -0.5000 
     35 C          -0.6614  -17.9935  -44.0012 C.2       7 UNK         0.5000 
     36 O          -1.2503  -18.4642  -44.9729 O.2       7 UNK        -0.5000 
     37 CA         -0.9622  -18.5463  -42.5994 C.3       7 UNK         0.1400 
     38 CB          0.1098  -19.5595  -42.1665 C.3       7 UNK        -0.1800 
     39 N          -1.0770  -17.4816  -41.6033 N.am      7 UNK        -0.5000 
     40 C          -2.0502  -16.5586  -41.5901 C.2       6 UNK         0.5000 
     41 O          -2.9785  -16.5290  -42.3983 O.2       6 UNK        -0.5000 
     42 CA         -1.9349  -15.4571  -40.5213 C.3       6 UNK         0.1400 
     43 CB         -2.4952  -15.9444  -39.1769 C.3       6 UNK        -0.1800 
     44 N          -0.5548  -15.0037  -40.3386 N.am      6 UNK        -0.5000 
     45 C           0.1488  -14.3353  -41.2637 C.2       5 UNK         0.5000 
     46 O          -0.3070  -13.9947  -42.3543 O.2       5 UNK        -0.5000 
     47 CA          1.6264  -14.0522  -40.9351 C.3       5 UNK         0.1400 
     48 CB          1.7596  -12.7813  -40.0831 C.3       5 UNK        -0.1800 
     49 N           2.2839  -15.1714  -40.2530 N.am      5 UNK        -0.5000 
     50 C           2.4593  -16.3831  -40.7945 C.2       4 UNK         0.5000 
     51 O           2.0798  -16.6867  -41.9287 O.2       4 UNK        -0.5000 
     52 CA          3.1226  -17.4451  -39.9107 C.3       4 UNK         0.1400 
     53 CB          2.1136  -18.0362  -38.9102 C.3       4 UNK        -0.1800 
     54 N           3.6346  -18.5016  -40.7741 N.am      4 UNK        -0.5000 
     55 C           4.6767  -19.2938  -40.5085 C.2       3 UNK         0.5000 
     56 O           5.2996  -19.2630  -39.4459 O.2       3 UNK        -0.5000 
     57 CA          5.1053  -20.2954  -41.6029 C.3       3 UNK         0.1400 
     58 CB          4.6397  -21.7132  -41.2344 C.3       3 UNK        -0.1800 
     59 N           4.6387  -19.9928  -42.9624 N.am      3 UNK        -0.5000 
     60 C           4.9614  -18.9084  -43.6805 C.2       2 UNK         0.5000 
     61 O           5.6281  -17.9700  -43.2364 O.2       2 UNK        -0.5000 
     62 CA          4.4739  -18.8798  -45.1420 C.3       2 UNK         0.1400 
     63 CB          2.9930  -19.2843  -45.2910 C.3       2 UNK        -0.1800 
     64 N           4.6721  -17.5322  -45.6699 N.am      2 UNK        -0.5000 
     65 C           4.9379  -17.1320  -46.9194 C.2       1 UNK         0.5000 
     66 O           5.1420  -15.9427  -47.1659 O.2       1 UNK        -0.5000 
     67 C          -2.7308  -20.3075  -47.6270 C.2       11 UNK         0.5000 
     68 O          -3.0401  -21.1667  -48.4565 O.2       11 UNK        -0.5000 
     69 N          -2.5817  -20.5604  -46.3176 N.am      12 UNK        -0.5000 
     70 CA         -2.8766  -21.8216  -45.6363 C.3       12 UNK         0.1400 
     71 CB         -2.7191  -21.6406  -44.1185 C.3       12 UNK        -0.1800 
     72 C          -2.0373  -22.9900  -46.1721 C.2       12 UNK         0.5000 
     73 O          -2.5732  -23.8564  -46.8613 O.2       12 UNK        -0.5000 
     74 N          -0.7292  -22.9626  -45.8927 N.am      13 UNK        -0.5000 
     75 CA          0.2306  -23.9478  -46.3959 C.3       13 UNK         0.1400 
     76 CB          1.5091  -23.8706  -45.5464 C.3       13 UNK        -0.1800 
     77 C           0.5637  -23.7415  -47.8864 C.2       13 UNK         0.5000 
     78 O           0.9722  -24.6892  -48.5574 O.2       13 UNK        -0.5000 
     79 N           0.4041  -22.5005  -48.3631 N.am      14 UNK        -0.5000 
     80 CA          0.7822  -22.0647  -49.7031 C.3       14 UNK         0.1400 
     81 CB          0.8759  -20.5339  -49.7067 C.3       14 UNK        -0.1800 
     82 C          -0.1759  -22.5405  -50.8087 C.2       14 UNK         0.5000 
     83 O           0.2881  -22.8732  -51.8997 O.2       14 UNK        -0.5000 
     84 N          -1.4849  -22.5341  -50.5245 N.am      15 UNK        -0.5000 
     85 CA         -2.5390  -22.7226  -51.5235 C.3       15 UNK         0.1400 
     86 CB         -3.0351  -21.3366  -51.9604 C.3       15 UNK        -0.1800 
     87 C          -3.7047  -23.5799  -51.0064 C.2       15 UNK         0.5000 
     88 O          -4.7833  -23.5371  -51.6029 O.2       15 UNK        -0.5000 
     89 N          -3.4938  -24.3076  -49.8991 N.am      16 UNK        -0.5000 
     90 CA         -4.4885  -25.1172  -49.1839 C.3       16 UNK         0.1400 
     91 CB         -4.9070  -26.3414  -50.0247 C.3       16 UNK        -0.1800 
     92 C          -5.6791  -24.2650  -48.6932 C.2       16 UNK         0.5000 
     93 O          -6.8361  -24.6234  -48.9148 O.2       16 UNK        -0.5000 
     94 N          -5.3493  -23.1253  -48.0670 N.am      17 UNK        -0.5000 
     95 CA         -6.2547  -22.0719  -47.5929 C.3       17 UNK         0.1400 
     96 CB         -7.1839  -22.5890  -46.4754 C.3       17 UNK        -0.1800 
     97 C          -6.9985  -21.3867  -48.7547 C.2       17 UNK         0.5000 
     98 O          -8.2163  -21.2058  -48.6992 O.2       17 UNK        -0.5000 
     99 N          -6.2254  -21.0319  -49.7918 N.am      18 UNK        -0.5000 
    100 CA        -6.6489  -20.3510  -51.0202 C.3       18 UNK         0.1400 
    101 CB        -7.1407  -18.9208  -50.7139 C.3       18 UNK        -0.1800 
    102 C         -7.6434  -21.1669  -51.8741 C.2       18 UNK         0.5000 
    103 O         -8.4704  -20.5862  -52.5786 O.2       18 UNK        -0.5000 
    104 N         -7.5261  -22.5005  -51.8309 N.am      19 UNK        -0.5000 
    105 CA        -8.2409  -23.4148  -52.7219 C.3       19 UNK         0.1400 
    106 CB        -8.2776  -24.8160  -52.0966 C.3       19 UNK        -0.1800 
    107 C         -7.5828  -23.4531  -54.1131 C.2       19 UNK         0.5000 
    108 O         -8.2870  -23.4954  -55.1222 O.2       19 UNK        -0.5000 
    109 N         -6.2456  -23.3924  -54.1346 N.am      20 UNK        -0.5000 
    110 CA        -5.4082  -23.2868  -55.3274 C.3       20 UNK         0.1400 
    111 CB        -4.3873  -24.4392  -55.3125 C.3       20 UNK        -0.1800 
    112 C         -4.7417  -21.8987  -55.3420 C.2       20 UNK         0.5000 
    113 O         -3.5148  -21.7996  -55.3966 O.2       20 UNK        -0.5000 
    114 N         -5.5700  -20.8518  -55.2112 N.am      21 UNK        -0.5000 
    115 CA        -5.1691  -19.4517  -55.0586 C.3       21 UNK         0.1400 
    116 CB        -6.4280  -18.5875  -54.8920 C.3       21 UNK        -0.1800 
    117 C         -4.3080  -18.9124  -56.2172 C.2       21 UNK         0.5000 
    118 O         -4.5296  -19.2706  -57.3765 O.2       21 UNK        -0.5000 
    119 N         -3.3692  -18.0292  -55.8644 N.am      22 UNK        -0.5000 
    120 CA        -2.4164  -17.3798  -56.7793 C.3       22 UNK         0.1400 
    121 C         -2.8837  -15.9782  -57.2734 C.2       22 UNK         0.5000 
    122 N         -4.0401  -15.4721  -56.8615 N.am      22 UNK        -0.7600 
    123 O         -2.1916  -15.3406  -58.0624 O.2       22 UNK        -0.5000 
    124 C124       -1.0017  -17.3157  -56.1433 C.3       23 UNK        -0.0398 
    125 S125       -0.2145  -18.9595  -56.0245 S.3       23 UNK        -0.2404 
    126 C126       -0.6791  -19.5184  -54.3525 C.3       23 UNK        -0.0205 
    127 H127        9.2417  -19.3495  -49.0412 H         1 UNK         0.0600 
    128 H128        9.4760  -17.7901  -48.2441 H         1 UNK         0.0600 
    129 H129        8.6342  -17.8725  -49.7943 H         1 UNK         0.0600 
    130 H130        6.4317  -17.6338  -49.5659 H         1 UNK         0.3000 
    131 H131        4.8458  -19.1604  -47.7447 H         1 UNK         0.0600 
    132 H132        2.9286  -17.9728  -48.7054 H         1 UNK         0.0800 
    133 H133        3.9800  -16.8105  -49.4763 H         1 UNK         0.0800 
    134 H134        3.9170  -18.1820  -52.8772 H         1 UNK         0.0800 
    135 H135        3.7844  -16.8331  -51.7857 H         1 UNK         0.0800 
    136 H136        1.9621  -19.1855  -53.8088 H         1 UNK         0.1150 
    137 H137       -1.9243  -18.0434  -52.4289 H         1 UNK         0.1150 
    138 H138        1.5774  -16.6463  -50.3821 H         1 UNK         0.1150 
    139 H139       -0.6503  -16.7440  -49.2343 H         1 UNK         0.0800 
    140 H140       -0.9522  -15.4579  -50.3714 H         1 UNK         0.0800 
    141 H141       -2.2805  -19.1894  -50.1843 H         1 UNK         0.0800 
    142 H142       -3.9499  -18.9545  -49.7288 H         1 UNK         0.0800 
    143 H143       -1.4879  -18.6182  -47.9545 H         1 UNK         0.0600 
    144 H144       -2.6048  -17.3963  -46.5166 H         1 UNK         0.3000 
    145 H145       -5.8741  -16.5534  -45.8330 H         1 UNK         0.0600 
    146 H146       -5.5723  -17.4373  -43.5267 H         1 UNK         0.0600 
    147 H147       -5.9681  -18.7456  -44.6314 H         1 UNK         0.0600 
    148 H148       -4.3081  -18.5299  -44.0868 H         1 UNK         0.0600 
    149 H149       -3.3931  -16.2899  -44.3602 H         1 UNK         0.3000 
    150 H150       -2.3277  -13.3264  -46.0822 H         1 UNK         0.0600 
    151 H151       -3.9353  -12.6253  -44.2996 H         1 UNK         0.0600 
    152 H152       -2.2715  -12.5238  -43.7451 H         1 UNK         0.0600 
    153 H153       -3.2940  -13.8612  -43.2240 H         1 UNK         0.0600 
    154 H154       -1.1112  -14.7928  -43.9752 H         1 UNK         0.3000 
    155 H155        0.8320  -16.9950  -46.0550 H         1 UNK         0.0600 
    156 H156        1.5416  -14.5684  -44.3216 H         1 UNK         0.0600 
    157 H157        2.1071  -14.8824  -45.9586 H         1 UNK         0.0600 
    158 H158        2.6074  -15.9308  -44.6396 H         1 UNK         0.0600 
    159 H159        0.7067  -16.7033  -43.2295 H         1 UNK         0.3000 
    160 H160       -1.9220  -19.0643  -42.6474 H         1 UNK         0.0600 
    161 H161       -0.1469  -20.0211  -41.2130 H         1 UNK         0.0600 
    162 H162        1.0894  -19.0969  -42.0608 H         1 UNK         0.0600 
    163 H163        0.2138  -20.3611  -42.8979 H         1 UNK         0.0600 
    164 H164       -0.3312  -17.4053  -40.9296 H         1 UNK         0.3000 
    165 H165       -2.5334  -14.6059  -40.8529 H         1 UNK         0.0600 
    166 H166       -2.4854  -15.1467  -38.4339 H         1 UNK         0.0600 
    167 H167       -3.5291  -16.2755  -39.2828 H         1 UNK         0.0600 
    168 H168       -1.9212  -16.7819  -38.7784 H         1 UNK         0.0600 
    169 H169       -0.1044  -15.2419  -39.4676 H         1 UNK         0.3000 
    170 H170        2.1472  -13.8843  -41.8802 H         1 UNK         0.0600 
    171 H171        1.2913  -11.9293  -40.5780 H         1 UNK         0.0600 
    172 H172        1.2847  -12.8963  -39.1079 H         1 UNK         0.0600 
    173 H173        2.8063  -12.5246  -39.9190 H         1 UNK         0.0600 
    174 H174        2.6168  -14.9966  -39.3156 H         1 UNK         0.3000 
    175 H175        3.9492  -16.9760  -39.3728 H         1 UNK         0.0600 
    176 H176        1.2771  -18.5173  -39.4180 H         1 UNK         0.0600 
    177 H177        2.5856  -18.7814  -38.2696 H         1 UNK         0.0600 
    178 H178        1.7046  -17.2639  -38.2579 H         1 UNK         0.0600 
    179 H179        3.2158  -18.5253  -41.6944 H         1 UNK         0.3000 
    180 H180        6.1970  -20.2914  -41.6249 H         1 UNK         0.0600 
    181 H181        3.5514  -21.7884  -41.2270 H         1 UNK         0.0600 
    182 H182        4.9947  -21.9981  -40.2429 H         1 UNK         0.0600 
    183 H183        5.0241  -22.4520  -41.9379 H         1 UNK         0.0600 
    184 H184        4.0830  -20.7116  -43.4020 H         1 UNK         0.3000 
    185 H185        5.1063  -19.5919  -45.6716 H         1 UNK         0.0600 
    186 H186        2.6412  -19.1564  -46.3146 H         1 UNK         0.0600 
    187 H187        2.8359  -20.3312  -45.0309 H         1 UNK         0.0600 
    188 H188        2.3538  -18.6852  -44.6430 H         1 UNK         0.0600 
    189 H189        4.7358  -16.8412  -44.9343 H         1 UNK         0.3000 
    190 H190       -2.2610  -19.7925  -45.7314 H         1 UNK         0.3000 
    191 H191       -3.9223  -22.0656  -45.8203 H         1 UNK         0.0600 
    192 H192       -2.9200  -22.5734  -43.5899 H         1 UNK         0.0600 
    193 H193       -3.4200  -20.8972  -43.7387 H         1 UNK         0.0600 
    194 H194       -1.7146  -21.3194  -43.8485 H         1 UNK         0.0600 
    195 H195       -0.3625  -22.2146  -45.3235 H         1 UNK         0.3000 
    196 H196       -0.1967  -24.9468  -46.2842 H         1 UNK         0.0600 
    197 H197        2.2401  -24.6113  -45.8732 H         1 UNK         0.0600 
    198 H198        1.2969  -24.0678  -44.4954 H         1 UNK         0.0600 
    199 H199        1.9819  -22.8902  -45.6161 H         1 UNK         0.0600 
    200 H200        0.0583  -21.7938  -47.7334 H         1 UNK         0.3000 
    201 H201        1.7740  -22.4639  -49.9270 H         1 UNK         0.0600 
    202 H202        1.6029  -20.1774  -48.9772 H         1 UNK         0.0600 
    203 H203       -0.0821  -20.0640  -49.4884 H         1 UNK         0.0600 
    204 H204        1.1964  -20.1799  -50.6849 H         1 UNK         0.0600 
    205 H205       -1.7986  -22.2228  -49.6108 H         1 UNK         0.3000 
    206 H206       -2.1471  -23.2429  -52.3996 H         1 UNK         0.0600 
    207 H207       -2.2113  -20.7072  -52.2891 H         1 UNK         0.0600 
    208 H208       -3.7444  -21.4080  -52.7803 H         1 UNK         0.0600 
    209 H209       -3.5419  -20.8305  -51.1435 H         1 UNK         0.0600 
    210 H210       -2.5824  -24.2591  -49.4654 H         1 UNK         0.3000 
    211 H211       -3.9999  -25.5006  -48.2879 H         1 UNK         0.0600 
    212 H212       -4.0425  -26.9549  -50.2778 H         1 UNK         0.0600 
    213 H213       -5.3919  -26.0532  -50.9559 H         1 UNK         0.0600 
    214 H214       -5.6034  -26.9751  -49.4746 H         1 UNK         0.0600 
    215 H215       -4.3598  -22.9213  -47.9782 H         1 UNK         0.3000 
    216 H216       -5.6278  -21.2959  -47.1543 H         1 UNK         0.0600 
    217 H217       -7.7601  -21.7709  -46.0416 H         1 UNK         0.0600 
    218 H218       -6.6119  -23.0465  -45.6683 H         1 UNK         0.0600 
    219 H219       -7.8955  -23.3278  -46.8445 H         1 UNK         0.0600 
    220 H220       -5.2407  -21.2476  -49.7219 H         1 UNK         0.3000 
    221 H221       -5.7566  -20.2525  -51.6373 H         1 UNK         0.0600 
    222 H222       -8.0769  -18.9253  -50.1554 H         1 UNK         0.0600 
    223 H223       -6.4055  -18.3678  -50.1290 H         1 UNK         0.0600 
    224 H224       -7.3114  -18.3570  -51.6312 H         1 UNK         0.0600 
    225 H225       -6.7924  -22.9056  -51.2614 H         1 UNK         0.3000 
    226 H226       -9.2700  -23.0686  -52.8391 H         1 UNK         0.0600 
    227 H227       -8.8396  -25.5090  -52.7237 H         1 UNK         0.0600 
    228 H228       -7.2756  -25.2244  -51.9710 H         1 UNK         0.0600 
    229 H229       -8.7563  -24.7984  -51.1172 H         1 UNK         0.0600 
    230 H230       -5.7529  -23.3625  -53.2452 H         1 UNK         0.3000 
    231 H231       -6.0069  -23.3709  -56.2364 H         1 UNK         0.0600 
    232 H232       -4.8887  -25.4071  -55.3118 H         1 UNK         0.0600 
    233 H233       -3.7446  -24.3959  -54.4321 H         1 UNK         0.0600 
    234 H234       -3.7454  -24.4062  -56.1936 H         1 UNK         0.0600 
    235 H235       -6.5624  -21.0349  -55.1878 H         1 UNK         0.3000 
    236 H236       -4.5855  -19.3878  -54.1378 H         1 UNK         0.0600 
    237 H237       -6.1694  -17.5393  -54.7373 H         1 UNK         0.0600 
    238 H238       -7.0703  -18.6411  -55.7720 H         1 UNK         0.0600 
    239 H239       -7.0148  -18.9017  -54.0309 H         1 UNK         0.0600 
    240 H240       -3.2902  -17.7582  -54.8959 H         1 UNK         0.3000 
    241 H241       -2.3368  -17.9814  -57.6869 H         1 UNK         0.0600 
    242 H242       -4.6322  -15.9862  -56.2303 H         1 UNK         0.3800 
    243 H243       -4.3317  -14.5670  -57.1967 H         1 UNK         0.3800 
    244 H244       -0.3333  -16.7025  -56.7501 H         1 UNK         0.0800 
    245 H245       -1.0335  -16.8387  -55.1628 H         1 UNK         0.0800 
    246 H246       -1.7651  -19.5302  -54.2686 H         1 UNK         0.0800 
    247 H247       -0.3607  -20.5550  -54.2320 H         1 UNK         0.0800 
@<TRIPOS>BOND
     1    1    2 1    
     2    1  127 1    
     3    1  128 1    
     4    1  129 1    
     5    2    3 2    
     6    2    4 am   BACKBONE|DICT|INTERRES
     7    4    5 1    
     8    4  130 1    
     9    5    6 1    
    10    5   65 1    
    11    5  131 1    
    12    6    7 1    
    13    6  132 1    
    14    6  133 1    
    15    7    8 1    
    16    8    9 1    
    17    8  134 1    
    18    8  135 1    
    19    9   10 ar   
    20    9   14 ar   
    21   10   11 ar   
    22   10  136 1    
    23   11   12 ar   
    24   11  126 1    
    25   12   13 ar   
    26   12  137 1    
    27   13   14 ar   
    28   13   15 1    
    29   14  138 1    
    30   15   16 1    
    31   15  139 1    
    32   15  140 1    
    33   16   17 1    
    34   17   18 1    
    35   17  141 1    
    36   17  142 1    
    37   18   19 1    
    38   18   67 1    
    39   18  143 1    
    40   19   20 am   BACKBONE|DICT|INTERRES
    41   19  144 1    
    42   20   21 2    
    43   20   22 1    
    44   22   23 1    
    45   22   24 1    
    46   22  145 1    
    47   23  146 1    
    48   23  147 1    
    49   23  148 1    
    50   24   25 am   BACKBONE|DICT|INTERRES
    51   24  149 1    
    52   25   26 2    
    53   25   27 1    
    54   27   28 1    
    55   27   29 1    
    56   27  150 1    
    57   28  151 1    
    58   28  152 1    
    59   28  153 1    
    60   29   30 am   BACKBONE|DICT|INTERRES
    61   29  154 1    
    62   30   31 2    
    63   30   32 1    
    64   32   33 1    
    65   32   34 1    
    66   32  155 1    
    67   33  156 1    
    68   33  157 1    
    69   33  158 1    
    70   34   35 am   BACKBONE|DICT|INTERRES
    71   34  159 1    
    72   35   36 2    
    73   35   37 1    
    74   37   38 1    
    75   37   39 1    
    76   37  160 1    
    77   38  161 1    
    78   38  162 1    
    79   38  163 1    
    80   39   40 am   BACKBONE|DICT|INTERRES
    81   39  164 1    
    82   40   41 2    
    83   40   42 1    
    84   42   43 1    
    85   42   44 1    
    86   42  165 1    
    87   43  166 1    
    88   43  167 1    
    89   43  168 1    
    90   44   45 am   BACKBONE|DICT|INTERRES
    91   44  169 1    
    92   45   46 2    
    93   45   47 1    
    94   47   48 1    
    95   47   49 1    
    96   47  170 1    
    97   48  171 1    
    98   48  172 1    
    99   48  173 1    
   100   49   50 am   BACKBONE|DICT|INTERRES
   101   49  174 1    
   102   50   51 2    
   103   50   52 1    
   104   52   53 1    
   105   52   54 1    
   106   52  175 1    
   107   53  176 1    
   108   53  177 1    
   109   53  178 1    
   110   54   55 am   BACKBONE|DICT|INTERRES
   111   54  179 1    
   112   55   56 2    
   113   55   57 1    
   114   57   58 1    
   115   57   59 1    
   116   57  180 1    
   117   58  181 1    
   118   58  182 1    
   119   58  183 1    
   120   59   60 am   BACKBONE|DICT|INTERRES
   121   59  184 1    
   122   60   61 2    
   123   60   62 1    
   124   62   63 1    
   125   62   64 1    
   126   62  185 1    
   127   63  186 1    
   128   63  187 1    
   129   63  188 1    
   130   64   65 am   BACKBONE|DICT|INTERRES
   131   64  189 1    
   132   65   66 2    
   133   67   68 2    
   134   67   69 am   BACKBONE|DICT|INTERRES
   135   69   70 1    
   136   69  190 1    
   137   70   71 1    
   138   70   72 1    
   139   70  191 1    
   140   71  192 1    
   141   71  193 1    
   142   71  194 1    
   143   72   73 2    
   144   72   74 am   BACKBONE|DICT|INTERRES
   145   74   75 1    
   146   74  195 1    
   147   75   76 1    
   148   75   77 1    
   149   75  196 1    
   150   76  197 1    
   151   76  198 1    
   152   76  199 1    
   153   77   78 2    
   154   77   79 am   BACKBONE|DICT|INTERRES
   155   79   80 1    
   156   79  200 1    
   157   80   81 1    
   158   80   82 1    
   159   80  201 1    
   160   81  202 1    
   161   81  203 1    
   162   81  204 1    
   163   82   83 2    
   164   82   84 am   BACKBONE|DICT|INTERRES
   165   84   85 1    
   166   84  205 1    
   167   85   86 1    
   168   85   87 1    
   169   85  206 1    
   170   86  207 1    
   171   86  208 1    
   172   86  209 1    
   173   87   88 2    
   174   87   89 am   BACKBONE|DICT|INTERRES
   175   89   90 1    
   176   89  210 1    
   177   90   91 1    
   178   90   92 1    
   179   90  211 1    
   180   91  212 1    
   181   91  213 1    
   182   91  214 1    
   183   92   93 2    
   184   92   94 am   BACKBONE|DICT|INTERRES
   185   94   95 1    
   186   94  215 1    
   187   95   96 1    
   188   95   97 1    
   189   95  216 1    
   190   96  217 1    
   191   96  218 1    
   192   96  219 1    
   193   97   98 2    
   194   97   99 am   BACKBONE|DICT|INTERRES
   195   99  100 1    
   196   99  220 1    
   197  100  101 1    
   198  100  102 1    
   199  100  221 1    
   200  101  222 1    
   201  101  223 1    
   202  101  224 1    
   203  102  103 2    
   204  102  104 am   BACKBONE|DICT|INTERRES
   205  104  105 1    
   206  104  225 1    
   207  105  106 1    
   208  105  107 1    
   209  105  226 1    
   210  106  227 1    
   211  106  228 1    
   212  106  229 1    
   213  107  108 2    
   214  107  109 am   BACKBONE|DICT|INTERRES
   215  109  110 1    
   216  109  230 1    
   217  110  111 1    
   218  110  112 1    
   219  110  231 1    
   220  111  232 1    
   221  111  233 1    
   222  111  234 1    
   223  112  113 2    
   224  112  114 am   BACKBONE|DICT|INTERRES
   225  114  115 1    
   226  114  235 1    
   227  115  116 1    
   228  115  117 1    
   229  115  236 1    
   230  116  237 1    
   231  116  238 1    
   232  116  239 1    
   233  117  118 2    
   234  117  119 am   BACKBONE|DICT|INTERRES
   235  119  120 1    
   236  119  240 1    
   237  120  121 1    
   238  120  124 1    
   239  120  241 1    
   240  121  122 am   BACKBONE|DICT|INTERRES
   241  121  123 2    
   242  122  242 1    
   243  122  243 1    
   244  124  125 1    
   245  124  244 1    
   246  124  245 1    
   247  125  126 1    
   248  126  246 1    
   249  126  247 1    
@<TRIPOS>SUBSTRUCTURE
     1 UNK         1 GROUP             0       ****    0 ROOT    
