@<TRIPOS>MOLECULE
3R540
247   249    1
SMALL
USER_CHARGES


@<TRIPOS>ATOM
      1 CA          6.3913  -17.6896  -45.8310 C.3       0 UNK        -0.1800 
      2 C           6.3900  -17.4620  -47.3429 C.2       0 UNK         0.5000 
      3 O           7.1049  -18.1654  -48.0537 O.2       0 UNK        -0.5000 
      4 N           5.6111  -16.5174  -47.8888 N.am      1 UNK        -0.5000 
      5 CA          4.7671  -15.5411  -47.1949 C.3       1 UNK         0.1400 
      6 C6          3.7861  -14.8352  -48.1607 C.3       23 UNK        -0.0398 
      7 S7          2.5652  -15.9633  -48.9092 S.3       23 UNK        -0.2404 
      8 C8          2.0872  -14.9566  -50.3507 C.3       23 UNK        -0.0205 
      9 C9          0.7063  -15.3126  -50.8797 C.ar      23 UNK        -0.0193 
     10 C10         0.5395  -15.7918  -52.1831 C.ar      23 UNK        -0.1150 
     11 C11        -0.7365  -16.0517  -52.6970 C.ar      23 UNK        -0.0193 
     12 C12        -1.8515  -15.8296  -51.8761 C.ar      23 UNK        -0.1150 
     13 C13        -1.6961  -15.3724  -50.5650 C.ar      23 UNK        -0.0193 
     14 C14        -0.4166  -15.1061  -50.0764 C.ar      23 UNK        -0.1150 
     15 C15        -2.9141  -15.1511  -49.6836 C.3       23 UNK        -0.0205 
     16 S16        -3.5492  -16.7151  -49.0047 S.3       23 UNK        -0.2404 
     17 C17        -2.2506  -17.1802  -47.8037 C.3       23 UNK        -0.0398 
     18 CA         -1.5183  -18.5037  -48.1446 C.3       11 UNK         0.1400 
     19 N          -0.3808  -18.7397  -47.2515 N.am      11 UNK        -0.5000 
     20 C           0.4732  -19.7715  -47.3285 C.2       10 UNK         0.5000 
     21 O           0.4511  -20.6203  -48.2189 O.2       10 UNK        -0.5000 
     22 CA          1.4835  -19.9221  -46.1776 C.3       10 UNK         0.1400 
     23 CB          2.6836  -18.9838  -46.3746 C.3       10 UNK        -0.1800 
     24 N           0.8774  -19.6989  -44.8620 N.am      10 UNK        -0.5000 
     25 C          -0.1096  -20.4467  -44.3438 C.2       9 UNK         0.5000 
     26 O          -0.5820  -21.4352  -44.9032 O.2       9 UNK        -0.5000 
     27 CA         -0.7065  -19.9930  -42.9989 C.3       9 UNK         0.1400 
     28 CB          0.1966  -20.4086  -41.8290 C.3       9 UNK        -0.1800 
     29 N          -0.9542  -18.5516  -42.9534 N.am      9 UNK        -0.5000 
     30 C          -1.8255  -17.9091  -43.7453 C.2       8 UNK         0.5000 
     31 O          -2.5615  -18.4768  -44.5530 O.2       8 UNK        -0.5000 
     32 CA         -1.8284  -16.3700  -43.6682 C.3       8 UNK         0.1400 
     33 CB         -2.6613  -15.8716  -42.4783 C.3       8 UNK        -0.1800 
     34 N          -0.4733  -15.8216  -43.5920 N.am      8 UNK        -0.5000 
     35 C           0.4423  -15.9439  -44.5636 C.2       7 UNK         0.5000 
     36 O           0.2107  -16.4488  -45.6605 O.2       7 UNK        -0.5000 
     37 CA          1.8696  -15.4844  -44.2338 C.3       7 UNK         0.1400 
     38 CB          2.0403  -13.9797  -44.4955 C.3       7 UNK        -0.1800 
     39 N           2.2296  -15.8190  -42.8552 N.am      7 UNK        -0.5000 
     40 C           2.5314  -17.0603  -42.4431 C.2       6 UNK         0.5000 
     41 O           2.6000  -18.0222  -43.2068 O.2       6 UNK        -0.5000 
     42 CA          2.7268  -17.2942  -40.9310 C.3       6 UNK         0.1400 
     43 CB          4.2077  -17.2855  -40.5326 C.3       6 UNK        -0.1800 
     44 N           1.9887  -16.3371  -40.1089 N.am      6 UNK        -0.5000 
     45 C           0.6565  -16.3614  -39.9652 C.2       5 UNK         0.5000 
     46 O          -0.0624  -17.2285  -40.4618 O.2       5 UNK        -0.5000 
     47 CA          0.0127  -15.1949  -39.1918 C.3       5 UNK         0.1400 
     48 CB         -0.0930  -15.5315  -37.6975 C.3       5 UNK        -0.1800 
     49 N           0.7290  -13.9274  -39.3520 N.am      5 UNK        -0.5000 
     50 C           0.9341  -13.3014  -40.5190 C.2       4 UNK         0.5000 
     51 O           0.5023  -13.7213  -41.5920 O.2       4 UNK        -0.5000 
     52 CA          1.7731  -12.0076  -40.4936 C.3       4 UNK         0.1400 
     53 CB          1.6257  -11.2234  -39.1717 C.3       4 UNK        -0.1800 
     54 N           3.1974  -12.2106  -40.7982 N.am      4 UNK        -0.5000 
     55 C           4.0590  -13.0405  -40.1897 C.2       3 UNK         0.5000 
     56 O           3.7255  -13.9129  -39.3845 O.2       3 UNK        -0.5000 
     57 CA          5.5527  -12.8113  -40.5153 C.3       3 UNK         0.1400 
     58 CB          6.4946  -13.7900  -39.7816 C.3       3 UNK        -0.1800 
     59 N           5.8640  -12.7751  -41.9502 N.am      3 UNK        -0.5000 
     60 C           5.6864  -13.7678  -42.8311 C.2       2 UNK         0.5000 
     61 O           5.1313  -14.8351  -42.5694 O.2       2 UNK        -0.5000 
     62 CA          6.2565  -13.5528  -44.2400 C.3       2 UNK         0.1400 
     63 CB          7.7772  -13.8076  -44.2454 C.3       2 UNK        -0.1800 
     64 N           5.5756  -14.4812  -45.1374 N.am      2 UNK        -0.5000 
     65 C           5.6367  -14.4924  -46.4719 C.2       1 UNK         0.5000 
     66 O           6.3284  -13.7179  -47.1357 O.2       1 UNK        -0.5000 
     67 C          -2.4790  -19.7114  -48.1493 C.2       11 UNK         0.5000 
     68 O          -2.7587  -20.2512  -49.2179 O.2       11 UNK        -0.5000 
     69 N          -2.9228  -20.1430  -46.9589 N.am      12 UNK        -0.5000 
     70 CA         -3.8216  -21.2837  -46.7710 C.3       12 UNK         0.1400 
     71 CB         -4.2157  -21.3872  -45.2903 C.3       12 UNK        -0.1800 
     72 C          -3.2358  -22.6156  -47.2767 C.2       12 UNK         0.5000 
     73 O          -3.9414  -23.3736  -47.9455 O.2       12 UNK        -0.5000 
     74 N          -1.9526  -22.8600  -46.9774 N.am      13 UNK        -0.5000 
     75 CA         -1.2017  -24.0349  -47.4198 C.3       13 UNK         0.1400 
     76 CB          0.1619  -24.0717  -46.7135 C.3       13 UNK        -0.1800 
     77 C          -1.0255  -24.0905  -48.9473 C.2       13 UNK         0.5000 
     78 O          -1.1887  -25.1604  -49.5347 O.2       13 UNK        -0.5000 
     79 N          -0.7215  -22.9394  -49.5629 N.am      14 UNK        -0.5000 
     80 CA         -0.6099  -22.7862  -51.0129 C.3       14 UNK         0.1400 
     81 CB          0.0541  -21.4396  -51.3359 C.3       14 UNK        -0.1800 
     82 C          -1.9696  -22.9051  -51.7236 C.2       14 UNK         0.5000 
     83 O          -2.0361  -23.4777  -52.8102 O.2       14 UNK        -0.5000 
     84 N          -3.0236  -22.3604  -51.1015 N.am      15 UNK        -0.5000 
     85 CA         -4.3966  -22.3905  -51.5969 C.3       15 UNK         0.1400 
     86 CB         -5.2525  -21.4020  -50.7906 C.3       15 UNK        -0.1800 
     87 C          -5.0265  -23.7868  -51.5748 C.2       15 UNK         0.5000 
     88 O          -5.7828  -24.1092  -52.4915 O.2       15 UNK        -0.5000 
     89 N          -4.7283  -24.5691  -50.5266 N.am      16 UNK        -0.5000 
     90 CA         -5.2444  -25.9171  -50.2667 C.3       16 UNK         0.1400 
     91 CB         -4.6937  -26.9152  -51.3072 C.3       16 UNK        -0.1800 
     92 C          -6.7847  -25.9223  -50.1776 C.2       16 UNK         0.5000 
     93 O          -7.4505  -26.6503  -50.9143 O.2       16 UNK        -0.5000 
     94 N          -7.3192  -25.0405  -49.3180 N.am      17 UNK        -0.5000 
     95 CA         -8.7479  -24.7297  -49.1556 C.3       17 UNK         0.1400 
     96 CB         -9.5249  -25.9450  -48.6063 C.3       17 UNK        -0.1800 
     97 C          -9.3739  -24.1353  -50.4385 C.2       17 UNK         0.5000 
     98 O         -10.5242  -24.4279  -50.7673 O.2       17 UNK        -0.5000 
     99 N          -8.5756  -23.3164  -51.1395 N.am      18 UNK        -0.5000 
    100 CA        -8.8512  -22.6211  -52.4033 C.3       18 UNK         0.1400 
    101 CB       -10.0666  -21.6803  -52.2745 C.3       18 UNK        -0.1800 
    102 C         -8.9469  -23.5370  -53.6415 C.2       18 UNK         0.5000 
    103 O         -9.2653  -23.0424  -54.7239 O.2       18 UNK        -0.5000 
    104 N         -8.6268  -24.8313  -53.4990 N.am      19 UNK        -0.5000 
    105 CA        -8.6144  -25.8083  -54.5905 C.3       19 UNK         0.1400 
    106 CB        -8.4922  -27.2223  -54.0045 C.3       19 UNK        -0.1800 
    107 C         -7.4947  -25.5582  -55.6197 C.2       19 UNK         0.5000 
    108 O         -7.6690  -25.8915  -56.7924 O.2       19 UNK        -0.5000 
    109 N         -6.3795  -24.9701  -55.1687 N.am      20 UNK        -0.5000 
    110 CA        -5.2100  -24.6323  -55.9810 C.3       20 UNK         0.1400 
    111 CB        -3.9657  -25.2385  -55.3102 C.3       20 UNK        -0.1800 
    112 C         -5.0599  -23.1095  -56.1752 C.2       20 UNK         0.5000 
    113 O         -3.9993  -22.6659  -56.6213 O.2       20 UNK        -0.5000 
    114 N         -6.1061  -22.3371  -55.8342 N.am      21 UNK        -0.5000 
    115 CA        -6.1836  -20.8700  -55.8046 C.3       21 UNK         0.1400 
    116 CB        -6.0314  -20.2597  -57.2141 C.3       21 UNK        -0.1800 
    117 C         -5.2002  -20.2817  -54.7758 C.2       21 UNK         0.5000 
    118 O         -5.6029  -20.0199  -53.6440 O.2       21 UNK        -0.5000 
    119 N         -3.9308  -20.1572  -55.1699 N.am      22 UNK        -0.5000 
    120 CA        -2.7559  -19.9927  -54.3042 C.3       22 UNK         0.1400 
    121 C         -1.4448  -20.4574  -55.0034 C.2       22 UNK         0.5000 
    122 N         -1.5055  -21.3554  -55.9820 N.am      22 UNK        -0.7600 
    123 O         -0.3535  -20.0151  -54.6588 O.2       22 UNK        -0.5000 
    124 C124       -2.6727  -18.6262  -53.5729 C.3       23 UNK        -0.0398 
    125 S125       -2.4881  -17.1754  -54.6662 S.3       23 UNK        -0.2404 
    126 C126       -0.8503  -16.5450  -54.1445 C.3       23 UNK        -0.0205 
    127 H127        6.7630  -18.6886  -45.6024 H         1 UNK         0.0600 
    128 H128        5.3952  -17.6121  -45.3980 H         1 UNK         0.0600 
    129 H129        7.0470  -16.9719  -45.3385 H         1 UNK         0.0600 
    130 H130        5.6390  -16.4055  -48.8916 H         1 UNK         0.3000 
    131 H131        4.1671  -16.0729  -46.4582 H         1 UNK         0.0600 
    132 H132        3.2277  -14.0558  -47.6392 H         1 UNK         0.0800 
    133 H133        4.3382  -14.3321  -48.9573 H         1 UNK         0.0800 
    134 H134        2.8450  -15.0679  -51.1276 H         1 UNK         0.0800 
    135 H135        2.0809  -13.9010  -50.0748 H         1 UNK         0.0800 
    136 H136        1.4069  -15.9450  -52.8101 H         1 UNK         0.1150 
    137 H137       -2.8510  -16.0109  -52.2421 H         1 UNK         0.1150 
    138 H138       -0.2895  -14.7328  -49.0697 H         1 UNK         0.1150 
    139 H139       -2.6865  -14.4626  -48.8681 H         1 UNK         0.0800 
    140 H140       -3.7024  -14.6766  -50.2698 H         1 UNK         0.0800 
    141 H141       -2.7147  -17.2379  -46.8198 H         1 UNK         0.0800 
    142 H142       -1.5247  -16.3704  -47.7337 H         1 UNK         0.0800 
    143 H143       -1.1080  -18.4066  -49.1523 H         1 UNK         0.0600 
    144 H144       -0.2418  -18.0537  -46.5138 H         1 UNK         0.3000 
    145 H145        1.8544  -20.9488  -46.1971 H         1 UNK         0.0600 
    146 H146        3.4386  -19.1444  -45.6054 H         1 UNK         0.0600 
    147 H147        3.1610  -19.1558  -47.3402 H         1 UNK         0.0600 
    148 H148        2.3856  -17.9367  -46.3420 H         1 UNK         0.0600 
    149 H149        1.2616  -18.9386  -44.3100 H         1 UNK         0.3000 
    150 H150       -1.6681  -20.4956  -42.8756 H         1 UNK         0.0600 
    151 H151        0.3156  -21.4922  -41.7980 H         1 UNK         0.0600 
    152 H152       -0.2257  -20.0994  -40.8727 H         1 UNK         0.0600 
    153 H153        1.1921  -19.9748  -41.9135 H         1 UNK         0.0600 
    154 H154       -0.4368  -18.0181  -42.2625 H         1 UNK         0.3000 
    155 H155       -2.2889  -15.9921  -44.5834 H         1 UNK         0.0600 
    156 H156       -2.2676  -16.2286  -41.5273 H         1 UNK         0.0600 
    157 H157       -3.6924  -16.2184  -42.5551 H         1 UNK         0.0600 
    158 H158       -2.6855  -14.7823  -42.4426 H         1 UNK         0.0600 
    159 H159       -0.2081  -15.3478  -42.7361 H         1 UNK         0.3000 
    160 H160        2.5502  -16.0171  -44.8966 H         1 UNK         0.0600 
    161 H161        3.0223  -13.6258  -44.1876 H         1 UNK         0.0600 
    162 H162        1.2944  -13.3827  -43.9728 H         1 UNK         0.0600 
    163 H163        1.9321  -13.7616  -45.5582 H         1 UNK         0.0600 
    164 H164        2.1407  -15.0812  -42.1702 H         1 UNK         0.3000 
    165 H165        2.3446  -18.2932  -40.7140 H         1 UNK         0.0600 
    166 H166        4.3429  -17.6751  -39.5237 H         1 UNK         0.0600 
    167 H167        4.8037  -17.9037  -41.2052 H         1 UNK         0.0600 
    168 H168        4.6205  -16.2799  -40.5531 H         1 UNK         0.0600 
    169 H169        2.5179  -15.5703  -39.7050 H         1 UNK         0.3000 
    170 H170       -0.9965  -15.0575  -39.5849 H         1 UNK         0.0600 
    171 H171       -0.6412  -16.4621  -37.5448 H         1 UNK         0.0600 
    172 H172        0.8908  -15.6508  -37.2418 H         1 UNK         0.0600 
    173 H173       -0.6235  -14.7499  -37.1533 H         1 UNK         0.0600 
    174 H174        1.1579  -13.5420  -38.5232 H         1 UNK         0.3000 
    175 H175        1.3754  -11.3774  -41.2906 H         1 UNK         0.0600 
    176 H176        2.0926  -11.7367  -38.3305 H         1 UNK         0.0600 
    177 H177        2.0883  -10.2396  -39.2514 H         1 UNK         0.0600 
    178 H178        0.5756  -11.0640  -38.9229 H         1 UNK         0.0600 
    179 H179        3.5798  -11.5748  -41.4838 H         1 UNK         0.3000 
    180 H180        5.7801  -11.8144  -40.1348 H         1 UNK         0.0600 
    181 H181        6.3574  -14.8183  -40.1134 H         1 UNK         0.0600 
    182 H182        6.3233  -13.7680  -38.7047 H         1 UNK         0.0600 
    183 H183        7.5390  -13.5256  -39.9466 H         1 UNK         0.0600 
    184 H184        6.3184  -11.9308  -42.2700 H         1 UNK         0.3000 
    185 H185        6.0452  -12.5295  -44.5563 H         1 UNK         0.0600 
    186 H186        8.2883  -13.1519  -43.5396 H         1 UNK         0.0600 
    187 H187        8.0107  -14.8356  -43.9656 H         1 UNK         0.0600 
    188 H188        8.2145  -13.6212  -45.2259 H         1 UNK         0.0600 
    189 H189        4.9994  -15.1464  -44.6346 H         1 UNK         0.3000 
    190 H190       -2.6487  -19.6397  -46.1196 H         1 UNK         0.3000 
    191 H191       -4.7270  -21.0837  -47.3470 H         1 UNK         0.0600 
    192 H192       -3.3467  -21.5497  -44.6521 H         1 UNK         0.0600 
    193 H193       -4.9051  -22.2162  -45.1257 H         1 UNK         0.0600 
    194 H194       -4.7124  -20.4780  -44.9508 H         1 UNK         0.0600 
    195 H195       -1.4552  -22.2025  -46.3811 H         1 UNK         0.3000 
    196 H196       -1.7639  -24.9211  -47.1183 H         1 UNK         0.0600 
    197 H197        0.7378  -24.9461  -47.0188 H         1 UNK         0.0600 
    198 H198        0.0432  -24.1217  -45.6310 H         1 UNK         0.0600 
    199 H199        0.7575  -23.1876  -46.9435 H         1 UNK         0.0600 
    200 H200       -0.5572  -22.1058  -49.0049 H         1 UNK         0.3000 
    201 H201        0.0360  -23.5818  -51.3900 H         1 UNK         0.0600 
    202 H202        1.0336  -21.3593  -50.8646 H         1 UNK         0.0600 
    203 H203       -0.5508  -20.5976  -50.9963 H         1 UNK         0.0600 
    204 H204        0.2032  -21.3289  -52.4094 H         1 UNK         0.0600 
    205 H205       -2.8651  -21.8271  -50.2498 H         1 UNK         0.3000 
    206 H206       -4.3887  -22.0779  -52.6387 H         1 UNK         0.0600 
    207 H207       -4.8669  -20.3865  -50.8835 H         1 UNK         0.0600 
    208 H208       -6.2800  -21.3812  -51.1495 H         1 UNK         0.0600 
    209 H209       -5.2768  -21.6565  -49.7311 H         1 UNK         0.0600 
    210 H210       -4.1510  -24.1739  -49.7903 H         1 UNK         0.3000 
    211 H211       -4.8693  -26.2144  -49.2864 H         1 UNK         0.0600 
    212 H212       -4.9949  -27.9351  -51.0657 H         1 UNK         0.0600 
    213 H213       -3.6041  -26.8938  -51.3314 H         1 UNK         0.0600 
    214 H214       -5.0540  -26.6982  -52.3135 H         1 UNK         0.0600 
    215 H215       -6.6834  -24.4837  -48.7626 H         1 UNK         0.3000 
    216 H216       -8.8038  -23.9420  -48.4029 H         1 UNK         0.0600 
    217 H217      -10.5470  -25.6682  -48.3455 H         1 UNK         0.0600 
    218 H218       -9.0562  -26.3376  -47.7040 H         1 UNK         0.0600 
    219 H219       -9.5838  -26.7549  -49.3338 H         1 UNK         0.0600 
    220 H220       -7.6371  -23.1978  -50.7892 H         1 UNK         0.3000 
    221 H221       -7.9809  -21.9914  -52.5894 H         1 UNK         0.0600 
    222 H222      -11.0011  -22.2329  -52.1762 H         1 UNK         0.0600 
    223 H223       -9.9690  -21.0258  -51.4084 H         1 UNK         0.0600 
    224 H224      -10.1604  -21.0403  -53.1525 H         1 UNK         0.0600 
    225 H225       -8.3279  -25.1627  -52.5909 H         1 UNK         0.3000 
    226 H226       -9.5697  -25.7386  -55.1148 H         1 UNK         0.0600 
    227 H227       -9.2810  -27.4207  -53.2785 H         1 UNK         0.0600 
    228 H228       -8.5717  -27.9771  -54.7878 H         1 UNK         0.0600 
    229 H229       -7.5328  -27.3679  -53.5066 H         1 UNK         0.0600 
    230 H230       -6.3151  -24.7263  -54.1816 H         1 UNK         0.3000 
    231 H231       -5.2975  -25.0663  -56.9786 H         1 UNK         0.0600 
    232 H232       -4.0641  -26.3187  -55.2022 H         1 UNK         0.0600 
    233 H233       -3.8024  -24.8190  -54.3177 H         1 UNK         0.0600 
    234 H234       -3.0658  -25.0528  -55.8978 H         1 UNK         0.0600 
    235 H235       -6.9284  -22.8143  -55.4905 H         1 UNK         0.3000 
    236 H236       -7.1874  -20.6258  -55.4527 H         1 UNK         0.0600 
    237 H237       -5.0761  -20.5012  -57.6797 H         1 UNK         0.0600 
    238 H238       -6.8192  -20.6165  -57.8776 H         1 UNK         0.0600 
    239 H239       -6.1095  -19.1725  -57.1753 H         1 UNK         0.0600 
    240 H240       -3.7112  -20.4133  -56.1228 H         1 UNK         0.3000 
    241 H241       -2.8673  -20.7291  -53.5122 H         1 UNK         0.0600 
    242 H242       -2.3739  -21.8249  -56.2277 H         1 UNK         0.3800 
    243 H243       -0.6488  -21.6474  -56.4244 H         1 UNK         0.3800 
    244 H244       -1.8544  -18.6515  -52.8515 H         1 UNK         0.0800 
    245 H245       -3.5687  -18.4739  -52.9709 H         1 UNK         0.0800 
    246 H246       -0.1106  -17.3285  -54.3153 H         1 UNK         0.0800 
    247 H247       -0.5805  -15.7211  -54.8062 H         1 UNK         0.0800 
@<TRIPOS>BOND
     1    1    2 1    
     2    1  127 1    
     3    1  128 1    
     4    1  129 1    
     5    2    3 2    
     6    2    4 am   BACKBONE|DICT|INTERRES
     7    4    5 1    
     8    4  130 1    
     9    5    6 1    
    10    5   65 1    
    11    5  131 1    
    12    6    7 1    
    13    6  132 1    
    14    6  133 1    
    15    7    8 1    
    16    8    9 1    
    17    8  134 1    
    18    8  135 1    
    19    9   10 ar   
    20    9   14 ar   
    21   10   11 ar   
    22   10  136 1    
    23   11   12 ar   
    24   11  126 1    
    25   12   13 ar   
    26   12  137 1    
    27   13   14 ar   
    28   13   15 1    
    29   14  138 1    
    30   15   16 1    
    31   15  139 1    
    32   15  140 1    
    33   16   17 1    
    34   17   18 1    
    35   17  141 1    
    36   17  142 1    
    37   18   19 1    
    38   18   67 1    
    39   18  143 1    
    40   19   20 am   BACKBONE|DICT|INTERRES
    41   19  144 1    
    42   20   21 2    
    43   20   22 1    
    44   22   23 1    
    45   22   24 1    
    46   22  145 1    
    47   23  146 1    
    48   23  147 1    
    49   23  148 1    
    50   24   25 am   BACKBONE|DICT|INTERRES
    51   24  149 1    
    52   25   26 2    
    53   25   27 1    
    54   27   28 1    
    55   27   29 1    
    56   27  150 1    
    57   28  151 1    
    58   28  152 1    
    59   28  153 1    
    60   29   30 am   BACKBONE|DICT|INTERRES
    61   29  154 1    
    62   30   31 2    
    63   30   32 1    
    64   32   33 1    
    65   32   34 1    
    66   32  155 1    
    67   33  156 1    
    68   33  157 1    
    69   33  158 1    
    70   34   35 am   BACKBONE|DICT|INTERRES
    71   34  159 1    
    72   35   36 2    
    73   35   37 1    
    74   37   38 1    
    75   37   39 1    
    76   37  160 1    
    77   38  161 1    
    78   38  162 1    
    79   38  163 1    
    80   39   40 am   BACKBONE|DICT|INTERRES
    81   39  164 1    
    82   40   41 2    
    83   40   42 1    
    84   42   43 1    
    85   42   44 1    
    86   42  165 1    
    87   43  166 1    
    88   43  167 1    
    89   43  168 1    
    90   44   45 am   BACKBONE|DICT|INTERRES
    91   44  169 1    
    92   45   46 2    
    93   45   47 1    
    94   47   48 1    
    95   47   49 1    
    96   47  170 1    
    97   48  171 1    
    98   48  172 1    
    99   48  173 1    
   100   49   50 am   BACKBONE|DICT|INTERRES
   101   49  174 1    
   102   50   51 2    
   103   50   52 1    
   104   52   53 1    
   105   52   54 1    
   106   52  175 1    
   107   53  176 1    
   108   53  177 1    
   109   53  178 1    
   110   54   55 am   BACKBONE|DICT|INTERRES
   111   54  179 1    
   112   55   56 2    
   113   55   57 1    
   114   57   58 1    
   115   57   59 1    
   116   57  180 1    
   117   58  181 1    
   118   58  182 1    
   119   58  183 1    
   120   59   60 am   BACKBONE|DICT|INTERRES
   121   59  184 1    
   122   60   61 2    
   123   60   62 1    
   124   62   63 1    
   125   62   64 1    
   126   62  185 1    
   127   63  186 1    
   128   63  187 1    
   129   63  188 1    
   130   64   65 am   BACKBONE|DICT|INTERRES
   131   64  189 1    
   132   65   66 2    
   133   67   68 2    
   134   67   69 am   BACKBONE|DICT|INTERRES
   135   69   70 1    
   136   69  190 1    
   137   70   71 1    
   138   70   72 1    
   139   70  191 1    
   140   71  192 1    
   141   71  193 1    
   142   71  194 1    
   143   72   73 2    
   144   72   74 am   BACKBONE|DICT|INTERRES
   145   74   75 1    
   146   74  195 1    
   147   75   76 1    
   148   75   77 1    
   149   75  196 1    
   150   76  197 1    
   151   76  198 1    
   152   76  199 1    
   153   77   78 2    
   154   77   79 am   BACKBONE|DICT|INTERRES
   155   79   80 1    
   156   79  200 1    
   157   80   81 1    
   158   80   82 1    
   159   80  201 1    
   160   81  202 1    
   161   81  203 1    
   162   81  204 1    
   163   82   83 2    
   164   82   84 am   BACKBONE|DICT|INTERRES
   165   84   85 1    
   166   84  205 1    
   167   85   86 1    
   168   85   87 1    
   169   85  206 1    
   170   86  207 1    
   171   86  208 1    
   172   86  209 1    
   173   87   88 2    
   174   87   89 am   BACKBONE|DICT|INTERRES
   175   89   90 1    
   176   89  210 1    
   177   90   91 1    
   178   90   92 1    
   179   90  211 1    
   180   91  212 1    
   181   91  213 1    
   182   91  214 1    
   183   92   93 2    
   184   92   94 am   BACKBONE|DICT|INTERRES
   185   94   95 1    
   186   94  215 1    
   187   95   96 1    
   188   95   97 1    
   189   95  216 1    
   190   96  217 1    
   191   96  218 1    
   192   96  219 1    
   193   97   98 2    
   194   97   99 am   BACKBONE|DICT|INTERRES
   195   99  100 1    
   196   99  220 1    
   197  100  101 1    
   198  100  102 1    
   199  100  221 1    
   200  101  222 1    
   201  101  223 1    
   202  101  224 1    
   203  102  103 2    
   204  102  104 am   BACKBONE|DICT|INTERRES
   205  104  105 1    
   206  104  225 1    
   207  105  106 1    
   208  105  107 1    
   209  105  226 1    
   210  106  227 1    
   211  106  228 1    
   212  106  229 1    
   213  107  108 2    
   214  107  109 am   BACKBONE|DICT|INTERRES
   215  109  110 1    
   216  109  230 1    
   217  110  111 1    
   218  110  112 1    
   219  110  231 1    
   220  111  232 1    
   221  111  233 1    
   222  111  234 1    
   223  112  113 2    
   224  112  114 am   BACKBONE|DICT|INTERRES
   225  114  115 1    
   226  114  235 1    
   227  115  116 1    
   228  115  117 1    
   229  115  236 1    
   230  116  237 1    
   231  116  238 1    
   232  116  239 1    
   233  117  118 2    
   234  117  119 am   BACKBONE|DICT|INTERRES
   235  119  120 1    
   236  119  240 1    
   237  120  121 1    
   238  120  124 1    
   239  120  241 1    
   240  121  122 am   BACKBONE|DICT|INTERRES
   241  121  123 2    
   242  122  242 1    
   243  122  243 1    
   244  124  125 1    
   245  124  244 1    
   246  124  245 1    
   247  125  126 1    
   248  126  246 1    
   249  126  247 1    
@<TRIPOS>SUBSTRUCTURE
     1 UNK         1 GROUP             0       ****    0 ROOT    
