@<TRIPOS>MOLECULE
3R540
247   249    1
SMALL
USER_CHARGES


@<TRIPOS>ATOM
      1 CA          5.6622  -16.1511  -46.9904 C.3       0 UNK        -0.1800 
      2 C           4.4829  -16.1381  -47.9515 C.2       0 UNK         0.5000 
      3 O           3.3894  -16.5598  -47.5796 O.2       0 UNK        -0.5000 
      4 N           4.6947  -15.6500  -49.1811 N.am      1 UNK        -0.5000 
      5 CA          3.6831  -15.5444  -50.2388 C.3       1 UNK         0.1400 
      6 C6          4.3295  -15.6617  -51.6462 C.3       23 UNK        -0.0398 
      7 S7          3.1329  -16.0086  -52.9863 S.3       23 UNK        -0.2404 
      8 C8          3.1346  -17.8319  -53.0613 C.3       23 UNK        -0.0205 
      9 C9          2.5562  -18.4428  -51.7948 C.ar      23 UNK        -0.0193 
     10 C10         1.2026  -18.2715  -51.4939 C.ar      23 UNK        -0.1150 
     11 C11         0.6795  -18.7440  -50.2895 C.ar      23 UNK        -0.0193 
     12 C12         1.5151  -19.4273  -49.3990 C.ar      23 UNK        -0.1150 
     13 C13         2.8732  -19.6047  -49.6835 C.ar      23 UNK        -0.0193 
     14 C14         3.3833  -19.1171  -50.8913 C.ar      23 UNK        -0.1150 
     15 C15         3.8197  -20.2329  -48.6629 C.3       23 UNK        -0.0205 
     16 S16         3.3045  -21.8861  -48.0891 S.3       23 UNK        -0.2404 
     17 C17         2.5926  -21.5001  -46.4497 C.3       23 UNK        -0.0398 
     18 CA          1.5629  -22.5484  -45.9585 C.3       11 UNK         0.1400 
     19 N           1.2870  -22.3901  -44.5311 N.am      11 UNK        -0.5000 
     20 C           0.7833  -23.3290  -43.7200 C.2       10 UNK         0.5000 
     21 O           0.5458  -24.4823  -44.0813 O.2       10 UNK        -0.5000 
     22 CA          0.4662  -22.8812  -42.2743 C.3       10 UNK         0.1400 
     23 CB          0.5222  -24.0380  -41.2555 C.3       10 UNK        -0.1800 
     24 N           1.2769  -21.7365  -41.8375 N.am      10 UNK        -0.5000 
     25 C           2.6050  -21.6946  -41.6503 C.2       9 UNK         0.5000 
     26 O           3.3409  -22.6793  -41.7186 O.2       9 UNK        -0.5000 
     27 CA          3.2327  -20.3102  -41.3891 C.3       9 UNK         0.1400 
     28 CB          3.9773  -19.8278  -42.6450 C.3       9 UNK        -0.1800 
     29 N           2.2633  -19.2832  -41.0006 N.am      9 UNK        -0.5000 
     30 C           1.6861  -19.1866  -39.7955 C.2       8 UNK         0.5000 
     31 O           1.9201  -19.9534  -38.8608 O.2       8 UNK        -0.5000 
     32 CA          0.6555  -18.0560  -39.6151 C.3       8 UNK         0.1400 
     33 CB          1.3510  -16.7197  -39.3129 C.3       8 UNK        -0.1800 
     34 N          -0.2128  -17.8993  -40.7831 N.am      8 UNK        -0.5000 
     35 C          -1.1531  -18.7811  -41.1521 C.2       7 UNK         0.5000 
     36 O          -1.4080  -19.8124  -40.5302 O.2       7 UNK        -0.5000 
     37 CA         -1.9100  -18.4787  -42.4572 C.3       7 UNK         0.1400 
     38 CB         -3.0466  -17.4763  -42.2091 C.3       7 UNK        -0.1800 
     39 N          -1.0243  -17.9700  -43.5031 N.am      7 UNK        -0.5000 
     40 C          -0.0637  -18.6942  -44.0912 C.2       6 UNK         0.5000 
     41 O           0.1172  -19.8926  -43.8812 O.2       6 UNK        -0.5000 
     42 CA          0.8568  -17.9725  -45.0827 C.3       6 UNK         0.1400 
     43 CB          0.2200  -17.9779  -46.4712 C.3       6 UNK        -0.1800 
     44 N           1.1614  -16.6008  -44.7021 N.am      6 UNK        -0.5000 
     45 C           1.8269  -16.2294  -43.6035 C.2       5 UNK         0.5000 
     46 O           2.2555  -17.0163  -42.7604 O.2       5 UNK        -0.5000 
     47 CA          1.9908  -14.7165  -43.3958 C.3       5 UNK         0.1400 
     48 CB          3.1216  -14.1636  -44.2776 C.3       5 UNK        -0.1800 
     49 N           0.7473  -14.0018  -43.6846 N.am      5 UNK        -0.5000 
     50 C          -0.3532  -14.0620  -42.9219 C.2       4 UNK         0.5000 
     51 O          -0.4229  -14.6966  -41.8682 O.2       4 UNK        -0.5000 
     52 CA         -1.5911  -13.3083  -43.4428 C.3       4 UNK         0.1400 
     53 CB         -1.5045  -11.8149  -43.0936 C.3       4 UNK        -0.1800 
     54 N          -1.7831  -13.4592  -44.8873 N.am      4 UNK        -0.5000 
     55 C          -2.1286  -14.6093  -45.4823 C.2       3 UNK         0.5000 
     56 O          -2.3172  -15.6620  -44.8739 O.2       3 UNK        -0.5000 
     57 CA         -2.2459  -14.5924  -47.0194 C.3       3 UNK         0.1400 
     58 CB         -3.6284  -14.0815  -47.4515 C.3       3 UNK        -0.1800 
     59 N          -1.2026  -13.8240  -47.7111 N.am      3 UNK        -0.5000 
     60 C           0.1124  -14.0374  -47.5785 C.2       2 UNK         0.5000 
     61 O           0.6012  -14.7893  -46.7352 O.2       2 UNK        -0.5000 
     62 CA          1.0537  -13.3083  -48.5410 C.3       2 UNK         0.1400 
     63 CB          1.7048  -12.0892  -47.8671 C.3       2 UNK        -0.1800 
     64 N           2.0692  -14.2798  -48.9216 N.am      2 UNK        -0.5000 
     65 C           2.8035  -14.2886  -50.0357 C.2       1 UNK         0.5000 
     66 O           2.8117  -13.3671  -50.8538 O.2       1 UNK        -0.5000 
     67 C           0.2610  -22.4783  -46.7785 C.2       11 UNK         0.5000 
     68 O           0.1607  -23.1545  -47.7999 O.2       11 UNK        -0.5000 
     69 N          -0.7158  -21.6799  -46.3175 N.am      12 UNK        -0.5000 
     70 CA         -1.9603  -21.3764  -47.0313 C.3       12 UNK         0.1400 
     71 CB         -2.8176  -20.4217  -46.1850 C.3       12 UNK        -0.1800 
     72 C          -2.7752  -22.6164  -47.4427 C.2       12 UNK         0.5000 
     73 O          -3.2567  -22.6832  -48.5736 O.2       12 UNK        -0.5000 
     74 N          -2.8726  -23.5894  -46.5284 N.am      13 UNK        -0.5000 
     75 CA         -3.5745  -24.8555  -46.7400 C.3       13 UNK         0.1400 
     76 CB         -3.7817  -25.5381  -45.3791 C.3       13 UNK        -0.1800 
     77 C          -2.8505  -25.8067  -47.7131 C.2       13 UNK         0.5000 
     78 O          -3.5076  -26.6397  -48.3385 O.2       13 UNK        -0.5000 
     79 N          -1.5209  -25.6816  -47.8129 N.am      14 UNK        -0.5000 
     80 CA         -0.6789  -26.4945  -48.6870 C.3       14 UNK         0.1400 
     81 CB          0.7126  -26.6484  -48.0514 C.3       14 UNK        -0.1800 
     82 C          -0.5729  -25.8837  -50.0933 C.2       14 UNK         0.5000 
     83 O          -0.6850  -26.6112  -51.0807 O.2       14 UNK        -0.5000 
     84 N          -0.3447  -24.5656  -50.1556 N.am      15 UNK        -0.5000 
     85 CA         -0.1591  -23.8065  -51.3877 C.3       15 UNK         0.1400 
     86 CB          0.4865  -22.4503  -51.0605 C.3       15 UNK        -0.1800 
     87 C          -1.4688  -23.6345  -52.1733 C.2       15 UNK         0.5000 
     88 O          -1.5204  -24.0257  -53.3402 O.2       15 UNK        -0.5000 
     89 N          -2.4909  -23.0573  -51.5180 N.am      16 UNK        -0.5000 
     90 CA         -3.8253  -22.7423  -52.0489 C.3       16 UNK         0.1400 
     91 CB         -4.6812  -24.0227  -52.1026 C.3       16 UNK        -0.1800 
     92 C          -3.7885  -21.9843  -53.3975 C.2       16 UNK         0.5000 
     93 O          -4.4878  -22.3595  -54.3417 O.2       16 UNK        -0.5000 
     94 N          -2.9245  -20.9616  -53.4685 N.am      17 UNK        -0.5000 
     95 CA         -2.6032  -20.1678  -54.6542 C.3       17 UNK         0.1400 
     96 CB         -1.5171  -19.1414  -54.2882 C.3       17 UNK        -0.1800 
     97 C          -3.8434  -19.4863  -55.2615 C.2       17 UNK         0.5000 
     98 O          -4.3480  -18.5178  -54.6917 O.2       17 UNK        -0.5000 
     99 N          -4.3106  -20.0348  -56.3934 N.am      18 UNK        -0.5000 
    100 CA        -5.5343  -19.6725  -57.1195 C.3       18 UNK         0.1400 
    101 CB        -5.4327  -18.2449  -57.6980 C.3       18 UNK        -0.1800 
    102 C         -6.8194  -19.9027  -56.2924 C.2       18 UNK         0.5000 
    103 O         -7.7895  -19.1580  -56.4470 O.2       18 UNK        -0.5000 
    104 N         -6.7977  -20.9352  -55.4334 N.am      19 UNK        -0.5000 
    105 CA        -7.8120  -21.2766  -54.4330 C.3       19 UNK         0.1400 
    106 CB        -9.1350  -21.7156  -55.1008 C.3       19 UNK        -0.1800 
    107 C         -7.9526  -20.1393  -53.4004 C.2       19 UNK         0.5000 
    108 O         -6.9298  -19.6799  -52.8899 O.2       19 UNK        -0.5000 
    109 N         -9.1914  -19.7193  -53.0958 N.am      20 UNK        -0.5000 
    110 CA        -9.5606  -18.5421  -52.2922 C.3       20 UNK         0.1400 
    111 CB        -9.3058  -17.2613  -53.1137 C.3       20 UNK        -0.1800 
    112 C         -8.8969  -18.4813  -50.8973 C.2       20 UNK         0.5000 
    113 O         -8.5573  -17.3960  -50.4206 O.2       20 UNK        -0.5000 
    114 N         -8.6696  -19.6595  -50.2954 N.am      21 UNK        -0.5000 
    115 CA        -7.9346  -19.8862  -49.0436 C.3       21 UNK         0.1400 
    116 CB        -8.7523  -19.3719  -47.8404 C.3       21 UNK        -0.1800 
    117 C         -6.4887  -19.3334  -49.0609 C.2       21 UNK         0.5000 
    118 O         -5.9563  -18.9843  -48.0065 O.2       21 UNK        -0.5000 
    119 N         -5.8832  -19.2575  -50.2562 N.am      22 UNK        -0.5000 
    120 CA        -4.5728  -18.6464  -50.5309 C.3       22 UNK         0.1400 
    121 C         -4.5680  -17.0863  -50.4654 C.2       22 UNK         0.5000 
    122 N         -5.7140  -16.4144  -50.4216 N.am      22 UNK        -0.7600 
    123 O         -3.5109  -16.4635  -50.4735 O.2       22 UNK        -0.5000 
    124 C124       -3.4316  -19.3027  -49.7011 C.3       23 UNK        -0.0398 
    125 S125       -1.9153  -19.6448  -50.6540 S.3       23 UNK        -0.2404 
    126 C126       -0.7669  -18.4478  -49.9255 C.3       23 UNK        -0.0205 
    127 H127        5.4395  -15.5375  -46.1176 H         1 UNK         0.0600 
    128 H128        5.8569  -17.1687  -46.6520 H         1 UNK         0.0600 
    129 H129        6.5700  -15.7665  -47.4558 H         1 UNK         0.0600 
    130 H130        5.6073  -15.2846  -49.4131 H         1 UNK         0.3000 
    131 H131        3.0090  -16.3931  -50.1234 H         1 UNK         0.0600 
    132 H132        4.8796  -14.7528  -51.8951 H         1 UNK         0.0800 
    133 H133        5.0703  -16.4625  -51.6468 H         1 UNK         0.0800 
    134 H134        4.1489  -18.1899  -53.2441 H         1 UNK         0.0800 
    135 H135        2.5368  -18.1520  -53.9159 H         1 UNK         0.0800 
    136 H136        0.5654  -17.7300  -52.1792 H         1 UNK         0.1150 
    137 H137        1.1162  -19.8001  -48.4703 H         1 UNK         0.1150 
    138 H138        4.4360  -19.2250  -51.1114 H         1 UNK         0.1150 
    139 H139        4.8183  -20.3317  -49.0908 H         1 UNK         0.0800 
    140 H140        3.9263  -19.5536  -47.8160 H         1 UNK         0.0800 
    141 H141        2.1526  -20.5027  -46.4623 H         1 UNK         0.0800 
    142 H142        3.4262  -21.4494  -45.7476 H         1 UNK         0.0800 
    143 H143        1.9922  -23.5419  -46.1065 H         1 UNK         0.0600 
    144 H144        1.3415  -21.4493  -44.1583 H         1 UNK         0.3000 
    145 H145       -0.5625  -22.5185  -42.2971 H         1 UNK         0.0600 
    146 H146        0.3030  -23.6858  -40.2475 H         1 UNK         0.0600 
    147 H147       -0.2136  -24.8058  -41.4971 H         1 UNK         0.0600 
    148 H148        1.4998  -24.5200  -41.2389 H         1 UNK         0.0600 
    149 H149        0.7801  -20.8567  -41.7895 H         1 UNK         0.3000 
    150 H150        3.9592  -20.4250  -40.5820 H         1 UNK         0.0600 
    151 H151        4.7380  -20.5463  -42.9530 H         1 UNK         0.0600 
    152 H152        4.4824  -18.8788  -42.4637 H         1 UNK         0.0600 
    153 H153        3.2969  -19.6883  -43.4856 H         1 UNK         0.0600 
    154 H154        2.0732  -18.5577  -41.6881 H         1 UNK         0.3000 
    155 H155        0.0285  -18.3109  -38.7580 H         1 UNK         0.0600 
    156 H156        1.9874  -16.3977  -40.1376 H         1 UNK         0.0600 
    157 H157        1.9794  -16.7991  -38.4250 H         1 UNK         0.0600 
    158 H158        0.6225  -15.9301  -39.1273 H         1 UNK         0.0600 
    159 H159       -0.0650  -17.0771  -41.3537 H         1 UNK         0.3000 
    160 H160       -2.3520  -19.4126  -42.8113 H         1 UNK         0.0600 
    161 H161       -3.6504  -17.3386  -43.1062 H         1 UNK         0.0600 
    162 H162       -2.6646  -16.4993  -41.9103 H         1 UNK         0.0600 
    163 H163       -3.7131  -17.8263  -41.4199 H         1 UNK         0.0600 
    164 H164       -1.1708  -17.0114  -43.8011 H         1 UNK         0.3000 
    165 H165        1.7992  -18.5202  -45.1293 H         1 UNK         0.0600 
    166 H166       -0.0358  -18.9927  -46.7680 H         1 UNK         0.0600 
    167 H167        0.9004  -17.5710  -47.2189 H         1 UNK         0.0600 
    168 H168       -0.6963  -17.3883  -46.4961 H         1 UNK         0.0600 
    169 H169        0.8860  -15.8816  -45.3699 H         1 UNK         0.3000 
    170 H170        2.2549  -14.5447  -42.3501 H         1 UNK         0.0600 
    171 H171        4.0674  -14.6556  -44.0478 H         1 UNK         0.0600 
    172 H172        2.9229  -14.3190  -45.3389 H         1 UNK         0.0600 
    173 H173        3.2628  -13.0950  -44.1156 H         1 UNK         0.0600 
    174 H174        0.6966  -13.5194  -44.5698 H         1 UNK         0.3000 
    175 H175       -2.4667  -13.7239  -42.9391 H         1 UNK         0.0600 
    176 H176       -2.4142  -11.2890  -43.3838 H         1 UNK         0.0600 
    177 H177       -1.3766  -11.6724  -42.0197 H         1 UNK         0.0600 
    178 H178       -0.6632  -11.3311  -43.5915 H         1 UNK         0.0600 
    179 H179       -1.6337  -12.6429  -45.4617 H         1 UNK         0.3000 
    180 H180       -2.1562  -15.6264  -47.3586 H         1 UNK         0.0600 
    181 H181       -3.7696  -13.0313  -47.1937 H         1 UNK         0.0600 
    182 H182       -4.4238  -14.6501  -46.9676 H         1 UNK         0.0600 
    183 H183       -3.7679  -14.1869  -48.5277 H         1 UNK         0.0600 
    184 H184       -1.5225  -13.1758  -48.4160 H         1 UNK         0.3000 
    185 H185        0.4977  -12.9941  -49.4266 H         1 UNK         0.0600 
    186 H186        2.2748  -12.3758  -46.9824 H         1 UNK         0.0600 
    187 H187        2.3831  -11.5764  -48.5491 H         1 UNK         0.0600 
    188 H188        0.9501  -11.3668  -47.5543 H         1 UNK         0.0600 
    189 H189        2.1519  -15.0673  -48.2813 H         1 UNK         0.3000 
    190 H190       -0.5612  -21.1887  -45.4454 H         1 UNK         0.3000 
    191 H191       -1.6774  -20.8600  -47.9489 H         1 UNK         0.0600 
    192 H192       -2.3256  -19.4605  -46.0431 H         1 UNK         0.0600 
    193 H193       -3.0300  -20.8371  -45.1993 H         1 UNK         0.0600 
    194 H194       -3.7750  -20.2204  -46.6677 H         1 UNK         0.0600 
    195 H195       -2.4243  -23.4596  -45.6336 H         1 UNK         0.3000 
    196 H196       -4.5561  -24.6353  -47.1653 H         1 UNK         0.0600 
    197 H197       -4.3250  -26.4773  -45.4914 H         1 UNK         0.0600 
    198 H198       -4.3618  -24.9075  -44.7052 H         1 UNK         0.0600 
    199 H199       -2.8311  -25.7645  -44.8940 H         1 UNK         0.0600 
    200 H200       -1.0640  -24.9259  -47.3203 H         1 UNK         0.3000 
    201 H201       -1.1116  -27.4927  -48.7841 H         1 UNK         0.0600 
    202 H202        0.6474  -27.1248  -47.0731 H         1 UNK         0.0600 
    203 H203        1.2104  -25.6868  -47.9214 H         1 UNK         0.0600 
    204 H204        1.3580  -27.2697  -48.6736 H         1 UNK         0.0600 
    205 H205       -0.2349  -24.0465  -49.2859 H         1 UNK         0.3000 
    206 H206        0.5368  -24.3567  -52.0247 H         1 UNK         0.0600 
    207 H207       -0.0826  -21.9047  -50.3084 H         1 UNK         0.0600 
    208 H208        1.4966  -22.5802  -50.6719 H         1 UNK         0.0600 
    209 H209        0.5573  -21.8167  -51.9456 H         1 UNK         0.0600 
    210 H210       -2.3558  -22.8121  -50.5438 H         1 UNK         0.3000 
    211 H211       -4.2902  -22.0643  -51.3314 H         1 UNK         0.0600 
    212 H212       -4.2790  -24.7452  -52.8135 H         1 UNK         0.0600 
    213 H213       -5.7055  -23.7985  -52.4026 H         1 UNK         0.0600 
    214 H214       -4.7271  -24.5042  -51.1254 H         1 UNK         0.0600 
    215 H215       -2.4149  -20.7190  -52.6290 H         1 UNK         0.3000 
    216 H216       -2.1788  -20.8486  -55.3948 H         1 UNK         0.0600 
    217 H217       -1.2283  -18.5518  -55.1589 H         1 UNK         0.0600 
    218 H218       -0.6180  -19.6320  -53.9140 H         1 UNK         0.0600 
    219 H219       -1.8608  -18.4460  -53.5211 H         1 UNK         0.0600 
    220 H220       -3.8303  -20.8491  -56.7510 H         1 UNK         0.3000 
    221 H221       -5.5983  -20.3605  -57.9635 H         1 UNK         0.0600 
    222 H222       -5.4440  -17.4873  -56.9141 H         1 UNK         0.0600 
    223 H223       -4.5173  -18.1173  -58.2757 H         1 UNK         0.0600 
    224 H224       -6.2683  -18.0339  -58.3663 H         1 UNK         0.0600 
    225 H225       -5.9223  -21.4403  -55.3272 H         1 UNK         0.3000 
    226 H226       -7.4192  -22.1345  -53.8855 H         1 UNK         0.0600 
    227 H227       -8.9577  -22.5094  -55.8266 H         1 UNK         0.0600 
    228 H228       -9.8360  -22.1108  -54.3648 H         1 UNK         0.0600 
    229 H229       -9.6279  -20.8960  -55.6245 H         1 UNK         0.0600 
    230 H230       -9.9635  -20.1889  -53.5478 H         1 UNK         0.3000 
    231 H231      -10.6341  -18.6135  -52.1123 H         1 UNK         0.0600 
    232 H232       -9.8026  -17.3091  -54.0828 H         1 UNK         0.0600 
    233 H233       -8.2410  -17.1054  -53.2926 H         1 UNK         0.0600 
    234 H234       -9.6866  -16.3783  -52.5992 H         1 UNK         0.0600 
    235 H235       -8.9688  -20.4923  -50.7826 H         1 UNK         0.3000 
    236 H236       -7.8385  -20.9676  -48.9383 H         1 UNK         0.0600 
    237 H237       -8.2880  -19.6619  -46.8971 H         1 UNK         0.0600 
    238 H238       -8.8349  -18.2847  -47.8432 H         1 UNK         0.0600 
    239 H239       -9.7608  -19.7852  -47.8433 H         1 UNK         0.0600 
    240 H240       -6.4060  -19.5171  -51.0895 H         1 UNK         0.3000 
    241 H241       -4.3971  -18.8730  -51.5834 H         1 UNK         0.0600 
    242 H242       -5.6898  -15.4085  -50.3911 H         1 UNK         0.3800 
    243 H243       -6.6088  -16.8922  -50.4121 H         1 UNK         0.3800 
    244 H244       -3.2090  -18.7211  -48.8051 H         1 UNK         0.0800 
    245 H245       -3.7608  -20.2725  -49.3321 H         1 UNK         0.0800 
    246 H246       -0.8894  -18.4518  -48.8459 H         1 UNK         0.0800 
    247 H247       -1.0325  -17.4433  -50.2575 H         1 UNK         0.0800 
@<TRIPOS>BOND
     1    1    2 1    
     2    1  127 1    
     3    1  128 1    
     4    1  129 1    
     5    2    3 2    
     6    2    4 am   BACKBONE|DICT|INTERRES
     7    4    5 1    
     8    4  130 1    
     9    5    6 1    
    10    5   65 1    
    11    5  131 1    
    12    6    7 1    
    13    6  132 1    
    14    6  133 1    
    15    7    8 1    
    16    8    9 1    
    17    8  134 1    
    18    8  135 1    
    19    9   10 ar   
    20    9   14 ar   
    21   10   11 ar   
    22   10  136 1    
    23   11   12 ar   
    24   11  126 1    
    25   12   13 ar   
    26   12  137 1    
    27   13   14 ar   
    28   13   15 1    
    29   14  138 1    
    30   15   16 1    
    31   15  139 1    
    32   15  140 1    
    33   16   17 1    
    34   17   18 1    
    35   17  141 1    
    36   17  142 1    
    37   18   19 1    
    38   18   67 1    
    39   18  143 1    
    40   19   20 am   BACKBONE|DICT|INTERRES
    41   19  144 1    
    42   20   21 2    
    43   20   22 1    
    44   22   23 1    
    45   22   24 1    
    46   22  145 1    
    47   23  146 1    
    48   23  147 1    
    49   23  148 1    
    50   24   25 am   BACKBONE|DICT|INTERRES
    51   24  149 1    
    52   25   26 2    
    53   25   27 1    
    54   27   28 1    
    55   27   29 1    
    56   27  150 1    
    57   28  151 1    
    58   28  152 1    
    59   28  153 1    
    60   29   30 am   BACKBONE|DICT|INTERRES
    61   29  154 1    
    62   30   31 2    
    63   30   32 1    
    64   32   33 1    
    65   32   34 1    
    66   32  155 1    
    67   33  156 1    
    68   33  157 1    
    69   33  158 1    
    70   34   35 am   BACKBONE|DICT|INTERRES
    71   34  159 1    
    72   35   36 2    
    73   35   37 1    
    74   37   38 1    
    75   37   39 1    
    76   37  160 1    
    77   38  161 1    
    78   38  162 1    
    79   38  163 1    
    80   39   40 am   BACKBONE|DICT|INTERRES
    81   39  164 1    
    82   40   41 2    
    83   40   42 1    
    84   42   43 1    
    85   42   44 1    
    86   42  165 1    
    87   43  166 1    
    88   43  167 1    
    89   43  168 1    
    90   44   45 am   BACKBONE|DICT|INTERRES
    91   44  169 1    
    92   45   46 2    
    93   45   47 1    
    94   47   48 1    
    95   47   49 1    
    96   47  170 1    
    97   48  171 1    
    98   48  172 1    
    99   48  173 1    
   100   49   50 am   BACKBONE|DICT|INTERRES
   101   49  174 1    
   102   50   51 2    
   103   50   52 1    
   104   52   53 1    
   105   52   54 1    
   106   52  175 1    
   107   53  176 1    
   108   53  177 1    
   109   53  178 1    
   110   54   55 am   BACKBONE|DICT|INTERRES
   111   54  179 1    
   112   55   56 2    
   113   55   57 1    
   114   57   58 1    
   115   57   59 1    
   116   57  180 1    
   117   58  181 1    
   118   58  182 1    
   119   58  183 1    
   120   59   60 am   BACKBONE|DICT|INTERRES
   121   59  184 1    
   122   60   61 2    
   123   60   62 1    
   124   62   63 1    
   125   62   64 1    
   126   62  185 1    
   127   63  186 1    
   128   63  187 1    
   129   63  188 1    
   130   64   65 am   BACKBONE|DICT|INTERRES
   131   64  189 1    
   132   65   66 2    
   133   67   68 2    
   134   67   69 am   BACKBONE|DICT|INTERRES
   135   69   70 1    
   136   69  190 1    
   137   70   71 1    
   138   70   72 1    
   139   70  191 1    
   140   71  192 1    
   141   71  193 1    
   142   71  194 1    
   143   72   73 2    
   144   72   74 am   BACKBONE|DICT|INTERRES
   145   74   75 1    
   146   74  195 1    
   147   75   76 1    
   148   75   77 1    
   149   75  196 1    
   150   76  197 1    
   151   76  198 1    
   152   76  199 1    
   153   77   78 2    
   154   77   79 am   BACKBONE|DICT|INTERRES
   155   79   80 1    
   156   79  200 1    
   157   80   81 1    
   158   80   82 1    
   159   80  201 1    
   160   81  202 1    
   161   81  203 1    
   162   81  204 1    
   163   82   83 2    
   164   82   84 am   BACKBONE|DICT|INTERRES
   165   84   85 1    
   166   84  205 1    
   167   85   86 1    
   168   85   87 1    
   169   85  206 1    
   170   86  207 1    
   171   86  208 1    
   172   86  209 1    
   173   87   88 2    
   174   87   89 am   BACKBONE|DICT|INTERRES
   175   89   90 1    
   176   89  210 1    
   177   90   91 1    
   178   90   92 1    
   179   90  211 1    
   180   91  212 1    
   181   91  213 1    
   182   91  214 1    
   183   92   93 2    
   184   92   94 am   BACKBONE|DICT|INTERRES
   185   94   95 1    
   186   94  215 1    
   187   95   96 1    
   188   95   97 1    
   189   95  216 1    
   190   96  217 1    
   191   96  218 1    
   192   96  219 1    
   193   97   98 2    
   194   97   99 am   BACKBONE|DICT|INTERRES
   195   99  100 1    
   196   99  220 1    
   197  100  101 1    
   198  100  102 1    
   199  100  221 1    
   200  101  222 1    
   201  101  223 1    
   202  101  224 1    
   203  102  103 2    
   204  102  104 am   BACKBONE|DICT|INTERRES
   205  104  105 1    
   206  104  225 1    
   207  105  106 1    
   208  105  107 1    
   209  105  226 1    
   210  106  227 1    
   211  106  228 1    
   212  106  229 1    
   213  107  108 2    
   214  107  109 am   BACKBONE|DICT|INTERRES
   215  109  110 1    
   216  109  230 1    
   217  110  111 1    
   218  110  112 1    
   219  110  231 1    
   220  111  232 1    
   221  111  233 1    
   222  111  234 1    
   223  112  113 2    
   224  112  114 am   BACKBONE|DICT|INTERRES
   225  114  115 1    
   226  114  235 1    
   227  115  116 1    
   228  115  117 1    
   229  115  236 1    
   230  116  237 1    
   231  116  238 1    
   232  116  239 1    
   233  117  118 2    
   234  117  119 am   BACKBONE|DICT|INTERRES
   235  119  120 1    
   236  119  240 1    
   237  120  121 1    
   238  120  124 1    
   239  120  241 1    
   240  121  122 am   BACKBONE|DICT|INTERRES
   241  121  123 2    
   242  122  242 1    
   243  122  243 1    
   244  124  125 1    
   245  124  244 1    
   246  124  245 1    
   247  125  126 1    
   248  126  246 1    
   249  126  247 1    
@<TRIPOS>SUBSTRUCTURE
     1 UNK         1 GROUP             0       ****    0 ROOT    
