@<TRIPOS>MOLECULE
3R540
247   249    1
SMALL
USER_CHARGES


@<TRIPOS>ATOM
      1 CA          5.8953  -17.9267  -46.1773 C.3       0 UNK        -0.1800 
      2 C           5.2959  -16.7540  -46.9392 C.2       0 UNK         0.5000 
      3 O           4.1263  -16.4269  -46.7462 O.2       0 UNK        -0.5000 
      4 N           6.0949  -16.0926  -47.7854 N.am      1 UNK        -0.5000 
      5 CA          5.6919  -14.9677  -48.6413 C.3       1 UNK         0.1400 
      6 C6          6.5928  -14.8790  -49.9014 C.3       23 UNK        -0.0398 
      7 S7          5.6983  -14.2195  -51.3496 S.3       23 UNK        -0.2404 
      8 C8          5.4301  -15.7267  -52.3335 C.3       23 UNK        -0.0205 
      9 C9          4.2989  -16.5877  -51.7875 C.ar      23 UNK        -0.0193 
     10 C10         2.9865  -16.3626  -52.2137 C.ar      23 UNK        -0.1150 
     11 C11         1.9519  -17.2021  -51.7940 C.ar      23 UNK        -0.0193 
     12 C12         2.2382  -18.2648  -50.9361 C.ar      23 UNK        -0.1150 
     13 C13         3.5377  -18.4867  -50.4695 C.ar      23 UNK        -0.0193 
     14 C14         4.5653  -17.6421  -50.9061 C.ar      23 UNK        -0.1150 
     15 C15         3.8522  -19.6655  -49.5496 C.3       23 UNK        -0.0205 
     16 S16         2.8382  -19.7014  -48.0305 S.3       23 UNK        -0.2404 
     17 C17         1.3256  -20.5607  -48.5862 C.3       23 UNK        -0.0398 
     18 CA          0.9797  -21.7957  -47.7241 C.3       11 UNK         0.1400 
     19 N           0.5869  -21.4435  -46.3556 N.am      11 UNK        -0.5000 
     20 C           0.3605  -22.3337  -45.3785 C.2       10 UNK         0.5000 
     21 O           0.5408  -23.5464  -45.5026 O.2       10 UNK        -0.5000 
     22 CA         -0.2210  -21.7861  -44.0618 C.3       10 UNK         0.1400 
     23 CB          0.8771  -21.1698  -43.1822 C.3       10 UNK        -0.1800 
     24 N          -1.2929  -20.8121  -44.2847 N.am      10 UNK        -0.5000 
     25 C          -2.4722  -21.1105  -44.8485 C.2       9 UNK         0.5000 
     26 O          -2.7894  -22.2473  -45.1934 O.2       9 UNK        -0.5000 
     27 CA         -3.4553  -19.9533  -45.1022 C.3       9 UNK         0.1400 
     28 CB         -4.2673  -19.6424  -43.8367 C.3       9 UNK        -0.1800 
     29 N          -2.8035  -18.7387  -45.5908 N.am      9 UNK        -0.5000 
     30 C          -2.1529  -18.6417  -46.7603 C.2       8 UNK         0.5000 
     31 O          -2.0788  -19.5555  -47.5792 O.2       8 UNK        -0.5000 
     32 CA         -1.4011  -17.3274  -47.0341 C.3       8 UNK         0.1400 
     33 CB         -2.3611  -16.2399  -47.5389 C.3       8 UNK        -0.1800 
     34 N          -0.6827  -16.8425  -45.8560 N.am      8 UNK        -0.5000 
     35 C           0.2815  -17.5186  -45.2146 C.2       7 UNK         0.5000 
     36 O           0.7095  -18.6127  -45.5791 O.2       7 UNK        -0.5000 
     37 CA          0.7892  -16.9070  -43.8980 C.3       7 UNK         0.1400 
     38 CB          1.7797  -15.7621  -44.1486 C.3       7 UNK        -0.1800 
     39 N          -0.3169  -16.4243  -43.0728 N.am      7 UNK        -0.5000 
     40 C          -1.1792  -17.2213  -42.4277 C.2       6 UNK         0.5000 
     41 O          -1.1093  -18.4498  -42.4352 O.2       6 UNK        -0.5000 
     42 CA         -2.3277  -16.5288  -41.6709 C.3       6 UNK         0.1400 
     43 CB         -1.8837  -16.1440  -40.2519 C.3       6 UNK        -0.1800 
     44 N          -2.8229  -15.3371  -42.3623 N.am      6 UNK        -0.5000 
     45 C          -3.4898  -15.3617  -43.5247 C.2       5 UNK         0.5000 
     46 O          -3.7800  -16.3959  -44.1244 O.2       5 UNK        -0.5000 
     47 CA         -3.8428  -13.9970  -44.1461 C.3       5 UNK         0.1400 
     48 CB         -5.1416  -13.4451  -43.5400 C.3       5 UNK        -0.1800 
     49 N          -2.7750  -13.0001  -44.0079 N.am      5 UNK        -0.5000 
     50 C          -1.5455  -13.1379  -44.5202 C.2       4 UNK         0.5000 
     51 O          -1.1685  -14.1463  -45.1209 O.2       4 UNK        -0.5000 
     52 CA         -0.5543  -11.9877  -44.2760 C.3       4 UNK         0.1400 
     53 CB          0.1519  -12.1718  -42.9236 C.3       4 UNK        -0.1800 
     54 N           0.4567  -11.9559  -45.3303 N.am      4 UNK        -0.5000 
     55 C           0.2570  -11.4954  -46.5718 C.2       3 UNK         0.5000 
     56 O          -0.7740  -10.9161  -46.9182 O.2       3 UNK        -0.5000 
     57 CA          1.3702  -11.7542  -47.6123 C.3       3 UNK         0.1400 
     58 CB          1.6447  -10.5207  -48.4976 C.3       3 UNK        -0.1800 
     59 N           2.6184  -12.2967  -47.0554 N.am      3 UNK        -0.5000 
     60 C           3.5017  -11.6864  -46.2487 C.2       2 UNK         0.5000 
     61 O           3.3739  -10.5356  -45.8313 O.2       2 UNK        -0.5000 
     62 CA          4.7269  -12.5130  -45.8114 C.3       2 UNK         0.1400 
     63 CB          4.5545  -13.0033  -44.3656 C.3       2 UNK        -0.1800 
     64 N           4.9669  -13.6702  -46.6765 N.am      2 UNK        -0.5000 
     65 C           5.5872  -13.6297  -47.8624 C.2       1 UNK         0.5000 
     66 O           6.0687  -12.5948  -48.3268 O.2       1 UNK        -0.5000 
     67 C          -0.1071  -22.6395  -48.4202 C.2       11 UNK         0.5000 
     68 O           0.2140  -23.6639  -49.0222 O.2       11 UNK        -0.5000 
     69 N          -1.3727  -22.2179  -48.2974 N.am      12 UNK        -0.5000 
     70 CA         -2.5345  -22.9054  -48.8537 C.3       12 UNK         0.1400 
     71 CB         -3.7860  -22.0549  -48.6364 C.3       12 UNK        -0.1800 
     72 C          -2.7409  -24.3145  -48.2791 C.2       12 UNK         0.5000 
     73 O          -3.0453  -25.2300  -49.0404 O.2       12 UNK        -0.5000 
     74 N          -2.5343  -24.4784  -46.9658 N.am      13 UNK        -0.5000 
     75 CA         -2.5937  -25.7650  -46.2719 C.3       13 UNK         0.1400 
     76 CB         -2.4780  -25.5401  -44.7569 C.3       13 UNK        -0.1800 
     77 C          -1.5227  -26.7571  -46.7613 C.2       13 UNK         0.5000 
     78 O          -1.8196  -27.9433  -46.9050 O.2       13 UNK        -0.5000 
     79 N          -0.3132  -26.2519  -47.0420 N.am      14 UNK        -0.5000 
     80 CA          0.7853  -27.0237  -47.6242 C.3       14 UNK         0.1400 
     81 CB          2.0998  -26.2450  -47.4617 C.3       14 UNK        -0.1800 
     82 C           0.5337  -27.3825  -49.1021 C.2       14 UNK         0.5000 
     83 O           0.8327  -28.5035  -49.5152 O.2       14 UNK        -0.5000 
     84 N          -0.0216  -26.4320  -49.8659 N.am      15 UNK        -0.5000 
     85 CA         -0.3533  -26.5803  -51.2853 C.3       15 UNK         0.1400 
     86 CB         -0.5407  -25.1811  -51.8935 C.3       15 UNK        -0.1800 
     87 C          -1.6046  -27.4414  -51.5543 C.2       15 UNK         0.5000 
     88 O          -1.7773  -27.9024  -52.6832 O.2       15 UNK        -0.5000 
     89 N          -2.4578  -27.6120  -50.5337 N.am      16 UNK        -0.5000 
     90 CA         -3.8057  -28.1908  -50.5778 C.3       16 UNK         0.1400 
     91 CB         -3.7737  -29.6773  -50.9909 C.3       16 UNK        -0.1800 
     92 C          -4.7627  -27.3280  -51.4299 C.2       16 UNK         0.5000 
     93 O          -5.4905  -27.8452  -52.2800 O.2       16 UNK        -0.5000 
     94 N          -4.7157  -26.0146  -51.1856 N.am      17 UNK        -0.5000 
     95 CA         -5.4859  -24.9710  -51.8563 C.3       17 UNK         0.1400 
     96 CB         -4.4887  -24.0321  -52.5583 C.3       17 UNK        -0.1800 
     97 C          -6.3447  -24.2012  -50.8348 C.2       17 UNK         0.5000 
     98 O          -6.2980  -24.4918  -49.6367 O.2       17 UNK        -0.5000 
     99 N          -7.1152  -23.2218  -51.3247 N.am      18 UNK        -0.5000 
    100 CA        -7.8842  -22.2884  -50.5013 C.3       18 UNK         0.1400 
    101 CB        -9.0464  -21.7235  -51.3323 C.3       18 UNK        -0.1800 
    102 C         -6.9878  -21.1444  -49.9972 C.2       18 UNK         0.5000 
    103 O         -6.1434  -20.6535  -50.7527 O.2       18 UNK        -0.5000 
    104 N         -7.2097  -20.7141  -48.7474 N.am      19 UNK        -0.5000 
    105 CA        -6.4726  -19.6291  -48.0892 C.3       19 UNK         0.1400 
    106 CB        -6.8907  -19.5463  -46.6139 C.3       19 UNK        -0.1800 
    107 C         -6.6565  -18.2685  -48.7806 C.2       19 UNK         0.5000 
    108 O         -5.6867  -17.5275  -48.9365 O.2       19 UNK        -0.5000 
    109 N         -7.8873  -17.9959  -49.2358 N.am      20 UNK        -0.5000 
    110 CA        -8.2563  -16.7917  -49.9851 C.3       20 UNK         0.1400 
    111 CB        -9.7867  -16.7291  -50.1035 C.3       20 UNK        -0.1800 
    112 C         -7.6046  -16.7150  -51.3803 C.2       20 UNK         0.5000 
    113 O         -7.4318  -15.6164  -51.9088 O.2       20 UNK        -0.5000 
    114 N         -7.2436  -17.8770  -51.9402 N.am      21 UNK        -0.5000 
    115 CA        -6.5264  -18.0093  -53.2066 C.3       21 UNK         0.1400 
    116 CB        -6.9955  -19.2978  -53.9032 C.3       21 UNK        -0.1800 
    117 C         -4.9962  -18.0231  -53.0196 C.2       21 UNK         0.5000 
    118 O         -4.2819  -18.0333  -54.0229 O.2       21 UNK        -0.5000 
    119 N         -4.5153  -18.0397  -51.7649 N.am      22 UNK        -0.5000 
    120 CA        -3.0995  -18.2107  -51.3932 C.3       22 UNK         0.1400 
    121 C         -2.5485  -19.6365  -51.7243 C.2       22 UNK         0.5000 
    122 N         -3.3928  -20.6601  -51.7951 N.am      22 UNK        -0.7600 
    123 O         -1.3530  -19.8356  -51.9155 O.2       22 UNK        -0.5000 
    124 C124       -2.2257  -17.0326  -51.9192 C.3       23 UNK        -0.0398 
    125 S125       -0.6809  -16.7530  -50.9862 S.3       23 UNK        -0.2404 
    126 C126        0.5364  -17.0173  -52.3187 C.3       23 UNK        -0.0205 
    127 H127        5.8415  -17.7429  -45.1043 H         1 UNK         0.0600 
    128 H128        6.9393  -18.0927  -46.4440 H         1 UNK         0.0600 
    129 H129        5.3393  -18.8383  -46.3956 H         1 UNK         0.0600 
    130 H130        7.0628  -16.3717  -47.8608 H         1 UNK         0.3000 
    131 H131        4.6782  -15.1901  -48.9831 H         1 UNK         0.0600 
    132 H132        7.4821  -14.2726  -49.7208 H         1 UNK         0.0800 
    133 H133        6.9769  -15.8654  -50.1624 H         1 UNK         0.0800 
    134 H134        6.3545  -16.3028  -52.3968 H         1 UNK         0.0800 
    135 H135        5.1970  -15.4313  -53.3577 H         1 UNK         0.0800 
    136 H136        2.7783  -15.5527  -52.8990 H         1 UNK         0.1150 
    137 H137        1.4302  -18.9160  -50.6456 H         1 UNK         0.1150 
    138 H138        5.5798  -17.8208  -50.5796 H         1 UNK         0.1150 
    139 H139        3.7388  -20.5993  -50.1014 H         1 UNK         0.0800 
    140 H140        4.8980  -19.6254  -49.2414 H         1 UNK         0.0800 
    141 H141        1.4608  -20.8701  -49.6238 H         1 UNK         0.0800 
    142 H142        0.5013  -19.8453  -48.5843 H         1 UNK         0.0800 
    143 H143        1.8724  -22.4213  -47.6563 H         1 UNK         0.0600 
    144 H144        0.4695  -20.4533  -46.1552 H         1 UNK         0.3000 
    145 H145       -0.6500  -22.6295  -43.5166 H         1 UNK         0.0600 
    146 H146        0.4747  -20.8371  -42.2253 H         1 UNK         0.0600 
    147 H147        1.6600  -21.8990  -42.9705 H         1 UNK         0.0600 
    148 H148        1.3499  -20.3131  -43.6616 H         1 UNK         0.0600 
    149 H149       -1.1172  -19.8606  -43.9821 H         1 UNK         0.3000 
    150 H150       -4.1522  -20.2809  -45.8741 H         1 UNK         0.0600 
    151 H151       -4.7943  -20.5299  -43.4844 H         1 UNK         0.0600 
    152 H152       -5.0167  -18.8739  -44.0248 H         1 UNK         0.0600 
    153 H153       -3.6302  -19.2950  -43.0238 H         1 UNK         0.0600 
    154 H154       -2.8701  -17.9175  -44.9974 H         1 UNK         0.3000 
    155 H155       -0.6629  -17.5221  -47.8150 H         1 UNK         0.0600 
    156 H156       -3.1073  -15.9800  -46.7882 H         1 UNK         0.0600 
    157 H157       -1.8211  -15.3305  -47.8035 H         1 UNK         0.0600 
    158 H158       -2.8954  -16.5721  -48.4296 H         1 UNK         0.0600 
    159 H159       -0.9521  -15.9259  -45.5049 H         1 UNK         0.3000 
    160 H160        1.3132  -17.6884  -43.3431 H         1 UNK         0.0600 
    161 H161        1.3537  -14.9790  -44.7757 H         1 UNK         0.0600 
    162 H162        2.6719  -16.1347  -44.6491 H         1 UNK         0.0600 
    163 H163        2.1031  -15.3086  -43.2118 H         1 UNK         0.0600 
    164 H164       -0.4809  -15.4293  -43.0680 H         1 UNK         0.3000 
    165 H165       -3.1503  -17.2424  -41.5891 H         1 UNK         0.0600 
    166 H166       -2.7106  -15.7210  -39.6811 H         1 UNK         0.0600 
    167 H167       -1.5262  -17.0176  -39.7051 H         1 UNK         0.0600 
    168 H168       -1.0753  -15.4119  -40.2659 H         1 UNK         0.0600 
    169 H169       -2.6247  -14.4434  -41.9373 H         1 UNK         0.3000 
    170 H170       -4.0083  -14.1575  -45.2135 H         1 UNK         0.0600 
    171 H171       -5.9567  -14.1625  -43.6451 H         1 UNK         0.0600 
    172 H172       -5.0309  -13.2271  -42.4771 H         1 UNK         0.0600 
    173 H173       -5.4519  -12.5279  -44.0408 H         1 UNK         0.0600 
    174 H174       -3.0112  -12.1512  -43.5143 H         1 UNK         0.3000 
    175 H175       -1.0977  -11.0405  -44.2697 H         1 UNK         0.0600 
    176 H176        0.7053  -13.1105  -42.8792 H         1 UNK         0.0600 
    177 H177        0.8558  -11.3609  -42.7348 H         1 UNK         0.0600 
    178 H178       -0.5658  -12.1742  -42.1023 H         1 UNK         0.0600 
    179 H179        1.3180  -12.4445  -45.1443 H         1 UNK         0.3000 
    180 H180        0.9795  -12.5368  -48.2642 H         1 UNK         0.0600 
    181 H181        1.9603   -9.6591  -47.9091 H         1 UNK         0.0600 
    182 H182        0.7498  -10.2268  -49.0473 H         1 UNK         0.0600 
    183 H183        2.4214  -10.7284  -49.2337 H         1 UNK         0.0600 
    184 H184        2.8248  -13.2501  -47.3173 H         1 UNK         0.3000 
    185 H185        5.5985  -11.8559  -45.8457 H         1 UNK         0.0600 
    186 H186        4.4108  -12.1654  -43.6821 H         1 UNK         0.0600 
    187 H187        3.6917  -13.6604  -44.2640 H         1 UNK         0.0600 
    188 H188        5.4345  -13.5505  -44.0271 H         1 UNK         0.0600 
    189 H189        4.5919  -14.5658  -46.3777 H         1 UNK         0.3000 
    190 H190       -1.5576  -21.3321  -47.8324 H         1 UNK         0.3000 
    191 H191       -2.3727  -23.0017  -49.9282 H         1 UNK         0.0600 
    192 H192       -4.0069  -21.9190  -47.5790 H         1 UNK         0.0600 
    193 H193       -4.6525  -22.5278  -49.0907 H         1 UNK         0.0600 
    194 H194       -3.6765  -21.0715  -49.0904 H         1 UNK         0.0600 
    195 H195       -2.3592  -23.6578  -46.3915 H         1 UNK         0.3000 
    196 H196       -3.5714  -26.2064  -46.4763 H         1 UNK         0.0600 
    197 H197       -2.5294  -26.4856  -44.2157 H         1 UNK         0.0600 
    198 H198       -3.2889  -24.9109  -44.3897 H         1 UNK         0.0600 
    199 H199       -1.5360  -25.0593  -44.4918 H         1 UNK         0.0600 
    200 H200       -0.1460  -25.2664  -46.8776 H         1 UNK         0.3000 
    201 H201        0.8780  -27.9579  -47.0664 H         1 UNK         0.0600 
    202 H202        2.3069  -26.0375  -46.4117 H         1 UNK         0.0600 
    203 H203        2.0755  -25.2919  -47.9903 H         1 UNK         0.0600 
    204 H204        2.9421  -26.8161  -47.8538 H         1 UNK         0.0600 
    205 H205       -0.1687  -25.5112  -49.4616 H         1 UNK         0.3000 
    206 H206        0.4896  -27.0601  -51.7868 H         1 UNK         0.0600 
    207 H207        0.3545  -24.5717  -51.7681 H         1 UNK         0.0600 
    208 H208       -0.7463  -25.2411  -52.9630 H         1 UNK         0.0600 
    209 H209       -1.3735  -24.6525  -51.4292 H         1 UNK         0.0600 
    210 H210       -2.2400  -27.1128  -49.6798 H         1 UNK         0.3000 
    211 H211       -4.1848  -28.1452  -49.5558 H         1 UNK         0.0600 
    212 H212       -3.4718  -29.8085  -52.0301 H         1 UNK         0.0600 
    213 H213       -4.7593  -30.1308  -50.8804 H         1 UNK         0.0600 
    214 H214       -3.0835  -30.2442  -50.3662 H         1 UNK         0.0600 
    215 H215       -4.1375  -25.6958  -50.4093 H         1 UNK         0.3000 
    216 H216       -6.1575  -25.4039  -52.6001 H         1 UNK         0.0600 
    217 H217       -4.9976  -23.2435  -53.1136 H         1 UNK         0.0600 
    218 H218       -3.8708  -24.5795  -53.2705 H         1 UNK         0.0600 
    219 H219       -3.8221  -23.5553  -51.8402 H         1 UNK         0.0600 
    220 H220       -7.0765  -23.0147  -52.3117 H         1 UNK         0.3000 
    221 H221       -8.3011  -22.8219  -49.6443 H         1 UNK         0.0600 
    222 H222       -8.6930  -21.1860  -52.2125 H         1 UNK         0.0600 
    223 H223       -9.7095  -22.5195  -51.6718 H         1 UNK         0.0600 
    224 H224       -9.6486  -21.0298  -50.7442 H         1 UNK         0.0600 
    225 H225       -7.9227  -21.1683  -48.1950 H         1 UNK         0.3000 
    226 H226       -5.4091  -19.8643  -48.1248 H         1 UNK         0.0600 
    227 H227       -6.6680  -20.4746  -46.0874 H         1 UNK         0.0600 
    228 H228       -6.3547  -18.7454  -46.1028 H         1 UNK         0.0600 
    229 H229       -7.9574  -19.3469  -46.5060 H         1 UNK         0.0600 
    230 H230       -8.6219  -18.6674  -49.0674 H         1 UNK         0.3000 
    231 H231       -7.9190  -15.9225  -49.4165 H         1 UNK         0.0600 
    232 H232      -10.1013  -15.8291  -50.6337 H         1 UNK         0.0600 
    233 H233      -10.2584  -16.7066  -49.1209 H         1 UNK         0.0600 
    234 H234      -10.1837  -17.5866  -50.6484 H         1 UNK         0.0600 
    235 H235       -7.3862  -18.7313  -51.4204 H         1 UNK         0.3000 
    236 H236       -6.7704  -17.1666  -53.8568 H         1 UNK         0.0600 
    237 H237       -8.0779  -19.3071  -54.0320 H         1 UNK         0.0600 
    238 H238       -6.5513  -19.3887  -54.8951 H         1 UNK         0.0600 
    239 H239       -6.7143  -20.1874  -53.3394 H         1 UNK         0.0600 
    240 H240       -5.1672  -18.0165  -50.9915 H         1 UNK         0.3000 
    241 H241       -3.0899  -18.1609  -50.3040 H         1 UNK         0.0600 
    242 H242       -4.3777  -20.5444  -51.5750 H         1 UNK         0.3800 
    243 H243       -3.0303  -21.5652  -52.0365 H         1 UNK         0.3800 
    244 H244       -2.0086  -17.1629  -52.9801 H         1 UNK         0.0800 
    245 H245       -2.7914  -16.1024  -51.8508 H         1 UNK         0.0800 
    246 H246        0.2691  -17.9089  -52.8874 H         1 UNK         0.0800 
    247 H247        0.4852  -16.1787  -53.0147 H         1 UNK         0.0800 
@<TRIPOS>BOND
     1    1    2 1    
     2    1  127 1    
     3    1  128 1    
     4    1  129 1    
     5    2    3 2    
     6    2    4 am   BACKBONE|DICT|INTERRES
     7    4    5 1    
     8    4  130 1    
     9    5    6 1    
    10    5   65 1    
    11    5  131 1    
    12    6    7 1    
    13    6  132 1    
    14    6  133 1    
    15    7    8 1    
    16    8    9 1    
    17    8  134 1    
    18    8  135 1    
    19    9   10 ar   
    20    9   14 ar   
    21   10   11 ar   
    22   10  136 1    
    23   11   12 ar   
    24   11  126 1    
    25   12   13 ar   
    26   12  137 1    
    27   13   14 ar   
    28   13   15 1    
    29   14  138 1    
    30   15   16 1    
    31   15  139 1    
    32   15  140 1    
    33   16   17 1    
    34   17   18 1    
    35   17  141 1    
    36   17  142 1    
    37   18   19 1    
    38   18   67 1    
    39   18  143 1    
    40   19   20 am   BACKBONE|DICT|INTERRES
    41   19  144 1    
    42   20   21 2    
    43   20   22 1    
    44   22   23 1    
    45   22   24 1    
    46   22  145 1    
    47   23  146 1    
    48   23  147 1    
    49   23  148 1    
    50   24   25 am   BACKBONE|DICT|INTERRES
    51   24  149 1    
    52   25   26 2    
    53   25   27 1    
    54   27   28 1    
    55   27   29 1    
    56   27  150 1    
    57   28  151 1    
    58   28  152 1    
    59   28  153 1    
    60   29   30 am   BACKBONE|DICT|INTERRES
    61   29  154 1    
    62   30   31 2    
    63   30   32 1    
    64   32   33 1    
    65   32   34 1    
    66   32  155 1    
    67   33  156 1    
    68   33  157 1    
    69   33  158 1    
    70   34   35 am   BACKBONE|DICT|INTERRES
    71   34  159 1    
    72   35   36 2    
    73   35   37 1    
    74   37   38 1    
    75   37   39 1    
    76   37  160 1    
    77   38  161 1    
    78   38  162 1    
    79   38  163 1    
    80   39   40 am   BACKBONE|DICT|INTERRES
    81   39  164 1    
    82   40   41 2    
    83   40   42 1    
    84   42   43 1    
    85   42   44 1    
    86   42  165 1    
    87   43  166 1    
    88   43  167 1    
    89   43  168 1    
    90   44   45 am   BACKBONE|DICT|INTERRES
    91   44  169 1    
    92   45   46 2    
    93   45   47 1    
    94   47   48 1    
    95   47   49 1    
    96   47  170 1    
    97   48  171 1    
    98   48  172 1    
    99   48  173 1    
   100   49   50 am   BACKBONE|DICT|INTERRES
   101   49  174 1    
   102   50   51 2    
   103   50   52 1    
   104   52   53 1    
   105   52   54 1    
   106   52  175 1    
   107   53  176 1    
   108   53  177 1    
   109   53  178 1    
   110   54   55 am   BACKBONE|DICT|INTERRES
   111   54  179 1    
   112   55   56 2    
   113   55   57 1    
   114   57   58 1    
   115   57   59 1    
   116   57  180 1    
   117   58  181 1    
   118   58  182 1    
   119   58  183 1    
   120   59   60 am   BACKBONE|DICT|INTERRES
   121   59  184 1    
   122   60   61 2    
   123   60   62 1    
   124   62   63 1    
   125   62   64 1    
   126   62  185 1    
   127   63  186 1    
   128   63  187 1    
   129   63  188 1    
   130   64   65 am   BACKBONE|DICT|INTERRES
   131   64  189 1    
   132   65   66 2    
   133   67   68 2    
   134   67   69 am   BACKBONE|DICT|INTERRES
   135   69   70 1    
   136   69  190 1    
   137   70   71 1    
   138   70   72 1    
   139   70  191 1    
   140   71  192 1    
   141   71  193 1    
   142   71  194 1    
   143   72   73 2    
   144   72   74 am   BACKBONE|DICT|INTERRES
   145   74   75 1    
   146   74  195 1    
   147   75   76 1    
   148   75   77 1    
   149   75  196 1    
   150   76  197 1    
   151   76  198 1    
   152   76  199 1    
   153   77   78 2    
   154   77   79 am   BACKBONE|DICT|INTERRES
   155   79   80 1    
   156   79  200 1    
   157   80   81 1    
   158   80   82 1    
   159   80  201 1    
   160   81  202 1    
   161   81  203 1    
   162   81  204 1    
   163   82   83 2    
   164   82   84 am   BACKBONE|DICT|INTERRES
   165   84   85 1    
   166   84  205 1    
   167   85   86 1    
   168   85   87 1    
   169   85  206 1    
   170   86  207 1    
   171   86  208 1    
   172   86  209 1    
   173   87   88 2    
   174   87   89 am   BACKBONE|DICT|INTERRES
   175   89   90 1    
   176   89  210 1    
   177   90   91 1    
   178   90   92 1    
   179   90  211 1    
   180   91  212 1    
   181   91  213 1    
   182   91  214 1    
   183   92   93 2    
   184   92   94 am   BACKBONE|DICT|INTERRES
   185   94   95 1    
   186   94  215 1    
   187   95   96 1    
   188   95   97 1    
   189   95  216 1    
   190   96  217 1    
   191   96  218 1    
   192   96  219 1    
   193   97   98 2    
   194   97   99 am   BACKBONE|DICT|INTERRES
   195   99  100 1    
   196   99  220 1    
   197  100  101 1    
   198  100  102 1    
   199  100  221 1    
   200  101  222 1    
   201  101  223 1    
   202  101  224 1    
   203  102  103 2    
   204  102  104 am   BACKBONE|DICT|INTERRES
   205  104  105 1    
   206  104  225 1    
   207  105  106 1    
   208  105  107 1    
   209  105  226 1    
   210  106  227 1    
   211  106  228 1    
   212  106  229 1    
   213  107  108 2    
   214  107  109 am   BACKBONE|DICT|INTERRES
   215  109  110 1    
   216  109  230 1    
   217  110  111 1    
   218  110  112 1    
   219  110  231 1    
   220  111  232 1    
   221  111  233 1    
   222  111  234 1    
   223  112  113 2    
   224  112  114 am   BACKBONE|DICT|INTERRES
   225  114  115 1    
   226  114  235 1    
   227  115  116 1    
   228  115  117 1    
   229  115  236 1    
   230  116  237 1    
   231  116  238 1    
   232  116  239 1    
   233  117  118 2    
   234  117  119 am   BACKBONE|DICT|INTERRES
   235  119  120 1    
   236  119  240 1    
   237  120  121 1    
   238  120  124 1    
   239  120  241 1    
   240  121  122 am   BACKBONE|DICT|INTERRES
   241  121  123 2    
   242  122  242 1    
   243  122  243 1    
   244  124  125 1    
   245  124  244 1    
   246  124  245 1    
   247  125  126 1    
   248  126  246 1    
   249  126  247 1    
@<TRIPOS>SUBSTRUCTURE
     1 UNK         1 GROUP             0       ****    0 ROOT    
