@<TRIPOS>MOLECULE
3R540
247   249    1
SMALL
USER_CHARGES


@<TRIPOS>ATOM
      1 CA         -3.8825  -17.8489  -46.5435 C.3       0 UNK        -0.1800 
      2 C          -3.0936  -16.8391  -47.3656 C.2       0 UNK         0.5000 
      3 O          -3.2642  -16.7731  -48.5825 O.2       0 UNK        -0.5000 
      4 N          -2.2199  -16.0680  -46.7097 N.am      1 UNK        -0.5000 
      5 CA         -1.4015  -15.0316  -47.3357 C.3       1 UNK         0.1400 
      6 C6         -0.0603  -14.8450  -46.5858 C.3       23 UNK        -0.0398 
      7 S7          1.1656  -13.9278  -47.5777 S.3       23 UNK        -0.2404 
      8 C8          2.3014  -15.2563  -48.0826 C.3       23 UNK        -0.0205 
      9 C9          1.7297  -16.1176  -49.1984 C.ar      23 UNK        -0.0193 
     10 C10         2.0635  -15.8577  -50.5313 C.ar      23 UNK        -0.1150 
     11 C11         1.5626  -16.6620  -51.5600 C.ar      23 UNK        -0.0193 
     12 C12         0.7120  -17.7256  -51.2436 C.ar      23 UNK        -0.1150 
     13 C13         0.3536  -17.9825  -49.9197 C.ar      23 UNK        -0.0193 
     14 C14         0.8813  -17.1873  -48.9004 C.ar      23 UNK        -0.1150 
     15 C15        -0.6410  -19.0828  -49.5910 C.3       23 UNK        -0.0205 
     16 S16         0.0965  -20.3740  -48.5483 S.3       23 UNK        -0.2404 
     17 C17        -1.3689  -20.9053  -47.6048 C.3       23 UNK        -0.0398 
     18 CA         -1.2010  -22.3340  -47.0480 C.3       11 UNK         0.1400 
     19 N          -0.1110  -22.4349  -46.0740 N.am      11 UNK        -0.5000 
     20 C           0.3644  -23.5882  -45.5859 C.2       10 UNK         0.5000 
     21 O          -0.0369  -24.6957  -45.9404 O.2       10 UNK        -0.5000 
     22 CA          1.4164  -23.4858  -44.4699 C.3       10 UNK         0.1400 
     23 CB          2.8215  -23.2589  -45.0480 C.3       10 UNK        -0.1800 
     24 N           1.0860  -22.4215  -43.5224 N.am      10 UNK        -0.5000 
     25 C           0.0700  -22.4833  -42.6499 C.2       9 UNK         0.5000 
     26 O          -0.6535  -23.4706  -42.5159 O.2       9 UNK        -0.5000 
     27 CA         -0.2079  -21.2179  -41.8170 C.3       9 UNK         0.1400 
     28 CB          0.6762  -21.1911  -40.5618 C.3       9 UNK        -0.1800 
     29 N          -0.0076  -19.9832  -42.5777 N.am      9 UNK        -0.5000 
     30 C          -0.7817  -19.5935  -43.6024 C.2       8 UNK         0.5000 
     31 O          -1.7606  -20.2245  -43.9962 O.2       8 UNK        -0.5000 
     32 CA         -0.3753  -18.3047  -44.3436 C.3       8 UNK         0.1400 
     33 CB         -1.0030  -17.0937  -43.6357 C.3       8 UNK        -0.1800 
     34 N           1.0741  -18.1150  -44.4414 N.am      8 UNK        -0.5000 
     35 C           1.9426  -19.0185  -44.9264 C.2       7 UNK         0.5000 
     36 O           1.5900  -20.0671  -45.4650 O.2       7 UNK        -0.5000 
     37 CA          3.4504  -18.7663  -44.7075 C.3       7 UNK         0.1400 
     38 CB          4.1571  -18.4318  -46.0287 C.3       7 UNK        -0.1800 
     39 N           3.7512  -17.7277  -43.7181 N.am      7 UNK        -0.5000 
     40 C           3.4201  -17.7736  -42.4191 C.2       6 UNK         0.5000 
     41 O           2.8786  -18.7458  -41.8899 O.2       6 UNK        -0.5000 
     42 CA          3.6781  -16.5024  -41.5840 C.3       6 UNK         0.1400 
     43 CB          4.9824  -16.6462  -40.7855 C.3       6 UNK        -0.1800 
     44 N           3.7216  -15.2461  -42.3468 N.am      6 UNK        -0.5000 
     45 C           2.7453  -14.7640  -43.1293 C.2       5 UNK         0.5000 
     46 O           1.7152  -15.3862  -43.4008 O.2       5 UNK        -0.5000 
     47 CA          2.9917  -13.3733  -43.7464 C.3       5 UNK         0.1400 
     48 CB          3.9168  -13.4824  -44.9679 C.3       5 UNK        -0.1800 
     49 N           1.7397  -12.7342  -44.1538 N.am      5 UNK        -0.5000 
     50 C           0.8362  -12.2249  -43.3043 C.2       4 UNK         0.5000 
     51 O           1.0186  -12.1562  -42.0871 O.2       4 UNK        -0.5000 
     52 CA         -0.4965  -11.7291  -43.9107 C.3       4 UNK         0.1400 
     53 CB         -1.1903  -10.6590  -43.0420 C.3       4 UNK        -0.1800 
     54 N          -0.3972  -11.2812  -45.3054 N.am      4 UNK        -0.5000 
     55 C           0.3182  -10.2513  -45.7871 C.2       3 UNK         0.5000 
     56 O           1.0324   -9.5311  -45.0889 O.2       3 UNK        -0.5000 
     57 CA          0.2373   -9.9775  -47.3050 C.3       3 UNK         0.1400 
     58 CB          1.6212  -10.1183  -47.9608 C.3       3 UNK        -0.1800 
     59 N          -0.7049  -10.8613  -47.9968 N.am      3 UNK        -0.5000 
     60 C          -2.0230  -10.6433  -48.1122 C.2       2 UNK         0.5000 
     61 O          -2.5870   -9.6291  -47.7009 O.2       2 UNK        -0.5000 
     62 CA         -2.8556  -11.7644  -48.7672 C.3       2 UNK         0.1400 
     63 CB         -3.0084  -11.5140  -50.2751 C.3       2 UNK        -0.1800 
     64 N          -2.2804  -13.0953  -48.5586 N.am      2 UNK        -0.5000 
     65 C          -2.1909  -13.7125  -47.3756 C.2       1 UNK         0.5000 
     66 O          -2.6411  -13.2480  -46.3259 O.2       1 UNK        -0.5000 
     67 C          -2.5328  -22.8660  -46.4808 C.2       11 UNK         0.5000 
     68 O          -3.2479  -23.5686  -47.1917 O.2       11 UNK        -0.5000 
     69 N          -2.8277  -22.5749  -45.2061 N.am      12 UNK        -0.5000 
     70 CA         -3.9928  -23.1000  -44.4908 C.3       12 UNK         0.1400 
     71 CB         -4.1185  -22.4054  -43.1267 C.3       12 UNK        -0.1800 
     72 C          -3.9574  -24.6319  -44.3250 C.2       12 UNK         0.5000 
     73 O          -5.0029  -25.2735  -44.4314 O.2       12 UNK        -0.5000 
     74 N          -2.7598  -25.1904  -44.0975 N.am      13 UNK        -0.5000 
     75 CA         -2.5221  -26.6327  -44.0313 C.3       13 UNK         0.1400 
     76 CB         -1.1518  -26.9002  -43.3899 C.3       13 UNK        -0.1800 
     77 C          -2.6315  -27.3120  -45.4106 C.2       13 UNK         0.5000 
     78 O          -3.2173  -28.3910  -45.5081 O.2       13 UNK        -0.5000 
     79 N          -2.0791  -26.6678  -46.4491 N.am      14 UNK        -0.5000 
     80 CA         -2.1377  -27.1166  -47.8431 C.3       14 UNK         0.1400 
     81 CB         -1.1439  -26.2965  -48.6794 C.3       14 UNK        -0.1800 
     82 C          -3.5537  -27.0421  -48.4471 C.2       14 UNK         0.5000 
     83 O          -3.9050  -27.8879  -49.2714 O.2       14 UNK        -0.5000 
     84 N          -4.3387  -26.0439  -48.0172 N.am      15 UNK        -0.5000 
     85 CA         -5.7342  -25.7847  -48.3708 C.3       15 UNK         0.1400 
     86 CB         -6.6529  -26.8554  -47.7415 C.3       15 UNK        -0.1800 
     87 C          -5.9090  -25.6146  -49.8922 C.2       15 UNK         0.5000 
     88 O          -5.4394  -24.6197  -50.4435 O.2       15 UNK        -0.5000 
     89 N          -6.5425  -26.5917  -50.5539 N.am      16 UNK        -0.5000 
     90 CA         -6.7661  -26.6240  -52.0013 C.3       16 UNK         0.1400 
     91 CB         -7.6767  -27.8159  -52.3345 C.3       16 UNK        -0.1800 
     92 C          -5.4734  -26.6809  -52.8424 C.2       16 UNK         0.5000 
     93 O          -5.5039  -26.2963  -54.0119 O.2       16 UNK        -0.5000 
     94 N          -4.3674  -27.1489  -52.2459 N.am      17 UNK        -0.5000 
     95 CA         -3.0512  -27.2082  -52.8828 C.3       17 UNK         0.1400 
     96 CB         -2.2473  -28.3612  -52.2599 C.3       17 UNK        -0.1800 
     97 C          -2.2685  -25.8805  -52.7992 C.2       17 UNK         0.5000 
     98 O          -1.2277  -25.7665  -53.4488 O.2       17 UNK        -0.5000 
     99 N          -2.7462  -24.9087  -52.0072 N.am      18 UNK        -0.5000 
    100 CA        -2.1244  -23.5914  -51.8652 C.3       18 UNK         0.1400 
    101 CB        -2.6449  -22.9217  -50.5863 C.3       18 UNK        -0.1800 
    102 C         -2.4058  -22.6846  -53.0763 C.2       18 UNK         0.5000 
    103 O         -3.4151  -22.8569  -53.7654 O.2       18 UNK        -0.5000 
    104 N         -1.5294  -21.6940  -53.2805 N.am      19 UNK        -0.5000 
    105 CA        -1.6902  -20.6328  -54.2715 C.3       19 UNK         0.1400 
    106 CB        -0.3099  -20.0556  -54.6269 C.3       19 UNK        -0.1800 
    107 C         -2.6667  -19.5617  -53.7498 C.2       19 UNK         0.5000 
    108 O         -2.2469  -18.5347  -53.2125 O.2       19 UNK        -0.5000 
    109 N         -3.9688  -19.8288  -53.9105 N.am      20 UNK        -0.5000 
    110 CA        -5.0835  -18.9801  -53.4709 C.3       20 UNK         0.1400 
    111 CB        -6.4002  -19.7310  -53.7217 C.3       20 UNK        -0.1800 
    112 C         -5.1254  -17.5779  -54.1180 C.2       20 UNK         0.5000 
    113 O         -5.8092  -16.6938  -53.6016 O.2       20 UNK        -0.5000 
    114 N         -4.3830  -17.3919  -55.2183 N.am      21 UNK        -0.5000 
    115 CA        -4.1582  -16.1097  -55.8860 C.3       21 UNK         0.1400 
    116 CB        -3.4827  -16.3730  -57.2409 C.3       21 UNK        -0.1800 
    117 C         -3.3208  -15.1143  -55.0542 C.2       21 UNK         0.5000 
    118 O         -3.4111  -13.9109  -55.3026 O.2       21 UNK        -0.5000 
    119 N         -2.5314  -15.6169  -54.0962 N.am      22 UNK        -0.5000 
    120 CA        -1.6894  -14.8201  -53.1889 C.3       22 UNK         0.1400 
    121 C         -1.8097  -15.2151  -51.6917 C.2       22 UNK         0.5000 
    122 N         -2.4114  -16.3430  -51.3353 N.am      22 UNK        -0.7600 
    123 O         -1.3985  -14.4435  -50.8307 O.2       22 UNK        -0.5000 
    124 C124       -0.2199  -14.7042  -53.6776 C.3       23 UNK        -0.0398 
    125 S125        0.5508  -16.2941  -54.1487 S.3       23 UNK        -0.2404 
    126 C126        1.9670  -16.3994  -53.0054 C.3       23 UNK        -0.0205 
    127 H127       -3.7784  -18.8454  -46.9727 H         1 UNK         0.0600 
    128 H128       -3.5408  -17.8902  -45.5092 H         1 UNK         0.0600 
    129 H129       -4.9404  -17.5866  -46.5441 H         1 UNK         0.0600 
    130 H130       -2.1841  -16.1057  -45.7023 H         1 UNK         0.3000 
    131 H131       -1.1751  -15.3408  -48.3577 H         1 UNK         0.0600 
    132 H132        0.3609  -15.8120  -46.3133 H         1 UNK         0.0800 
    133 H133       -0.2049  -14.3271  -45.6372 H         1 UNK         0.0800 
    134 H134        3.2423  -14.8074  -48.4041 H         1 UNK         0.0800 
    135 H135        2.5405  -15.8730  -47.2183 H         1 UNK         0.0800 
    136 H136        2.7225  -15.0335  -50.7651 H         1 UNK         0.1150 
    137 H137        0.3017  -18.3344  -52.0338 H         1 UNK         0.1150 
    138 H138        0.6159  -17.4029  -47.8762 H         1 UNK         0.1150 
    139 H139       -1.4871  -18.6323  -49.0754 H         1 UNK         0.0800 
    140 H140       -1.0414  -19.5364  -50.4992 H         1 UNK         0.0800 
    141 H141       -1.5443  -20.1929  -46.7981 H         1 UNK         0.0800 
    142 H142       -2.2410  -20.8515  -48.2591 H         1 UNK         0.0800 
    143 H143       -0.9378  -22.9828  -47.8855 H         1 UNK         0.0600 
    144 H144        0.3218  -21.5646  -45.7790 H         1 UNK         0.3000 
    145 H145        1.4244  -24.4350  -43.9296 H         1 UNK         0.0600 
    146 H146        3.5698  -23.2062  -44.2571 H         1 UNK         0.0600 
    147 H147        3.1041  -24.0795  -45.7086 H         1 UNK         0.0600 
    148 H148        2.8820  -22.3391  -45.6294 H         1 UNK         0.0600 
    149 H149        1.5901  -21.5522  -43.6213 H         1 UNK         0.3000 
    150 H150       -1.2515  -21.2532  -41.4974 H         1 UNK         0.0600 
    151 H151        0.5265  -22.0880  -39.9594 H         1 UNK         0.0600 
    152 H152        0.4407  -20.3331  -39.9320 H         1 UNK         0.0600 
    153 H153        1.7356  -21.1384  -40.8162 H         1 UNK         0.0600 
    154 H154        0.8012  -19.4241  -42.3329 H         1 UNK         0.3000 
    155 H155       -0.7683  -18.3620  -45.3600 H         1 UNK         0.0600 
    156 H156       -2.0870  -17.1936  -43.5682 H         1 UNK         0.0600 
    157 H157       -0.7916  -16.1642  -44.1595 H         1 UNK         0.0600 
    158 H158       -0.6224  -16.9864  -42.6189 H         1 UNK         0.0600 
    159 H159        1.4398  -17.2655  -44.0213 H         1 UNK         0.3000 
    160 H160        3.8678  -19.7040  -44.3351 H         1 UNK         0.0600 
    161 H161        3.8739  -17.4495  -46.4002 H         1 UNK         0.0600 
    162 H162        3.9128  -19.1606  -46.8032 H         1 UNK         0.0600 
    163 H163        5.2402  -18.4412  -45.9064 H         1 UNK         0.0600 
    164 H164        4.1830  -16.8842  -44.0648 H         1 UNK         0.3000 
    165 H165        2.8527  -16.4185  -40.8744 H         1 UNK         0.0600 
    166 H166        5.8521  -16.6941  -41.4421 H         1 UNK         0.0600 
    167 H167        5.1221  -15.8088  -40.1017 H         1 UNK         0.0600 
    168 H168        4.9752  -17.5560  -40.1834 H         1 UNK         0.0600 
    169 H169        4.5439  -14.6775  -42.2034 H         1 UNK         0.3000 
    170 H170        3.4745  -12.7402  -42.9990 H         1 UNK         0.0600 
    171 H171        4.9038  -13.8467  -44.6809 H         1 UNK         0.0600 
    172 H172        3.5207  -14.1713  -45.7123 H         1 UNK         0.0600 
    173 H173        4.0568  -12.5133  -45.4476 H         1 UNK         0.0600 
    174 H174        1.5136  -12.7703  -45.1363 H         1 UNK         0.3000 
    175 H175       -1.1509  -12.6017  -43.9270 H         1 UNK         0.0600 
    176 H176       -2.1348  -10.3437  -43.4856 H         1 UNK         0.0600 
    177 H177       -1.4153  -11.0461  -42.0476 H         1 UNK         0.0600 
    178 H178       -0.5670   -9.7737  -42.9140 H         1 UNK         0.0600 
    179 H179       -0.9814  -11.7886  -45.9569 H         1 UNK         0.3000 
    180 H180       -0.0873   -8.9423  -47.4289 H         1 UNK         0.0600 
    181 H181        1.5740   -9.9129  -49.0304 H         1 UNK         0.0600 
    182 H182        2.3321   -9.4132  -47.5284 H         1 UNK         0.0600 
    183 H183        2.0345  -11.1179  -47.8287 H         1 UNK         0.0600 
    184 H184       -0.3269  -11.7223  -48.3673 H         1 UNK         0.3000 
    185 H185       -3.8488  -11.7493  -48.3137 H         1 UNK         0.0600 
    186 H186       -3.6480  -12.2670  -50.7363 H         1 UNK         0.0600 
    187 H187       -3.4606  -10.5402  -50.4670 H         1 UNK         0.0600 
    188 H188       -2.0447  -11.5372  -50.7856 H         1 UNK         0.0600 
    189 H189       -1.8994  -13.5595  -49.3850 H         1 UNK         0.3000 
    190 H190       -2.2381  -21.9221  -44.6969 H         1 UNK         0.3000 
    191 H191       -4.8802  -22.8535  -45.0775 H         1 UNK         0.0600 
    192 H192       -4.9937  -22.7652  -42.5843 H         1 UNK         0.0600 
    193 H193       -4.2287  -21.3271  -43.2423 H         1 UNK         0.0600 
    194 H194       -3.2459  -22.5876  -42.4996 H         1 UNK         0.0600 
    195 H195       -1.9551  -24.5874  -43.9791 H         1 UNK         0.3000 
    196 H196       -3.2844  -27.0718  -43.3840 H         1 UNK         0.0600 
    197 H197       -0.9716  -27.9711  -43.2893 H         1 UNK         0.0600 
    198 H198       -1.0925  -26.4645  -42.3923 H         1 UNK         0.0600 
    199 H199       -0.3370  -26.4856  -43.9831 H         1 UNK         0.0600 
    200 H200       -1.5479  -25.8206  -46.2673 H         1 UNK         0.3000 
    201 H201       -1.8245  -28.1621  -47.8750 H         1 UNK         0.0600 
    202 H202       -0.1215  -26.4474  -48.3326 H         1 UNK         0.0600 
    203 H203       -1.3584  -25.2309  -48.6211 H         1 UNK         0.0600 
    204 H204       -1.1764  -26.5805  -49.7310 H         1 UNK         0.0600 
    205 H205       -3.9079  -25.3243  -47.4428 H         1 UNK         0.3000 
    206 H206       -5.9910  -24.8235  -47.9232 H         1 UNK         0.0600 
    207 H207       -6.5513  -26.8574  -46.6559 H         1 UNK         0.0600 
    208 H208       -7.7017  -26.6554  -47.9645 H         1 UNK         0.0600 
    209 H209       -6.4208  -27.8616  -48.0920 H         1 UNK         0.0600 
    210 H210       -6.8642  -27.3923  -50.0297 H         1 UNK         0.3000 
    211 H211       -7.2898  -25.7061  -52.2760 H         1 UNK         0.0600 
    212 H212       -7.2141  -28.7640  -52.0575 H         1 UNK         0.0600 
    213 H213       -7.8936  -27.8562  -53.4029 H         1 UNK         0.0600 
    214 H214       -8.6316  -27.7418  -51.8138 H         1 UNK         0.0600 
    215 H215       -4.4156  -27.4412  -51.2754 H         1 UNK         0.3000 
    216 H216       -3.1802  -27.4350  -53.9433 H         1 UNK         0.0600 
    217 H217       -1.2769  -28.4702  -52.7458 H         1 UNK         0.0600 
    218 H218       -2.7718  -29.3105  -52.3694 H         1 UNK         0.0600 
    219 H219       -2.0645  -28.2022  -51.1981 H         1 UNK         0.0600 
    220 H220       -3.6436  -25.0326  -51.5535 H         1 UNK         0.3000 
    221 H221       -1.0451  -23.7278  -51.7674 H         1 UNK         0.0600 
    222 H222       -3.6936  -22.6365  -50.6756 H         1 UNK         0.0600 
    223 H223       -2.5542  -23.5847  -49.7288 H         1 UNK         0.0600 
    224 H224       -2.0790  -22.0169  -50.3661 H         1 UNK         0.0600 
    225 H225       -0.7426  -21.5998  -52.6550 H         1 UNK         0.3000 
    226 H226       -2.1109  -21.0530  -55.1877 H         1 UNK         0.0600 
    227 H227       -0.4024  -19.2052  -55.3038 H         1 UNK         0.0600 
    228 H228        0.2312  -19.7165  -53.7455 H         1 UNK         0.0600 
    229 H229        0.3083  -20.8016  -55.1263 H         1 UNK         0.0600 
    230 H230       -4.2194  -20.7253  -54.3077 H         1 UNK         0.3000 
    231 H231       -4.9753  -18.8301  -52.3948 H         1 UNK         0.0600 
    232 H232       -7.2556  -19.1515  -53.3718 H         1 UNK         0.0600 
    233 H233       -6.4177  -20.6843  -53.1928 H         1 UNK         0.0600 
    234 H234       -6.5513  -19.9320  -54.7830 H         1 UNK         0.0600 
    235 H235       -3.8673  -18.1818  -55.5756 H         1 UNK         0.3000 
    236 H236       -5.1306  -15.6482  -56.0698 H         1 UNK         0.0600 
    237 H237       -2.5083  -16.8477  -57.1182 H         1 UNK         0.0600 
    238 H238       -4.0959  -17.0187  -57.8698 H         1 UNK         0.0600 
    239 H239       -3.3273  -15.4419  -57.7876 H         1 UNK         0.0600 
    240 H240       -2.4913  -16.6198  -53.9589 H         1 UNK         0.3000 
    241 H241       -2.0831  -13.8018  -53.1899 H         1 UNK         0.0600 
    242 H242       -2.5595  -16.5318  -50.3491 H         1 UNK         0.3800 
    243 H243       -2.6039  -17.0669  -52.0162 H         1 UNK         0.3800 
    244 H244        0.3967  -14.1935  -52.9358 H         1 UNK         0.0800 
    245 H245       -0.1944  -14.0662  -54.5616 H         1 UNK         0.0800 
    246 H246        2.6144  -17.2139  -53.3322 H         1 UNK         0.0800 
    247 H247        2.5585  -15.4863  -53.0876 H         1 UNK         0.0800 
@<TRIPOS>BOND
     1    1    2 1    
     2    1  127 1    
     3    1  128 1    
     4    1  129 1    
     5    2    3 2    
     6    2    4 am   BACKBONE|DICT|INTERRES
     7    4    5 1    
     8    4  130 1    
     9    5    6 1    
    10    5   65 1    
    11    5  131 1    
    12    6    7 1    
    13    6  132 1    
    14    6  133 1    
    15    7    8 1    
    16    8    9 1    
    17    8  134 1    
    18    8  135 1    
    19    9   10 ar   
    20    9   14 ar   
    21   10   11 ar   
    22   10  136 1    
    23   11   12 ar   
    24   11  126 1    
    25   12   13 ar   
    26   12  137 1    
    27   13   14 ar   
    28   13   15 1    
    29   14  138 1    
    30   15   16 1    
    31   15  139 1    
    32   15  140 1    
    33   16   17 1    
    34   17   18 1    
    35   17  141 1    
    36   17  142 1    
    37   18   19 1    
    38   18   67 1    
    39   18  143 1    
    40   19   20 am   BACKBONE|DICT|INTERRES
    41   19  144 1    
    42   20   21 2    
    43   20   22 1    
    44   22   23 1    
    45   22   24 1    
    46   22  145 1    
    47   23  146 1    
    48   23  147 1    
    49   23  148 1    
    50   24   25 am   BACKBONE|DICT|INTERRES
    51   24  149 1    
    52   25   26 2    
    53   25   27 1    
    54   27   28 1    
    55   27   29 1    
    56   27  150 1    
    57   28  151 1    
    58   28  152 1    
    59   28  153 1    
    60   29   30 am   BACKBONE|DICT|INTERRES
    61   29  154 1    
    62   30   31 2    
    63   30   32 1    
    64   32   33 1    
    65   32   34 1    
    66   32  155 1    
    67   33  156 1    
    68   33  157 1    
    69   33  158 1    
    70   34   35 am   BACKBONE|DICT|INTERRES
    71   34  159 1    
    72   35   36 2    
    73   35   37 1    
    74   37   38 1    
    75   37   39 1    
    76   37  160 1    
    77   38  161 1    
    78   38  162 1    
    79   38  163 1    
    80   39   40 am   BACKBONE|DICT|INTERRES
    81   39  164 1    
    82   40   41 2    
    83   40   42 1    
    84   42   43 1    
    85   42   44 1    
    86   42  165 1    
    87   43  166 1    
    88   43  167 1    
    89   43  168 1    
    90   44   45 am   BACKBONE|DICT|INTERRES
    91   44  169 1    
    92   45   46 2    
    93   45   47 1    
    94   47   48 1    
    95   47   49 1    
    96   47  170 1    
    97   48  171 1    
    98   48  172 1    
    99   48  173 1    
   100   49   50 am   BACKBONE|DICT|INTERRES
   101   49  174 1    
   102   50   51 2    
   103   50   52 1    
   104   52   53 1    
   105   52   54 1    
   106   52  175 1    
   107   53  176 1    
   108   53  177 1    
   109   53  178 1    
   110   54   55 am   BACKBONE|DICT|INTERRES
   111   54  179 1    
   112   55   56 2    
   113   55   57 1    
   114   57   58 1    
   115   57   59 1    
   116   57  180 1    
   117   58  181 1    
   118   58  182 1    
   119   58  183 1    
   120   59   60 am   BACKBONE|DICT|INTERRES
   121   59  184 1    
   122   60   61 2    
   123   60   62 1    
   124   62   63 1    
   125   62   64 1    
   126   62  185 1    
   127   63  186 1    
   128   63  187 1    
   129   63  188 1    
   130   64   65 am   BACKBONE|DICT|INTERRES
   131   64  189 1    
   132   65   66 2    
   133   67   68 2    
   134   67   69 am   BACKBONE|DICT|INTERRES
   135   69   70 1    
   136   69  190 1    
   137   70   71 1    
   138   70   72 1    
   139   70  191 1    
   140   71  192 1    
   141   71  193 1    
   142   71  194 1    
   143   72   73 2    
   144   72   74 am   BACKBONE|DICT|INTERRES
   145   74   75 1    
   146   74  195 1    
   147   75   76 1    
   148   75   77 1    
   149   75  196 1    
   150   76  197 1    
   151   76  198 1    
   152   76  199 1    
   153   77   78 2    
   154   77   79 am   BACKBONE|DICT|INTERRES
   155   79   80 1    
   156   79  200 1    
   157   80   81 1    
   158   80   82 1    
   159   80  201 1    
   160   81  202 1    
   161   81  203 1    
   162   81  204 1    
   163   82   83 2    
   164   82   84 am   BACKBONE|DICT|INTERRES
   165   84   85 1    
   166   84  205 1    
   167   85   86 1    
   168   85   87 1    
   169   85  206 1    
   170   86  207 1    
   171   86  208 1    
   172   86  209 1    
   173   87   88 2    
   174   87   89 am   BACKBONE|DICT|INTERRES
   175   89   90 1    
   176   89  210 1    
   177   90   91 1    
   178   90   92 1    
   179   90  211 1    
   180   91  212 1    
   181   91  213 1    
   182   91  214 1    
   183   92   93 2    
   184   92   94 am   BACKBONE|DICT|INTERRES
   185   94   95 1    
   186   94  215 1    
   187   95   96 1    
   188   95   97 1    
   189   95  216 1    
   190   96  217 1    
   191   96  218 1    
   192   96  219 1    
   193   97   98 2    
   194   97   99 am   BACKBONE|DICT|INTERRES
   195   99  100 1    
   196   99  220 1    
   197  100  101 1    
   198  100  102 1    
   199  100  221 1    
   200  101  222 1    
   201  101  223 1    
   202  101  224 1    
   203  102  103 2    
   204  102  104 am   BACKBONE|DICT|INTERRES
   205  104  105 1    
   206  104  225 1    
   207  105  106 1    
   208  105  107 1    
   209  105  226 1    
   210  106  227 1    
   211  106  228 1    
   212  106  229 1    
   213  107  108 2    
   214  107  109 am   BACKBONE|DICT|INTERRES
   215  109  110 1    
   216  109  230 1    
   217  110  111 1    
   218  110  112 1    
   219  110  231 1    
   220  111  232 1    
   221  111  233 1    
   222  111  234 1    
   223  112  113 2    
   224  112  114 am   BACKBONE|DICT|INTERRES
   225  114  115 1    
   226  114  235 1    
   227  115  116 1    
   228  115  117 1    
   229  115  236 1    
   230  116  237 1    
   231  116  238 1    
   232  116  239 1    
   233  117  118 2    
   234  117  119 am   BACKBONE|DICT|INTERRES
   235  119  120 1    
   236  119  240 1    
   237  120  121 1    
   238  120  124 1    
   239  120  241 1    
   240  121  122 am   BACKBONE|DICT|INTERRES
   241  121  123 2    
   242  122  242 1    
   243  122  243 1    
   244  124  125 1    
   245  124  244 1    
   246  124  245 1    
   247  125  126 1    
   248  126  246 1    
   249  126  247 1    
@<TRIPOS>SUBSTRUCTURE
     1 UNK         1 GROUP             0       ****    0 ROOT    
