@<TRIPOS>MOLECULE
3R540
247   249    1
SMALL
USER_CHARGES


@<TRIPOS>ATOM
      1 CA          0.2558  -11.8606  -48.6174 C.3       0 UNK        -0.1800 
      2 C           0.4470  -13.3564  -48.4150 C.2       0 UNK         0.5000 
      3 O           0.9125  -13.7773  -47.3575 O.2       0 UNK        -0.5000 
      4 N           0.0751  -14.1656  -49.4152 N.am      1 UNK        -0.5000 
      5 CA          0.2151  -15.6289  -49.4129 C.3       1 UNK         0.1400 
      6 C6         -0.1467  -16.2508  -50.7817 C.3       23 UNK        -0.0398 
      7 S7          0.7867  -15.5877  -52.2072 S.3       23 UNK        -0.2404 
      8 C8          2.2538  -16.6736  -52.3326 C.3       23 UNK        -0.0205 
      9 C9          1.9569  -18.1638  -52.1959 C.ar      23 UNK        -0.0193 
     10 C10         0.9352  -18.7737  -52.9335 C.ar      23 UNK        -0.1150 
     11 C11         0.6254  -20.1232  -52.7352 C.ar      23 UNK        -0.0193 
     12 C12         1.3610  -20.8684  -51.8094 C.ar      23 UNK        -0.1150 
     13 C13         2.4092  -20.2823  -51.0953 C.ar      23 UNK        -0.0193 
     14 C14         2.7044  -18.9317  -51.2987 C.ar      23 UNK        -0.1150 
     15 C15         3.2005  -21.1059  -50.0860 C.3       23 UNK        -0.0205 
     16 S16         3.2222  -20.3791  -48.4107 S.3       23 UNK        -0.2404 
     17 C17         1.4506  -20.0737  -48.1020 C.3       23 UNK        -0.0398 
     18 CA          0.6976  -21.3294  -47.6144 C.3       11 UNK         0.1400 
     19 N           1.1518  -21.7548  -46.2891 N.am      11 UNK        -0.5000 
     20 C           1.2408  -23.0253  -45.8759 C.2       10 UNK         0.5000 
     21 O           1.0248  -23.9977  -46.5979 O.2       10 UNK        -0.5000 
     22 CA          1.6446  -23.2581  -44.4049 C.3       10 UNK         0.1400 
     23 CB          3.1407  -23.5933  -44.3067 C.3       10 UNK        -0.1800 
     24 N           1.3585  -22.1177  -43.5313 N.am      10 UNK        -0.5000 
     25 C           0.1298  -21.7027  -43.1941 C.2       9 UNK         0.5000 
     26 O          -0.9030  -22.2644  -43.5541 O.2       9 UNK        -0.5000 
     27 CA          0.0395  -20.4006  -42.3765 C.3       9 UNK         0.1400 
     28 CB          0.0807  -20.6981  -40.8710 C.3       9 UNK        -0.1800 
     29 N           1.0882  -19.4307  -42.7039 N.am      9 UNK        -0.5000 
     30 C           1.2873  -18.8747  -43.9080 C.2       8 UNK         0.5000 
     31 O           0.6110  -19.1726  -44.8914 O.2       8 UNK        -0.5000 
     32 CA          2.4231  -17.8353  -44.0379 C.3       8 UNK         0.1400 
     33 CB          2.1067  -16.7646  -45.0975 C.3       8 UNK        -0.1800 
     34 N           2.7346  -17.1923  -42.7544 N.am      8 UNK        -0.5000 
     35 C           3.6005  -17.6826  -41.8535 C.2       7 UNK         0.5000 
     36 O           4.2568  -18.7061  -42.0497 O.2       7 UNK        -0.5000 
     37 CA          3.6971  -16.9833  -40.4818 C.3       7 UNK         0.1400 
     38 CB          5.1143  -17.0461  -39.8734 C.3       7 UNK        -0.1800 
     39 N           3.1561  -15.6225  -40.4546 N.am      7 UNK        -0.5000 
     40 C           3.6699  -14.5139  -41.0099 C.2       6 UNK         0.5000 
     41 O           4.7126  -14.4980  -41.6650 O.2       6 UNK        -0.5000 
     42 CA          2.8850  -13.2008  -40.7986 C.3       6 UNK         0.1400 
     43 CB          2.8266  -12.3655  -42.0893 C.3       6 UNK        -0.1800 
     44 N           1.5182  -13.4610  -40.3406 N.am      6 UNK        -0.5000 
     45 C           1.0875  -13.3779  -39.0739 C.2       5 UNK         0.5000 
     46 O           1.7885  -12.9878  -38.1401 O.2       5 UNK        -0.5000 
     47 CA         -0.3623  -13.8288  -38.7900 C.3       5 UNK         0.1400 
     48 CB         -1.2903  -12.6091  -38.6848 C.3       5 UNK        -0.1800 
     49 N          -0.9039  -14.7479  -39.7952 N.am      5 UNK        -0.5000 
     50 C          -0.4734  -15.9985  -40.0160 C.2       4 UNK         0.5000 
     51 O           0.4073  -16.5451  -39.3523 O.2       4 UNK        -0.5000 
     52 CA         -1.0673  -16.7281  -41.2381 C.3       4 UNK         0.1400 
     53 CB         -2.3078  -17.5429  -40.8468 C.3       4 UNK        -0.1800 
     54 N          -1.4033  -15.8337  -42.3507 N.am      4 UNK        -0.5000 
     55 C          -0.5389  -15.0266  -42.9772 C.2       3 UNK         0.5000 
     56 O           0.6611  -14.9859  -42.6983 O.2       3 UNK        -0.5000 
     57 CA         -1.1192  -14.1078  -44.0703 C.3       3 UNK         0.1400 
     58 CB         -0.1944  -12.9185  -44.3782 C.3       3 UNK        -0.1800 
     59 N          -1.4069  -14.8248  -45.3130 N.am      3 UNK        -0.5000 
     60 C          -2.4371  -15.6639  -45.4963 C.2       2 UNK         0.5000 
     61 O          -3.2257  -15.9648  -44.5984 O.2       2 UNK        -0.5000 
     62 CA         -2.6692  -16.2318  -46.9111 C.3       2 UNK         0.1400 
     63 CB         -4.0978  -15.9241  -47.3872 C.3       2 UNK        -0.1800 
     64 N          -1.7340  -15.7002  -47.9037 N.am      2 UNK        -0.5000 
     65 C          -0.6202  -16.3218  -48.3112 C.2       1 UNK         0.5000 
     66 O          -0.2509  -17.4057  -47.8684 O.2       1 UNK        -0.5000 
     67 C          -0.8234  -21.0808  -47.6197 C.2       11 UNK         0.5000 
     68 O          -1.4582  -21.2663  -48.6576 O.2       11 UNK        -0.5000 
     69 N          -1.3899  -20.6787  -46.4721 N.am      12 UNK        -0.5000 
     70 CA         -2.8313  -20.5489  -46.2707 C.3       12 UNK         0.1400 
     71 CB         -3.1056  -19.7679  -44.9759 C.3       12 UNK        -0.1800 
     72 C          -3.5260  -21.9240  -46.2474 C.2       12 UNK         0.5000 
     73 O          -4.5638  -22.0956  -46.8894 O.2       12 UNK        -0.5000 
     74 N          -2.9263  -22.8823  -45.5290 N.am      13 UNK        -0.5000 
     75 CA         -3.3341  -24.2853  -45.4905 C.3       13 UNK         0.1400 
     76 CB         -2.5476  -24.9980  -44.3798 C.3       13 UNK        -0.1800 
     77 C          -3.1071  -24.9915  -46.8406 C.2       13 UNK         0.5000 
     78 O          -2.2149  -24.6039  -47.5974 O.2       13 UNK        -0.5000 
     79 N          -3.9196  -26.0239  -47.1088 N.am      14 UNK        -0.5000 
     80 CA         -3.9340  -26.9099  -48.2856 C.3       14 UNK         0.1400 
     81 CB         -2.6025  -27.6707  -48.4353 C.3       14 UNK        -0.1800 
     82 C          -4.3356  -26.2261  -49.6093 C.2       14 UNK         0.5000 
     83 O          -5.1372  -26.7848  -50.3581 O.2       14 UNK        -0.5000 
     84 N          -3.8072  -25.0236  -49.8615 N.am      15 UNK        -0.5000 
     85 CA         -4.1136  -24.1775  -51.0158 C.3       15 UNK         0.1400 
     86 CB         -2.9149  -23.2568  -51.2814 C.3       15 UNK        -0.1800 
     87 C          -5.4100  -23.3578  -50.8460 C.2       15 UNK         0.5000 
     88 O          -5.7754  -22.6330  -51.7722 O.2       15 UNK        -0.5000 
     89 N          -6.0657  -23.4812  -49.6800 N.am      16 UNK        -0.5000 
     90 CA         -7.3556  -22.8966  -49.2986 C.3       16 UNK         0.1400 
     91 CB         -8.4913  -23.4879  -50.1600 C.3       16 UNK        -0.1800 
     92 C          -7.3265  -21.3580  -49.3166 C.2       16 UNK         0.5000 
     93 O          -8.0146  -20.7325  -50.1227 O.2       16 UNK        -0.5000 
     94 N          -6.4836  -20.7812  -48.4484 N.am      17 UNK        -0.5000 
     95 CA         -6.1758  -19.3488  -48.3448 C.3       17 UNK         0.1400 
     96 CB         -7.4120  -18.5334  -47.9119 C.3       17 UNK        -0.1800 
     97 C          -5.5068  -18.8143  -49.6277 C.2       17 UNK         0.5000 
     98 O          -5.7858  -17.6954  -50.0594 O.2       17 UNK        -0.5000 
     99 N          -4.6458  -19.6574  -50.2173 N.am      18 UNK        -0.5000 
    100 CA        -3.8988  -19.4475  -51.4595 C.3       18 UNK         0.1400 
    101 CB        -2.8618  -18.3225  -51.2877 C.3       18 UNK        -0.1800 
    102 C         -4.7832  -19.2679  -52.7138 C.2       18 UNK         0.5000 
    103 O         -4.3114  -18.7296  -53.7166 O.2       18 UNK        -0.5000 
    104 N         -6.0273  -19.7709  -52.6722 N.am      19 UNK        -0.5000 
    105 CA        -6.9820  -19.7765  -53.7870 C.3       19 UNK         0.1400 
    106 CB        -8.3459  -20.2747  -53.2896 C.3       19 UNK        -0.1800 
    107 C         -6.5150  -20.6097  -54.9967 C.2       19 UNK         0.5000 
    108 O         -6.9648  -20.3590  -56.1154 O.2       19 UNK        -0.5000 
    109 N         -5.5884  -21.5496  -54.7608 N.am      20 UNK        -0.5000 
    110 CA        -4.8562  -22.2992  -55.7839 C.3       20 UNK         0.1400 
    111 CB        -4.0354  -23.3994  -55.0930 C.3       20 UNK        -0.1800 
    112 C         -3.9352  -21.4269  -56.6683 C.2       20 UNK         0.5000 
    113 O         -3.4943  -21.9032  -57.7151 O.2       20 UNK        -0.5000 
    114 N         -3.6420  -20.1892  -56.2349 N.am      21 UNK        -0.5000 
    115 CA        -2.8322  -19.1403  -56.8718 C.3       21 UNK         0.1400 
    116 CB        -3.3803  -18.7621  -58.2608 C.3       21 UNK        -0.1800 
    117 C         -1.3224  -19.4400  -56.9258 C.2       21 UNK         0.5000 
    118 O         -0.5242  -18.5440  -56.6513 O.2       21 UNK        -0.5000 
    119 N         -0.9626  -20.6893  -57.2398 N.am      22 UNK        -0.5000 
    120 CA         0.4013  -21.2473  -57.2298 C.3       22 UNK         0.1400 
    121 C          1.3570  -20.6735  -58.3217 C.2       22 UNK         0.5000 
    122 N          0.8568  -20.0063  -59.3546 N.am      22 UNK        -0.7600 
    123 O          2.5688  -20.8627  -58.2560 O.2       22 UNK        -0.5000 
    124 C124        1.0429  -21.2452  -55.8130 C.3       23 UNK        -0.0398 
    125 S125        0.0297  -22.1303  -54.5743 S.3       23 UNK        -0.2404 
    126 C126       -0.5243  -20.7716  -53.4934 C.3       23 UNK        -0.0205 
    127 H127        1.2146  -11.3476  -48.5435 H         1 UNK         0.0600 
    128 H128       -0.4061  -11.4606  -47.8492 H         1 UNK         0.0600 
    129 H129       -0.1773  -11.6352  -49.5922 H         1 UNK         0.0600 
    130 H130       -0.2848  -13.7648  -50.2700 H         1 UNK         0.3000 
    131 H131        1.2633  -15.8559  -49.2066 H         1 UNK         0.0600 
    132 H132       -0.0416  -17.3349  -50.7431 H         1 UNK         0.0800 
    133 H133       -1.2003  -16.0665  -50.9957 H         1 UNK         0.0800 
    134 H134        2.9689  -16.3571  -51.5717 H         1 UNK         0.0800 
    135 H135        2.7364  -16.5002  -53.2951 H         1 UNK         0.0800 
    136 H136        0.3611  -18.1876  -53.6379 H         1 UNK         0.1150 
    137 H137        1.1139  -21.9087  -51.6499 H         1 UNK         0.1150 
    138 H138        3.5023  -18.4734  -50.7312 H         1 UNK         0.1150 
    139 H139        2.8021  -22.1193  -50.0186 H         1 UNK         0.0800 
    140 H140        4.2274  -21.2045  -50.4400 H         1 UNK         0.0800 
    141 H141        0.9858  -19.6582  -48.9968 H         1 UNK         0.0800 
    142 H142        1.3888  -19.2852  -47.3534 H         1 UNK         0.0800 
    143 H143        0.8829  -22.1294  -48.3344 H         1 UNK         0.0600 
    144 H144        1.3208  -21.0096  -45.6264 H         1 UNK         0.3000 
    145 H145        1.0757  -24.1162  -44.0406 H         1 UNK         0.0600 
    146 H146        3.7618  -22.7630  -44.6454 H         1 UNK         0.0600 
    147 H147        3.4260  -23.8316  -43.2819 H         1 UNK         0.0600 
    148 H148        3.3881  -24.4599  -44.9213 H         1 UNK         0.0600 
    149 H149        2.1521  -21.5910  -43.1966 H         1 UNK         0.3000 
    150 H150       -0.9205  -19.9346  -42.6056 H         1 UNK         0.0600 
    151 H151       -0.7179  -21.3851  -40.5876 H         1 UNK         0.0600 
    152 H152       -0.0501  -19.7894  -40.2833 H         1 UNK         0.0600 
    153 H153        1.0267  -21.1541  -40.5764 H         1 UNK         0.0600 
    154 H154        1.7092  -19.1660  -41.9544 H         1 UNK         0.3000 
    155 H155        3.3042  -18.3765  -44.3881 H         1 UNK         0.0600 
    156 H156        2.0979  -17.1998  -46.0974 H         1 UNK         0.0600 
    157 H157        2.8507  -15.9680  -45.0977 H         1 UNK         0.0600 
    158 H158        1.1291  -16.3121  -44.9426 H         1 UNK         0.0600 
    159 H159        2.2022  -16.3568  -42.5335 H         1 UNK         0.3000 
    160 H160        3.0462  -17.5591  -39.8225 H         1 UNK         0.0600 
    161 H161        5.1512  -16.5472  -38.9050 H         1 UNK         0.0600 
    162 H162        5.8573  -16.5805  -40.5212 H         1 UNK         0.0600 
    163 H163        5.4262  -18.0790  -39.7151 H         1 UNK         0.0600 
    164 H164        2.2778  -15.5312  -39.9595 H         1 UNK         0.3000 
    165 H165        3.4265  -12.6208  -40.0490 H         1 UNK         0.0600 
    166 H166        2.4132  -12.9378  -42.9194 H         1 UNK         0.0600 
    167 H167        2.2157  -11.4724  -41.9573 H         1 UNK         0.0600 
    168 H168        3.8225  -12.0353  -42.3866 H         1 UNK         0.0600 
    169 H169        0.9006  -13.8469  -41.0457 H         1 UNK         0.3000 
    170 H170       -0.3618  -14.3442  -37.8273 H         1 UNK         0.0600 
    171 H171       -1.3447  -12.0624  -39.6271 H         1 UNK         0.0600 
    172 H172       -2.3023  -12.9053  -38.4082 H         1 UNK         0.0600 
    173 H173       -0.9374  -11.9137  -37.9220 H         1 UNK         0.0600 
    174 H174       -1.6291  -14.3827  -40.3949 H         1 UNK         0.3000 
    175 H175       -0.3053  -17.4189  -41.5964 H         1 UNK         0.0600 
    176 H176       -3.1239  -16.8989  -40.5172 H         1 UNK         0.0600 
    177 H177       -2.6680  -18.1383  -41.6861 H         1 UNK         0.0600 
    178 H178       -2.0833  -18.2325  -40.0322 H         1 UNK         0.0600 
    179 H179       -2.3534  -15.8705  -42.7041 H         1 UNK         0.3000 
    180 H180       -2.0557  -13.6967  -43.6875 H         1 UNK         0.0600 
    181 H181        0.7745  -13.2482  -44.7545 H         1 UNK         0.0600 
    182 H182       -0.0134  -12.3232  -43.4826 H         1 UNK         0.0600 
    183 H183       -0.6347  -12.2568  -45.1242 H         1 UNK         0.0600 
    184 H184       -0.7721  -14.6557  -46.0835 H         1 UNK         0.3000 
    185 H185       -2.5651  -17.3165  -46.8478 H         1 UNK         0.0600 
    186 H186       -4.2577  -16.2834  -48.4027 H         1 UNK         0.0600 
    187 H187       -4.8390  -16.4086  -46.7503 H         1 UNK         0.0600 
    188 H188       -4.3040  -14.8532  -47.3779 H         1 UNK         0.0600 
    189 H189       -1.9609  -14.8024  -48.3067 H         1 UNK         0.3000 
    190 H190       -0.7893  -20.4476  -45.6902 H         1 UNK         0.3000 
    191 H191       -3.2324  -19.9752  -47.1077 H         1 UNK         0.0600 
    192 H192       -2.8242  -20.3389  -44.0911 H         1 UNK         0.0600 
    193 H193       -2.5542  -18.8282  -44.9506 H         1 UNK         0.0600 
    194 H194       -4.1656  -19.5280  -44.8853 H         1 UNK         0.0600 
    195 H195       -2.0885  -22.6467  -45.0050 H         1 UNK         0.3000 
    196 H196       -4.3982  -24.3220  -45.2486 H         1 UNK         0.0600 
    197 H197       -2.7236  -24.5315  -43.4103 H         1 UNK         0.0600 
    198 H198       -1.4739  -24.9732  -44.5720 H         1 UNK         0.0600 
    199 H199       -2.8431  -26.0445  -44.2957 H         1 UNK         0.0600 
    200 H200       -4.6277  -26.2432  -46.4214 H         1 UNK         0.3000 
    201 H201       -4.7059  -27.6529  -48.0783 H         1 UNK         0.0600 
    202 H202       -2.6636  -28.4046  -49.2398 H         1 UNK         0.0600 
    203 H203       -2.3521  -28.2100  -47.5219 H         1 UNK         0.0600 
    204 H204       -1.7727  -27.0031  -48.6688 H         1 UNK         0.0600 
    205 H205       -3.1438  -24.6562  -49.1814 H         1 UNK         0.3000 
    206 H206       -4.2495  -24.8142  -51.8923 H         1 UNK         0.0600 
    207 H207       -3.0735  -22.6579  -52.1768 H         1 UNK         0.0600 
    208 H208       -1.9995  -23.8289  -51.4336 H         1 UNK         0.0600 
    209 H209       -2.7489  -22.5724  -50.4509 H         1 UNK         0.0600 
    210 H210       -5.6331  -24.0657  -48.9800 H         1 UNK         0.3000 
    211 H211       -7.5403  -23.1930  -48.2649 H         1 UNK         0.0600 
    212 H212       -8.5195  -24.5746  -50.0807 H         1 UNK         0.0600 
    213 H213       -9.4622  -23.1125  -49.8349 H         1 UNK         0.0600 
    214 H214       -8.3798  -23.2330  -51.2143 H         1 UNK         0.0600 
    215 H215       -5.9202  -21.3857  -47.8509 H         1 UNK         0.3000 
    216 H216       -5.4349  -19.2503  -47.5515 H         1 UNK         0.0600 
    217 H217       -7.1397  -17.4993  -47.6976 H         1 UNK         0.0600 
    218 H218       -8.1796  -18.5124  -48.6858 H         1 UNK         0.0600 
    219 H219       -7.8582  -18.9450  -47.0067 H         1 UNK         0.0600 
    220 H220       -4.5119  -20.5583  -49.7809 H         1 UNK         0.3000 
    221 H221       -3.3418  -20.3680  -51.6266 H         1 UNK         0.0600 
    222 H222       -3.3379  -17.3486  -51.1728 H         1 UNK         0.0600 
    223 H223       -2.2381  -18.4997  -50.4110 H         1 UNK         0.0600 
    224 H224       -2.1978  -18.2642  -52.1510 H         1 UNK         0.0600 
    225 H225       -6.3308  -20.2410  -51.8284 H         1 UNK         0.3000 
    226 H226       -7.0980  -18.7461  -54.1285 H         1 UNK         0.0600 
    227 H227       -8.7396  -19.6262  -52.5069 H         1 UNK         0.0600 
    228 H228       -9.0790  -20.2884  -54.0971 H         1 UNK         0.0600 
    229 H229       -8.2791  -21.2864  -52.8874 H         1 UNK         0.0600 
    230 H230       -5.3483  -21.7365  -53.7948 H         1 UNK         0.3000 
    231 H231       -5.5891  -22.7737  -56.4393 H         1 UNK         0.0600 
    232 H232       -3.5670  -24.0552  -55.8280 H         1 UNK         0.0600 
    233 H233       -4.6613  -24.0227  -54.4539 H         1 UNK         0.0600 
    234 H234       -3.2379  -22.9782  -54.4809 H         1 UNK         0.0600 
    235 H235       -4.0302  -19.9082  -55.3404 H         1 UNK         0.3000 
    236 H236       -2.9481  -18.2647  -56.2310 H         1 UNK         0.0600 
    237 H237       -4.4357  -18.4948  -58.2072 H         1 UNK         0.0600 
    238 H238       -2.8469  -17.9014  -58.6661 H         1 UNK         0.0600 
    239 H239       -3.2759  -19.5754  -58.9792 H         1 UNK         0.0600 
    240 H240       -1.7092  -21.3374  -57.4742 H         1 UNK         0.3000 
    241 H241        0.2758  -22.2923  -57.5147 H         1 UNK         0.0600 
    242 H242        1.4773  -19.6476  -60.0635 H         1 UNK         0.3800 
    243 H243       -0.1357  -19.8514  -59.4295 H         1 UNK         0.3800 
    244 H244        2.0150  -21.7400  -55.8355 H         1 UNK         0.0800 
    245 H245        1.2381  -20.2243  -55.4837 H         1 UNK         0.0800 
    246 H246       -1.0712  -20.0346  -54.0818 H         1 UNK         0.0800 
    247 H247       -1.2346  -21.1702  -52.7695 H         1 UNK         0.0800 
@<TRIPOS>BOND
     1    1    2 1    
     2    1  127 1    
     3    1  128 1    
     4    1  129 1    
     5    2    3 2    
     6    2    4 am   BACKBONE|DICT|INTERRES
     7    4    5 1    
     8    4  130 1    
     9    5    6 1    
    10    5   65 1    
    11    5  131 1    
    12    6    7 1    
    13    6  132 1    
    14    6  133 1    
    15    7    8 1    
    16    8    9 1    
    17    8  134 1    
    18    8  135 1    
    19    9   10 ar   
    20    9   14 ar   
    21   10   11 ar   
    22   10  136 1    
    23   11   12 ar   
    24   11  126 1    
    25   12   13 ar   
    26   12  137 1    
    27   13   14 ar   
    28   13   15 1    
    29   14  138 1    
    30   15   16 1    
    31   15  139 1    
    32   15  140 1    
    33   16   17 1    
    34   17   18 1    
    35   17  141 1    
    36   17  142 1    
    37   18   19 1    
    38   18   67 1    
    39   18  143 1    
    40   19   20 am   BACKBONE|DICT|INTERRES
    41   19  144 1    
    42   20   21 2    
    43   20   22 1    
    44   22   23 1    
    45   22   24 1    
    46   22  145 1    
    47   23  146 1    
    48   23  147 1    
    49   23  148 1    
    50   24   25 am   BACKBONE|DICT|INTERRES
    51   24  149 1    
    52   25   26 2    
    53   25   27 1    
    54   27   28 1    
    55   27   29 1    
    56   27  150 1    
    57   28  151 1    
    58   28  152 1    
    59   28  153 1    
    60   29   30 am   BACKBONE|DICT|INTERRES
    61   29  154 1    
    62   30   31 2    
    63   30   32 1    
    64   32   33 1    
    65   32   34 1    
    66   32  155 1    
    67   33  156 1    
    68   33  157 1    
    69   33  158 1    
    70   34   35 am   BACKBONE|DICT|INTERRES
    71   34  159 1    
    72   35   36 2    
    73   35   37 1    
    74   37   38 1    
    75   37   39 1    
    76   37  160 1    
    77   38  161 1    
    78   38  162 1    
    79   38  163 1    
    80   39   40 am   BACKBONE|DICT|INTERRES
    81   39  164 1    
    82   40   41 2    
    83   40   42 1    
    84   42   43 1    
    85   42   44 1    
    86   42  165 1    
    87   43  166 1    
    88   43  167 1    
    89   43  168 1    
    90   44   45 am   BACKBONE|DICT|INTERRES
    91   44  169 1    
    92   45   46 2    
    93   45   47 1    
    94   47   48 1    
    95   47   49 1    
    96   47  170 1    
    97   48  171 1    
    98   48  172 1    
    99   48  173 1    
   100   49   50 am   BACKBONE|DICT|INTERRES
   101   49  174 1    
   102   50   51 2    
   103   50   52 1    
   104   52   53 1    
   105   52   54 1    
   106   52  175 1    
   107   53  176 1    
   108   53  177 1    
   109   53  178 1    
   110   54   55 am   BACKBONE|DICT|INTERRES
   111   54  179 1    
   112   55   56 2    
   113   55   57 1    
   114   57   58 1    
   115   57   59 1    
   116   57  180 1    
   117   58  181 1    
   118   58  182 1    
   119   58  183 1    
   120   59   60 am   BACKBONE|DICT|INTERRES
   121   59  184 1    
   122   60   61 2    
   123   60   62 1    
   124   62   63 1    
   125   62   64 1    
   126   62  185 1    
   127   63  186 1    
   128   63  187 1    
   129   63  188 1    
   130   64   65 am   BACKBONE|DICT|INTERRES
   131   64  189 1    
   132   65   66 2    
   133   67   68 2    
   134   67   69 am   BACKBONE|DICT|INTERRES
   135   69   70 1    
   136   69  190 1    
   137   70   71 1    
   138   70   72 1    
   139   70  191 1    
   140   71  192 1    
   141   71  193 1    
   142   71  194 1    
   143   72   73 2    
   144   72   74 am   BACKBONE|DICT|INTERRES
   145   74   75 1    
   146   74  195 1    
   147   75   76 1    
   148   75   77 1    
   149   75  196 1    
   150   76  197 1    
   151   76  198 1    
   152   76  199 1    
   153   77   78 2    
   154   77   79 am   BACKBONE|DICT|INTERRES
   155   79   80 1    
   156   79  200 1    
   157   80   81 1    
   158   80   82 1    
   159   80  201 1    
   160   81  202 1    
   161   81  203 1    
   162   81  204 1    
   163   82   83 2    
   164   82   84 am   BACKBONE|DICT|INTERRES
   165   84   85 1    
   166   84  205 1    
   167   85   86 1    
   168   85   87 1    
   169   85  206 1    
   170   86  207 1    
   171   86  208 1    
   172   86  209 1    
   173   87   88 2    
   174   87   89 am   BACKBONE|DICT|INTERRES
   175   89   90 1    
   176   89  210 1    
   177   90   91 1    
   178   90   92 1    
   179   90  211 1    
   180   91  212 1    
   181   91  213 1    
   182   91  214 1    
   183   92   93 2    
   184   92   94 am   BACKBONE|DICT|INTERRES
   185   94   95 1    
   186   94  215 1    
   187   95   96 1    
   188   95   97 1    
   189   95  216 1    
   190   96  217 1    
   191   96  218 1    
   192   96  219 1    
   193   97   98 2    
   194   97   99 am   BACKBONE|DICT|INTERRES
   195   99  100 1    
   196   99  220 1    
   197  100  101 1    
   198  100  102 1    
   199  100  221 1    
   200  101  222 1    
   201  101  223 1    
   202  101  224 1    
   203  102  103 2    
   204  102  104 am   BACKBONE|DICT|INTERRES
   205  104  105 1    
   206  104  225 1    
   207  105  106 1    
   208  105  107 1    
   209  105  226 1    
   210  106  227 1    
   211  106  228 1    
   212  106  229 1    
   213  107  108 2    
   214  107  109 am   BACKBONE|DICT|INTERRES
   215  109  110 1    
   216  109  230 1    
   217  110  111 1    
   218  110  112 1    
   219  110  231 1    
   220  111  232 1    
   221  111  233 1    
   222  111  234 1    
   223  112  113 2    
   224  112  114 am   BACKBONE|DICT|INTERRES
   225  114  115 1    
   226  114  235 1    
   227  115  116 1    
   228  115  117 1    
   229  115  236 1    
   230  116  237 1    
   231  116  238 1    
   232  116  239 1    
   233  117  118 2    
   234  117  119 am   BACKBONE|DICT|INTERRES
   235  119  120 1    
   236  119  240 1    
   237  120  121 1    
   238  120  124 1    
   239  120  241 1    
   240  121  122 am   BACKBONE|DICT|INTERRES
   241  121  123 2    
   242  122  242 1    
   243  122  243 1    
   244  124  125 1    
   245  124  244 1    
   246  124  245 1    
   247  125  126 1    
   248  126  246 1    
   249  126  247 1    
@<TRIPOS>SUBSTRUCTURE
     1 UNK         1 GROUP             0       ****    0 ROOT    
