@<TRIPOS>MOLECULE
3R540
247   249    1
SMALL
USER_CHARGES


@<TRIPOS>ATOM
      1 CA         -0.2106  -13.2112  -47.1296 C.3       0 UNK        -0.1800 
      2 C          -1.0822  -14.3908  -46.7274 C.2       0 UNK         0.5000 
      3 O          -1.1439  -14.7354  -45.5458 O.2       0 UNK        -0.5000 
      4 N          -1.7730  -14.9978  -47.7026 N.am      1 UNK        -0.5000 
      5 CA         -2.6130  -16.1978  -47.5533 C.3       1 UNK         0.1400 
      6 C6         -2.9601  -16.8321  -48.9255 C.3       23 UNK        -0.0398 
      7 S7         -1.5922  -17.8425  -49.5837 S.3       23 UNK        -0.2404 
      8 C8         -0.6784  -16.6399  -50.6041 C.3       23 UNK        -0.0205 
      9 C9          0.6028  -17.2301  -51.1803 C.ar      23 UNK        -0.0193 
     10 C10         0.8726  -17.1415  -52.5508 C.ar      23 UNK        -0.1150 
     11 C11         2.0658  -17.6514  -53.0738 C.ar      23 UNK        -0.0193 
     12 C12         2.9732  -18.2877  -52.2211 C.ar      23 UNK        -0.1150 
     13 C13         2.7152  -18.3872  -50.8505 C.ar      23 UNK        -0.0193 
     14 C14         1.5407  -17.8332  -50.3351 C.ar      23 UNK        -0.1150 
     15 C15         3.7126  -19.0791  -49.9316 C.3       23 UNK        -0.0205 
     16 S16         3.1956  -20.7782  -49.5182 S.3       23 UNK        -0.2404 
     17 C17         2.3981  -20.5121  -47.9021 C.3       23 UNK        -0.0398 
     18 CA          1.7316  -21.7873  -47.3210 C.3       11 UNK         0.1400 
     19 N           1.8199  -21.8213  -45.8579 N.am      11 UNK        -0.5000 
     20 C           1.5183  -22.8734  -45.0833 C.2       10 UNK         0.5000 
     21 O           1.2200  -23.9849  -45.5195 O.2       10 UNK        -0.5000 
     22 CA          1.5128  -22.6333  -43.5604 C.3       10 UNK         0.1400 
     23 CB          2.9114  -22.8514  -42.9643 C.3       10 UNK        -0.1800 
     24 N           1.0255  -21.2997  -43.1994 N.am      10 UNK        -0.5000 
     25 C          -0.2283  -20.8720  -43.4091 C.2       9 UNK         0.5000 
     26 O          -1.1212  -21.5856  -43.8649 O.2       9 UNK        -0.5000 
     27 CA         -0.5189  -19.3885  -43.1121 C.3       9 UNK         0.1400 
     28 CB         -0.7617  -19.1709  -41.6113 C.3       9 UNK        -0.1800 
     29 N           0.5595  -18.5098  -43.5664 N.am      9 UNK        -0.5000 
     30 C           0.9306  -18.3486  -44.8445 C.2       8 UNK         0.5000 
     31 O           0.3489  -18.8705  -45.7940 O.2       8 UNK        -0.5000 
     32 CA          2.2062  -17.5269  -45.1014 C.3       8 UNK         0.1400 
     33 CB          1.9023  -16.0262  -45.1790 C.3       8 UNK        -0.1800 
     34 N           3.2255  -17.7685  -44.0816 N.am      8 UNK        -0.5000 
     35 C           3.9339  -18.9014  -43.9813 C.2       7 UNK         0.5000 
     36 O           3.8125  -19.8507  -44.7540 O.2       7 UNK        -0.5000 
     37 CA          4.9113  -19.0033  -42.7967 C.3       7 UNK         0.1400 
     38 CB          6.2507  -18.3356  -43.1411 C.3       7 UNK        -0.1800 
     39 N           4.3705  -18.4060  -41.5751 N.am      7 UNK        -0.5000 
     40 C           3.3241  -18.8960  -40.8958 C.2       6 UNK         0.5000 
     41 O           2.7325  -19.9296  -41.2061 O.2       6 UNK        -0.5000 
     42 CA          2.8232  -18.0579  -39.7041 C.3       6 UNK         0.1400 
     43 CB          3.6121  -18.4008  -38.4318 C.3       6 UNK        -0.1800 
     44 N           2.8876  -16.6118  -39.9449 N.am      6 UNK        -0.5000 
     45 C           2.2050  -15.9769  -40.9058 C.2       5 UNK         0.5000 
     46 O           1.4649  -16.5504  -41.7103 O.2       5 UNK        -0.5000 
     47 CA          2.4083  -14.4612  -41.0194 C.3       5 UNK         0.1400 
     48 CB          3.7128  -14.1348  -41.7664 C.3       5 UNK        -0.1800 
     49 N           1.2743  -13.9235  -41.7567 N.am      5 UNK        -0.5000 
     50 C           0.7555  -12.6973  -41.6472 C.2       4 UNK         0.5000 
     51 O           1.2395  -11.8084  -40.9454 O.2       4 UNK        -0.5000 
     52 CA         -0.5306  -12.4200  -42.4531 C.3       4 UNK         0.1400 
     53 CB         -0.1959  -11.6720  -43.7517 C.3       4 UNK        -0.1800 
     54 N          -1.2772  -13.6364  -42.7886 N.am      4 UNK        -0.5000 
     55 C          -1.9496  -14.3905  -41.9068 C.2       3 UNK         0.5000 
     56 O          -2.0519  -14.1193  -40.7092 O.2       3 UNK        -0.5000 
     57 CA         -2.6091  -15.6532  -42.4868 C.3       3 UNK         0.1400 
     58 CB         -3.4209  -16.4709  -41.4592 C.3       3 UNK        -0.1800 
     59 N          -3.3871  -15.3340  -43.6853 N.am      3 UNK        -0.5000 
     60 C          -4.5569  -14.6816  -43.7823 C.2       2 UNK         0.5000 
     61 O          -5.2147  -14.3062  -42.8114 O.2       2 UNK        -0.5000 
     62 CA         -5.0807  -14.3719  -45.2077 C.3       2 UNK         0.1400 
     63 CB         -5.4128  -12.8778  -45.3602 C.3       2 UNK        -0.1800 
     64 N          -4.1349  -14.7400  -46.2646 N.am      2 UNK        -0.5000 
     65 C          -3.8783  -15.9851  -46.6870 C.2       1 UNK         0.5000 
     66 O          -4.5582  -16.9578  -46.3619 O.2       1 UNK        -0.5000 
     67 C           0.2686  -21.9391  -47.7943 C.2       11 UNK         0.5000 
     68 O          -0.0146  -22.7731  -48.6546 O.2       11 UNK        -0.5000 
     69 N          -0.6372  -21.1550  -47.1890 N.am      12 UNK        -0.5000 
     70 CA         -2.0806  -21.1786  -47.4319 C.3       12 UNK         0.1400 
     71 CB         -2.7494  -20.0578  -46.6245 C.3       12 UNK        -0.1800 
     72 C          -2.7355  -22.5305  -47.1011 C.2       12 UNK         0.5000 
     73 O          -3.6290  -22.9538  -47.8344 O.2       12 UNK        -0.5000 
     74 N          -2.2646  -23.1748  -46.0234 N.am      13 UNK        -0.5000 
     75 CA         -2.6586  -24.4897  -45.5161 C.3       13 UNK         0.1400 
     76 CB         -2.2529  -25.6030  -46.5070 C.3       13 UNK        -0.1800 
     77 C          -4.1469  -24.5275  -45.1208 C.2       13 UNK         0.5000 
     78 O          -4.4807  -24.1852  -43.9856 O.2       13 UNK        -0.5000 
     79 N          -5.0083  -24.9171  -46.0637 N.am      14 UNK        -0.5000 
     80 CA         -6.4587  -24.8659  -45.9683 C.3       14 UNK         0.1400 
     81 CB         -7.0048  -26.2522  -45.5915 C.3       14 UNK        -0.1800 
     82 C          -6.9905  -24.4088  -47.3318 C.2       14 UNK         0.5000 
     83 O          -6.4562  -24.8276  -48.3616 O.2       14 UNK        -0.5000 
     84 N          -8.0242  -23.5562  -47.3085 N.am      15 UNK        -0.5000 
     85 CA         -8.7289  -22.9847  -48.4659 C.3       15 UNK         0.1400 
     86 CB         -9.4643  -24.0904  -49.2532 C.3       15 UNK        -0.1800 
     87 C          -7.8559  -22.0910  -49.3787 C.2       15 UNK         0.5000 
     88 O          -8.2251  -21.8673  -50.5325 O.2       15 UNK        -0.5000 
     89 N          -6.7355  -21.5805  -48.8407 N.am      16 UNK        -0.5000 
     90 CA         -5.7323  -20.7389  -49.5039 C.3       16 UNK         0.1400 
     91 CB         -6.3067  -19.3402  -49.8042 C.3       16 UNK        -0.1800 
     92 C          -5.1202  -21.4314  -50.7388 C.2       16 UNK         0.5000 
     93 O          -5.1751  -20.9026  -51.8506 O.2       16 UNK        -0.5000 
     94 N          -4.5595  -22.6254  -50.5077 N.am      17 UNK        -0.5000 
     95 CA         -4.0103  -23.5266  -51.5207 C.3       17 UNK         0.1400 
     96 CB         -3.5017  -24.8038  -50.8350 C.3       17 UNK        -0.1800 
     97 C          -2.9027  -22.8913  -52.3780 C.2       17 UNK         0.5000 
     98 O          -2.9127  -23.0540  -53.5980 O.2       17 UNK        -0.5000 
     99 N          -1.9937  -22.1443  -51.7368 N.am      18 UNK        -0.5000 
    100 CA        -0.9272  -21.4132  -52.4186 C.3       18 UNK         0.1400 
    101 CB         0.1103  -20.9216  -51.4078 C.3       18 UNK        -0.1800 
    102 C         -1.4498  -20.2552  -53.2835 C.2       18 UNK         0.5000 
    103 O         -0.9584  -20.0774  -54.3940 O.2       18 UNK        -0.5000 
    104 N         -2.4704  -19.5278  -52.8064 N.am      19 UNK        -0.5000 
    105 CA        -3.1170  -18.4490  -53.5604 C.3       19 UNK         0.1400 
    106 CB        -4.0803  -17.6730  -52.6518 C.3       19 UNK        -0.1800 
    107 C         -3.8592  -18.9591  -54.8093 C.2       19 UNK         0.5000 
    108 O         -3.8941  -18.2573  -55.8195 O.2       19 UNK        -0.5000 
    109 N         -4.4234  -20.1713  -54.7206 N.am      20 UNK        -0.5000 
    110 CA        -5.0422  -20.8768  -55.8406 C.3       20 UNK         0.1400 
    111 CB        -5.9129  -22.0219  -55.3005 C.3       20 UNK        -0.1800 
    112 C         -4.0039  -21.4017  -56.8523 C.2       20 UNK         0.5000 
    113 O         -4.2631  -21.3638  -58.0558 O.2       20 UNK        -0.5000 
    114 N         -2.8588  -21.8883  -56.3527 N.am      21 UNK        -0.5000 
    115 CA        -1.7556  -22.4124  -57.1585 C.3       21 UNK         0.1400 
    116 CB        -0.8173  -23.2408  -56.2670 C.3       21 UNK        -0.1800 
    117 C         -0.9740  -21.3104  -57.8979 C.2       21 UNK         0.5000 
    118 O         -0.6863  -21.4668  -59.0859 O.2       21 UNK        -0.5000 
    119 N         -0.6348  -20.2298  -57.1850 N.am      22 UNK        -0.5000 
    120 CA         0.0696  -19.0518  -57.7112 C.3       22 UNK         0.1400 
    121 C         -0.7673  -18.2523  -58.7503 C.2       22 UNK         0.5000 
    122 N         -0.1162  -17.6182  -59.7167 N.am      22 UNK        -0.7600 
    123 O         -1.9900  -18.1645  -58.6733 O.2       22 UNK        -0.5000 
    124 C124        0.5526  -18.1232  -56.5667 C.3       23 UNK        -0.0398 
    125 S125        1.8728  -18.8857  -55.5609 S.3       23 UNK        -0.2404 
    126 C126        2.4078  -17.4721  -54.5466 C.3       23 UNK        -0.0205 
    127 H127        0.7908  -13.3264  -46.7151 H         1 UNK         0.0600 
    128 H128       -0.6359  -12.2834  -46.7482 H         1 UNK         0.0600 
    129 H129       -0.1202  -13.1262  -48.2126 H         1 UNK         0.0600 
    130 H130       -1.7023  -14.6352  -48.6418 H         1 UNK         0.3000 
    131 H131       -2.0110  -16.9114  -46.9889 H         1 UNK         0.0600 
    132 H132       -3.2574  -16.0716  -49.6489 H         1 UNK         0.0800 
    133 H133       -3.8106  -17.5107  -48.8419 H         1 UNK         0.0800 
    134 H134       -1.3309  -16.2819  -51.4016 H         1 UNK         0.0800 
    135 H135       -0.4113  -15.7735  -50.0000 H         1 UNK         0.0800 
    136 H136        0.1657  -16.6572  -53.2095 H         1 UNK         0.1150 
    137 H137        3.8891  -18.6953  -52.6256 H         1 UNK         0.1150 
    138 H138        1.3421  -17.8840  -49.2748 H         1 UNK         0.1150 
    139 H139        4.6913  -19.1247  -50.4117 H         1 UNK         0.0800 
    140 H140        3.8529  -18.4915  -49.0231 H         1 UNK         0.0800 
    141 H141        1.6917  -19.6847  -47.9688 H         1 UNK         0.0800 
    142 H142        3.1898  -20.1688  -47.2369 H         1 UNK         0.0800 
    143 H143        2.2834  -22.6593  -47.6790 H         1 UNK         0.0600 
    144 H144        2.1216  -20.9676  -45.4041 H         1 UNK         0.3000 
    145 H145        0.8379  -23.3664  -43.1139 H         1 UNK         0.0600 
    146 H146        2.8978  -22.7458  -41.8793 H         1 UNK         0.0600 
    147 H147        3.2793  -23.8531  -43.1894 H         1 UNK         0.0600 
    148 H148        3.6356  -22.1397  -43.3598 H         1 UNK         0.0600 
    149 H149        1.6889  -20.6752  -42.7521 H         1 UNK         0.3000 
    150 H150       -1.4257  -19.1049  -43.6500 H         1 UNK         0.0600 
    151 H151       -1.6500  -19.7096  -41.2798 H         1 UNK         0.0600 
    152 H152       -0.9116  -18.1171  -41.3815 H         1 UNK         0.0600 
    153 H153        0.0769  -19.5217  -41.0104 H         1 UNK         0.0600 
    154 H154        1.0557  -17.9887  -42.8486 H         1 UNK         0.3000 
    155 H155        2.6137  -17.8343  -46.0669 H         1 UNK         0.0600 
    156 H156        2.8146  -15.4374  -45.2747 H         1 UNK         0.0600 
    157 H157        1.3592  -15.6694  -44.3037 H         1 UNK         0.0600 
    158 H158        1.2933  -15.8171  -46.0566 H         1 UNK         0.0600 
    159 H159        3.3433  -17.0572  -43.3767 H         1 UNK         0.3000 
    160 H160        5.0958  -20.0629  -42.6067 H         1 UNK         0.0600 
    161 H161        6.1356  -17.2656  -43.3191 H         1 UNK         0.0600 
    162 H162        6.6844  -18.7736  -44.0412 H         1 UNK         0.0600 
    163 H163        6.9745  -18.4664  -42.3365 H         1 UNK         0.0600 
    164 H164        4.8008  -17.5527  -41.2506 H         1 UNK         0.3000 
    165 H165        1.7767  -18.3205  -39.5359 H         1 UNK         0.0600 
    166 H166        3.2060  -17.8811  -37.5639 H         1 UNK         0.0600 
    167 H167        3.5650  -19.4699  -38.2198 H         1 UNK         0.0600 
    168 H168        4.6648  -18.1304  -38.5239 H         1 UNK         0.0600 
    169 H169        3.4811  -16.0774  -39.3265 H         1 UNK         0.3000 
    170 H170        2.4328  -14.0345  -40.0146 H         1 UNK         0.0600 
    171 H171        4.5798  -14.5357  -41.2403 H         1 UNK         0.0600 
    172 H172        3.7147  -14.5525  -42.7741 H         1 UNK         0.0600 
    173 H173        3.8573  -13.0578  -41.8530 H         1 UNK         0.0600 
    174 H174        0.7834  -14.6148  -42.3087 H         1 UNK         0.3000 
    175 H175       -1.1732  -11.7812  -41.8437 H         1 UNK         0.0600 
    176 H176        0.4637  -12.2596  -44.3909 H         1 UNK         0.0600 
    177 H177       -1.0978  -11.4397  -44.3183 H         1 UNK         0.0600 
    178 H178        0.3079  -10.7280  -43.5403 H         1 UNK         0.0600 
    179 H179       -1.2405  -13.9408  -43.7576 H         1 UNK         0.3000 
    180 H180       -1.7891  -16.2884  -42.8259 H         1 UNK         0.0600 
    181 H181       -3.8446  -17.3657  -41.9149 H         1 UNK         0.0600 
    182 H182       -4.2371  -15.8944  -41.0243 H         1 UNK         0.0600 
    183 H183       -2.7867  -16.7953  -40.6339 H         1 UNK         0.0600 
    184 H184       -2.9002  -15.5128  -44.5541 H         1 UNK         0.3000 
    185 H185       -6.0006  -14.9434  -45.3460 H         1 UNK         0.0600 
    186 H186       -6.1692  -12.5661  -44.6389 H         1 UNK         0.0600 
    187 H187       -4.5323  -12.2532  -45.2036 H         1 UNK         0.0600 
    188 H188       -5.8074  -12.6603  -46.3529 H         1 UNK         0.0600 
    189 H189       -3.5133  -14.0083  -46.5768 H         1 UNK         0.3000 
    190 H190       -0.3064  -20.4567  -46.5274 H         1 UNK         0.3000 
    191 H191       -2.2372  -20.9786  -48.4936 H         1 UNK         0.0600 
    192 H192       -3.8136  -19.9825  -46.8466 H         1 UNK         0.0600 
    193 H193       -2.2995  -19.0962  -46.8545 H         1 UNK         0.0600 
    194 H194       -2.6537  -20.2173  -45.5511 H         1 UNK         0.0600 
    195 H195       -1.6066  -22.6714  -45.4358 H         1 UNK         0.3000 
    196 H196       -2.0881  -24.6455  -44.5991 H         1 UNK         0.0600 
    197 H197       -2.7133  -25.4814  -47.4878 H         1 UNK         0.0600 
    198 H198       -1.1724  -25.6125  -46.6533 H         1 UNK         0.0600 
    199 H199       -2.5370  -26.5854  -46.1282 H         1 UNK         0.0600 
    200 H200       -4.6602  -25.0758  -47.0017 H         1 UNK         0.3000 
    201 H201       -6.7597  -24.1397  -45.2100 H         1 UNK         0.0600 
    202 H202       -6.7285  -27.0070  -46.3289 H         1 UNK         0.0600 
    203 H203       -8.0934  -26.2381  -45.5256 H         1 UNK         0.0600 
    204 H204       -6.6233  -26.5752  -44.6227 H         1 UNK         0.0600 
    205 H205       -8.3818  -23.2671  -46.4081 H         1 UNK         0.3000 
    206 H206       -9.4904  -22.3222  -48.0521 H         1 UNK         0.0600 
    207 H207      -10.0828  -24.6997  -48.5942 H         1 UNK         0.0600 
    208 H208      -10.1243  -23.6627  -50.0088 H         1 UNK         0.0600 
    209 H209       -8.7674  -24.7530  -49.7674 H         1 UNK         0.0600 
    210 H210       -6.5170  -21.8528  -47.8934 H         1 UNK         0.3000 
    211 H211       -4.9183  -20.6078  -48.7924 H         1 UNK         0.0600 
    212 H212       -5.5253  -18.6700  -50.1595 H         1 UNK         0.0600 
    213 H213       -6.7333  -18.8887  -48.9085 H         1 UNK         0.0600 
    214 H214       -7.0848  -19.3733  -50.5675 H         1 UNK         0.0600 
    215 H215       -4.5135  -22.9554  -49.5470 H         1 UNK         0.3000 
    216 H216       -4.8286  -23.7996  -52.1899 H         1 UNK         0.0600 
    217 H217       -2.7068  -24.5872  -50.1197 H         1 UNK         0.0600 
    218 H218       -3.1054  -25.5099  -51.5658 H         1 UNK         0.0600 
    219 H219       -4.3051  -25.3078  -50.2971 H         1 UNK         0.0600 
    220 H220       -2.0322  -22.0796  -50.7306 H         1 UNK         0.3000 
    221 H221       -0.4203  -22.1108  -53.0885 H         1 UNK         0.0600 
    222 H222        0.8612  -20.3024  -51.8980 H         1 UNK         0.0600 
    223 H223        0.6392  -21.7600  -50.9577 H         1 UNK         0.0600 
    224 H224       -0.3385  -20.3316  -50.6094 H         1 UNK         0.0600 
    225 H225       -2.8643  -19.7606  -51.9075 H         1 UNK         0.3000 
    226 H226       -2.3350  -17.7623  -53.8915 H         1 UNK         0.0600 
    227 H227       -3.5866  -17.3268  -51.7468 H         1 UNK         0.0600 
    228 H228       -4.4701  -16.7933  -53.1651 H         1 UNK         0.0600 
    229 H229       -4.9354  -18.2823  -52.3622 H         1 UNK         0.0600 
    230 H230       -4.4070  -20.6475  -53.8255 H         1 UNK         0.3000 
    231 H231       -5.6956  -20.1771  -56.3661 H         1 UNK         0.0600 
    232 H232       -5.3210  -22.7613  -54.7610 H         1 UNK         0.0600 
    233 H233       -6.4234  -22.5398  -56.1132 H         1 UNK         0.0600 
    234 H234       -6.6781  -21.6477  -54.6199 H         1 UNK         0.0600 
    235 H235       -2.7504  -21.9389  -55.3460 H         1 UNK         0.3000 
    236 H236       -2.1765  -23.0828  -57.9109 H         1 UNK         0.0600 
    237 H237       -1.3501  -24.0642  -55.7909 H         1 UNK         0.0600 
    238 H238       -0.0045  -23.6732  -56.8517 H         1 UNK         0.0600 
    239 H239       -0.3684  -22.6336  -55.4808 H         1 UNK         0.0600 
    240 H240       -0.8768  -20.1928  -56.1963 H         1 UNK         0.3000 
    241 H241        0.9525  -19.4236  -58.2351 H         1 UNK         0.0600 
    242 H242       -0.6420  -17.0841  -60.3914 H         1 UNK         0.3800 
    243 H243        0.8876  -17.6683  -59.8022 H         1 UNK         0.3800 
    244 H244       -0.2792  -17.8460  -55.9167 H         1 UNK         0.0800 
    245 H245        0.9483  -17.1920  -56.9764 H         1 UNK         0.0800 
    246 H246        1.9708  -16.5443  -54.9181 H         1 UNK         0.0800 
    247 H247        3.4867  -17.3554  -54.6593 H         1 UNK         0.0800 
@<TRIPOS>BOND
     1    1    2 1    
     2    1  127 1    
     3    1  128 1    
     4    1  129 1    
     5    2    3 2    
     6    2    4 am   BACKBONE|DICT|INTERRES
     7    4    5 1    
     8    4  130 1    
     9    5    6 1    
    10    5   65 1    
    11    5  131 1    
    12    6    7 1    
    13    6  132 1    
    14    6  133 1    
    15    7    8 1    
    16    8    9 1    
    17    8  134 1    
    18    8  135 1    
    19    9   10 ar   
    20    9   14 ar   
    21   10   11 ar   
    22   10  136 1    
    23   11   12 ar   
    24   11  126 1    
    25   12   13 ar   
    26   12  137 1    
    27   13   14 ar   
    28   13   15 1    
    29   14  138 1    
    30   15   16 1    
    31   15  139 1    
    32   15  140 1    
    33   16   17 1    
    34   17   18 1    
    35   17  141 1    
    36   17  142 1    
    37   18   19 1    
    38   18   67 1    
    39   18  143 1    
    40   19   20 am   BACKBONE|DICT|INTERRES
    41   19  144 1    
    42   20   21 2    
    43   20   22 1    
    44   22   23 1    
    45   22   24 1    
    46   22  145 1    
    47   23  146 1    
    48   23  147 1    
    49   23  148 1    
    50   24   25 am   BACKBONE|DICT|INTERRES
    51   24  149 1    
    52   25   26 2    
    53   25   27 1    
    54   27   28 1    
    55   27   29 1    
    56   27  150 1    
    57   28  151 1    
    58   28  152 1    
    59   28  153 1    
    60   29   30 am   BACKBONE|DICT|INTERRES
    61   29  154 1    
    62   30   31 2    
    63   30   32 1    
    64   32   33 1    
    65   32   34 1    
    66   32  155 1    
    67   33  156 1    
    68   33  157 1    
    69   33  158 1    
    70   34   35 am   BACKBONE|DICT|INTERRES
    71   34  159 1    
    72   35   36 2    
    73   35   37 1    
    74   37   38 1    
    75   37   39 1    
    76   37  160 1    
    77   38  161 1    
    78   38  162 1    
    79   38  163 1    
    80   39   40 am   BACKBONE|DICT|INTERRES
    81   39  164 1    
    82   40   41 2    
    83   40   42 1    
    84   42   43 1    
    85   42   44 1    
    86   42  165 1    
    87   43  166 1    
    88   43  167 1    
    89   43  168 1    
    90   44   45 am   BACKBONE|DICT|INTERRES
    91   44  169 1    
    92   45   46 2    
    93   45   47 1    
    94   47   48 1    
    95   47   49 1    
    96   47  170 1    
    97   48  171 1    
    98   48  172 1    
    99   48  173 1    
   100   49   50 am   BACKBONE|DICT|INTERRES
   101   49  174 1    
   102   50   51 2    
   103   50   52 1    
   104   52   53 1    
   105   52   54 1    
   106   52  175 1    
   107   53  176 1    
   108   53  177 1    
   109   53  178 1    
   110   54   55 am   BACKBONE|DICT|INTERRES
   111   54  179 1    
   112   55   56 2    
   113   55   57 1    
   114   57   58 1    
   115   57   59 1    
   116   57  180 1    
   117   58  181 1    
   118   58  182 1    
   119   58  183 1    
   120   59   60 am   BACKBONE|DICT|INTERRES
   121   59  184 1    
   122   60   61 2    
   123   60   62 1    
   124   62   63 1    
   125   62   64 1    
   126   62  185 1    
   127   63  186 1    
   128   63  187 1    
   129   63  188 1    
   130   64   65 am   BACKBONE|DICT|INTERRES
   131   64  189 1    
   132   65   66 2    
   133   67   68 2    
   134   67   69 am   BACKBONE|DICT|INTERRES
   135   69   70 1    
   136   69  190 1    
   137   70   71 1    
   138   70   72 1    
   139   70  191 1    
   140   71  192 1    
   141   71  193 1    
   142   71  194 1    
   143   72   73 2    
   144   72   74 am   BACKBONE|DICT|INTERRES
   145   74   75 1    
   146   74  195 1    
   147   75   76 1    
   148   75   77 1    
   149   75  196 1    
   150   76  197 1    
   151   76  198 1    
   152   76  199 1    
   153   77   78 2    
   154   77   79 am   BACKBONE|DICT|INTERRES
   155   79   80 1    
   156   79  200 1    
   157   80   81 1    
   158   80   82 1    
   159   80  201 1    
   160   81  202 1    
   161   81  203 1    
   162   81  204 1    
   163   82   83 2    
   164   82   84 am   BACKBONE|DICT|INTERRES
   165   84   85 1    
   166   84  205 1    
   167   85   86 1    
   168   85   87 1    
   169   85  206 1    
   170   86  207 1    
   171   86  208 1    
   172   86  209 1    
   173   87   88 2    
   174   87   89 am   BACKBONE|DICT|INTERRES
   175   89   90 1    
   176   89  210 1    
   177   90   91 1    
   178   90   92 1    
   179   90  211 1    
   180   91  212 1    
   181   91  213 1    
   182   91  214 1    
   183   92   93 2    
   184   92   94 am   BACKBONE|DICT|INTERRES
   185   94   95 1    
   186   94  215 1    
   187   95   96 1    
   188   95   97 1    
   189   95  216 1    
   190   96  217 1    
   191   96  218 1    
   192   96  219 1    
   193   97   98 2    
   194   97   99 am   BACKBONE|DICT|INTERRES
   195   99  100 1    
   196   99  220 1    
   197  100  101 1    
   198  100  102 1    
   199  100  221 1    
   200  101  222 1    
   201  101  223 1    
   202  101  224 1    
   203  102  103 2    
   204  102  104 am   BACKBONE|DICT|INTERRES
   205  104  105 1    
   206  104  225 1    
   207  105  106 1    
   208  105  107 1    
   209  105  226 1    
   210  106  227 1    
   211  106  228 1    
   212  106  229 1    
   213  107  108 2    
   214  107  109 am   BACKBONE|DICT|INTERRES
   215  109  110 1    
   216  109  230 1    
   217  110  111 1    
   218  110  112 1    
   219  110  231 1    
   220  111  232 1    
   221  111  233 1    
   222  111  234 1    
   223  112  113 2    
   224  112  114 am   BACKBONE|DICT|INTERRES
   225  114  115 1    
   226  114  235 1    
   227  115  116 1    
   228  115  117 1    
   229  115  236 1    
   230  116  237 1    
   231  116  238 1    
   232  116  239 1    
   233  117  118 2    
   234  117  119 am   BACKBONE|DICT|INTERRES
   235  119  120 1    
   236  119  240 1    
   237  120  121 1    
   238  120  124 1    
   239  120  241 1    
   240  121  122 am   BACKBONE|DICT|INTERRES
   241  121  123 2    
   242  122  242 1    
   243  122  243 1    
   244  124  125 1    
   245  124  244 1    
   246  124  245 1    
   247  125  126 1    
   248  126  246 1    
   249  126  247 1    
@<TRIPOS>SUBSTRUCTURE
     1 UNK         1 GROUP             0       ****    0 ROOT    
