@<TRIPOS>MOLECULE
3R540
247   249    1
SMALL
USER_CHARGES


@<TRIPOS>ATOM
      1 CA          1.2845  -11.5581  -47.2296 C.3       0 UNK        -0.1800 
      2 C           2.6510  -12.1997  -47.0397 C.2       0 UNK         0.5000 
      3 O           3.6471  -11.4873  -46.9184 O.2       0 UNK        -0.5000 
      4 N           2.7009  -13.5387  -47.0067 N.am      1 UNK        -0.5000 
      5 CA          3.9292  -14.3463  -46.9740 C.3       1 UNK         0.1400 
      6 C6          3.6196  -15.8486  -47.1945 C.3       23 UNK        -0.0398 
      7 S7          5.0668  -16.7808  -47.7947 S.3       23 UNK        -0.2404 
      8 C8          4.7747  -16.8019  -49.5950 C.3       23 UNK        -0.0205 
      9 C9          3.7275  -17.8270  -50.0118 C.ar      23 UNK        -0.0193 
     10 C10         2.6201  -17.4463  -50.7770 C.ar      23 UNK        -0.1150 
     11 C11         1.6907  -18.4006  -51.2059 C.ar      23 UNK        -0.0193 
     12 C12         1.8563  -19.7382  -50.8304 C.ar      23 UNK        -0.1150 
     13 C13         2.9550  -20.1308  -50.0589 C.ar      23 UNK        -0.0193 
     14 C14         3.8946  -19.1718  -49.6723 C.ar      23 UNK        -0.1150 
     15 C15         3.1394  -21.5934  -49.6683 C.3       23 UNK        -0.0205 
     16 S16         3.4773  -21.8380  -47.8878 S.3       23 UNK        -0.2404 
     17 C17         1.9948  -21.1079  -47.1107 C.3       23 UNK        -0.0398 
     18 CA          0.9308  -22.1530  -46.6999 C.3       11 UNK         0.1400 
     19 N          -0.0789  -21.5739  -45.8099 N.am      11 UNK        -0.5000 
     20 C          -1.0503  -22.2659  -45.1965 C.2       10 UNK         0.5000 
     21 O          -1.1639  -23.4901  -45.2577 O.2       10 UNK        -0.5000 
     22 CA         -2.0997  -21.4489  -44.4224 C.3       10 UNK         0.1400 
     23 CB         -1.5673  -21.0533  -43.0374 C.3       10 UNK        -0.1800 
     24 N          -2.5285  -20.2536  -45.1507 N.am      10 UNK        -0.5000 
     25 C          -3.1849  -20.2747  -46.3199 C.2       9 UNK         0.5000 
     26 O          -3.5569  -21.3081  -46.8739 O.2       9 UNK        -0.5000 
     27 CA         -3.4303  -18.9231  -47.0136 C.3       9 UNK         0.1400 
     28 CB         -4.6816  -18.2333  -46.4517 C.3       9 UNK        -0.1800 
     29 N          -2.2847  -18.0181  -46.9386 N.am      9 UNK        -0.5000 
     30 C          -1.0793  -18.2744  -47.4673 C.2       8 UNK         0.5000 
     31 O          -0.8004  -19.3137  -48.0624 O.2       8 UNK        -0.5000 
     32 CA          0.0184  -17.2246  -47.2191 C.3       8 UNK         0.1400 
     33 CB         -0.1726  -15.9840  -48.1073 C.3       8 UNK        -0.1800 
     34 N           0.0559  -16.8180  -45.8150 N.am      8 UNK        -0.5000 
     35 C           0.3834  -17.6331  -44.8020 C.2       7 UNK         0.5000 
     36 O           0.7534  -18.7981  -44.9480 O.2       7 UNK        -0.5000 
     37 CA          0.2235  -17.0564  -43.3861 C.3       7 UNK         0.1400 
     38 CB          1.4472  -16.2139  -43.0040 C.3       7 UNK        -0.1800 
     39 N          -0.9865  -16.2438  -43.2562 N.am      7 UNK        -0.5000 
     40 C          -2.2319  -16.7409  -43.2820 C.2       6 UNK         0.5000 
     41 O          -2.4866  -17.9387  -43.3934 O.2       6 UNK        -0.5000 
     42 CA         -3.3883  -15.7266  -43.2185 C.3       6 UNK         0.1400 
     43 CB         -3.7305  -15.3896  -41.7598 C.3       6 UNK        -0.1800 
     44 N          -3.1040  -14.4896  -43.9464 N.am      6 UNK        -0.5000 
     45 C          -2.8717  -14.4109  -45.2645 C.2       5 UNK         0.5000 
     46 O          -2.9019  -15.3803  -46.0209 O.2       5 UNK        -0.5000 
     47 CA         -2.5020  -13.0265  -45.8254 C.3       5 UNK         0.1400 
     48 CB         -3.7438  -12.3295  -46.3995 C.3       5 UNK        -0.1800 
     49 N          -1.8713  -12.1522  -44.8324 N.am      5 UNK        -0.5000 
     50 C          -0.6542  -12.3508  -44.3125 C.2       4 UNK         0.5000 
     51 O           0.0776  -13.3009  -44.6099 O.2       4 UNK        -0.5000 
     52 CA         -0.1797  -11.3281  -43.2760 C.3       4 UNK         0.1400 
     53 CB         -0.3648  -11.8703  -41.8492 C.3       4 UNK        -0.1800 
     54 N           1.2287  -11.0676  -43.5286 N.am      4 UNK        -0.5000 
     55 C           1.8772   -9.9203  -43.2990 C.2       3 UNK         0.5000 
     56 O           1.3471   -8.9311  -42.7904 O.2       3 UNK        -0.5000 
     57 CA          3.3579   -9.8646  -43.7397 C.3       3 UNK         0.1400 
     58 CB          4.2100   -8.9182  -42.8681 C.3       3 UNK        -0.1800 
     59 N           3.9817  -11.1897  -43.8610 N.am      3 UNK        -0.5000 
     60 C           4.2231  -12.0712  -42.8765 C.2       2 UNK         0.5000 
     61 O           3.9993  -11.8479  -41.6863 O.2       2 UNK        -0.5000 
     62 CA          4.7613  -13.4468  -43.3135 C.3       2 UNK         0.1400 
     63 CB          4.5285  -14.5380  -42.2534 C.3       2 UNK        -0.1800 
     64 N           4.1329  -13.8513  -44.5743 N.am      2 UNK        -0.5000 
     65 C           4.7911  -14.1055  -45.7122 C.2       1 UNK         0.5000 
     66 O           6.0194  -14.1057  -45.8053 O.2       1 UNK        -0.5000 
     67 C           0.2788  -22.8209  -47.9273 C.2       11 UNK         0.5000 
     68 O           0.5893  -23.9726  -48.2294 O.2       11 UNK        -0.5000 
     69 N          -0.6410  -22.1034  -48.5856 N.am      12 UNK        -0.5000 
     70 CA         -1.4227  -22.5944  -49.7172 C.3       12 UNK         0.1400 
     71 CB         -2.2773  -21.4559  -50.2809 C.3       12 UNK        -0.1800 
     72 C          -2.2860  -23.8156  -49.3644 C.2       12 UNK         0.5000 
     73 O          -2.2691  -24.7912  -50.1113 O.2       12 UNK        -0.5000 
     74 N          -2.9781  -23.7700  -48.2181 N.am      13 UNK        -0.5000 
     75 CA         -3.7704  -24.8819  -47.6912 C.3       13 UNK         0.1400 
     76 CB         -4.5358  -24.4267  -46.4403 C.3       13 UNK        -0.1800 
     77 C          -2.9218  -26.1339  -47.3960 C.2       13 UNK         0.5000 
     78 O          -3.3302  -27.2377  -47.7576 O.2       13 UNK        -0.5000 
     79 N          -1.7361  -25.9416  -46.7984 N.am      14 UNK        -0.5000 
     80 CA         -0.7514  -26.9982  -46.5454 C.3       14 UNK         0.1400 
     81 CB          0.3657  -26.4543  -45.6421 C.3       14 UNK        -0.1800 
     82 C          -0.1662  -27.6012  -47.8386 C.2       14 UNK         0.5000 
     83 O           0.0786  -28.8068  -47.8912 O.2       14 UNK        -0.5000 
     84 N           0.0081  -26.7626  -48.8683 N.am      15 UNK        -0.5000 
     85 CA          0.4341  -27.1443  -50.2173 C.3       15 UNK         0.1400 
     86 CB          1.0184  -25.9058  -50.9177 C.3       15 UNK        -0.1800 
     87 C          -0.6888  -27.7777  -51.0700 C.2       15 UNK         0.5000 
     88 O          -0.4176  -28.1913  -52.1982 O.2       15 UNK        -0.5000 
     89 N          -1.9159  -27.8388  -50.5310 N.am      16 UNK        -0.5000 
     90 CA         -3.1463  -28.3525  -51.1418 C.3       16 UNK         0.1400 
     91 CB         -3.0170  -29.8477  -51.5020 C.3       16 UNK        -0.1800 
     92 C          -3.6733  -27.4877  -52.3078 C.2       16 UNK         0.5000 
     93 O          -4.3906  -27.9944  -53.1731 O.2       16 UNK        -0.5000 
     94 N          -3.3476  -26.1899  -52.2901 N.am      17 UNK        -0.5000 
     95 CA         -3.9762  -25.1570  -53.1092 C.3       17 UNK         0.1400 
     96 CB         -2.9476  -24.0485  -53.3907 C.3       17 UNK        -0.1800 
     97 C          -5.2221  -24.6069  -52.3864 C.2       17 UNK         0.5000 
     98 O          -5.4601  -24.9240  -51.2174 O.2       17 UNK        -0.5000 
     99 N          -6.0050  -23.7824  -53.0904 N.am      18 UNK        -0.5000 
    100 CA        -7.3051  -23.2512  -52.6644 C.3       18 UNK         0.1400 
    101 CB        -8.0911  -22.8444  -53.9236 C.3       18 UNK        -0.1800 
    102 C         -7.2401  -22.1291  -51.5976 C.2       18 UNK         0.5000 
    103 O         -8.0031  -21.1637  -51.6762 O.2       18 UNK        -0.5000 
    104 N         -6.3583  -22.2961  -50.6014 N.am      19 UNK        -0.5000 
    105 CA        -6.1555  -21.4649  -49.4109 C.3       19 UNK         0.1400 
    106 CB        -7.2597  -21.7588  -48.3738 C.3       19 UNK        -0.1800 
    107 C         -6.0004  -19.9658  -49.7404 C.2       19 UNK         0.5000 
    108 O         -4.9391  -19.5626  -50.2110 O.2       19 UNK        -0.5000 
    109 N         -7.0556  -19.1716  -49.5051 N.am      20 UNK        -0.5000 
    110 CA        -7.1187  -17.7343  -49.7855 C.3       20 UNK         0.1400 
    111 CB        -8.4601  -17.1828  -49.2810 C.3       20 UNK        -0.1800 
    112 C         -6.9049  -17.3735  -51.2700 C.2       20 UNK         0.5000 
    113 O         -6.3722  -16.3005  -51.5581 O.2       20 UNK        -0.5000 
    114 N         -7.2676  -18.2858  -52.1827 N.am      21 UNK        -0.5000 
    115 CA        -6.8518  -18.2596  -53.5827 C.3       21 UNK         0.1400 
    116 CB        -7.9259  -18.9411  -54.4460 C.3       21 UNK        -0.1800 
    117 C         -5.4702  -18.9341  -53.6772 C.2       21 UNK         0.5000 
    118 O         -5.3734  -20.1152  -54.0159 O.2       21 UNK        -0.5000 
    119 N         -4.4459  -18.1704  -53.2784 N.am      22 UNK        -0.5000 
    120 CA        -3.0549  -18.5988  -53.0784 C.3       22 UNK         0.1400 
    121 C         -2.3966  -19.2199  -54.3423 C.2       22 UNK         0.5000 
    122 N         -1.6637  -20.3160  -54.1973 N.am      22 UNK        -0.7600 
    123 O         -2.5095  -18.6880  -55.4446 O.2       22 UNK        -0.5000 
    124 C124       -2.2027  -17.4252  -52.5173 C.3       23 UNK        -0.0398 
    125 S125       -1.0423  -17.9500  -51.2153 S.3       23 UNK        -0.2404 
    126 C126        0.5353  -17.9979  -52.1132 C.3       23 UNK        -0.0205 
    127 H127        1.0808  -10.8529  -46.4247 H         1 UNK         0.0600 
    128 H128        0.4869  -12.3006  -47.2467 H         1 UNK         0.0600 
    129 H129        1.2582  -11.0121  -48.1724 H         1 UNK         0.0600 
    130 H130        1.8364  -14.0545  -47.0701 H         1 UNK         0.3000 
    131 H131        4.5244  -14.0042  -47.8238 H         1 UNK         0.0600 
    132 H132        3.2473  -16.3147  -46.2803 H         1 UNK         0.0800 
    133 H133        2.8248  -15.9656  -47.9313 H         1 UNK         0.0800 
    134 H134        5.7125  -17.0458  -50.0957 H         1 UNK         0.0800 
    135 H135        4.5013  -15.7999  -49.9295 H         1 UNK         0.0800 
    136 H136        2.4956  -16.4115  -51.0636 H         1 UNK         0.1150 
    137 H137        1.1318  -20.4735  -51.1514 H         1 UNK         0.1150 
    138 H138        4.7573  -19.4719  -49.0941 H         1 UNK         0.1150 
    139 H139        2.2656  -22.1818  -49.9505 H         1 UNK         0.0800 
    140 H140        3.9751  -22.0003  -50.2388 H         1 UNK         0.0800 
    141 H141        1.5674  -20.3394  -47.7542 H         1 UNK         0.0800 
    142 H142        2.3430  -20.5800  -46.2222 H         1 UNK         0.0800 
    143 H143        1.4336  -22.9381  -46.1311 H         1 UNK         0.0600 
    144 H144       -0.0434  -20.5679  -45.6843 H         1 UNK         0.3000 
    145 H145       -2.9756  -22.0849  -44.2795 H         1 UNK         0.0600 
    146 H146       -1.2398  -21.9310  -42.4788 H         1 UNK         0.0600 
    147 H147       -0.7181  -20.3733  -43.1108 H         1 UNK         0.0600 
    148 H148       -2.3392  -20.5614  -42.4454 H         1 UNK         0.0600 
    149 H149       -2.3157  -19.3586  -44.7203 H         1 UNK         0.3000 
    150 H150       -3.6004  -19.1252  -48.0703 H         1 UNK         0.0600 
    151 H151       -5.5571  -18.8771  -46.5451 H         1 UNK         0.0600 
    152 H152       -4.8975  -17.3104  -46.9901 H         1 UNK         0.0600 
    153 H153       -4.5638  -17.9862  -45.3965 H         1 UNK         0.0600 
    154 H154       -2.4418  -17.1198  -46.4879 H         1 UNK         0.3000 
    155 H155        0.9817  -17.6769  -47.4656 H         1 UNK         0.0600 
    156 H156       -1.1862  -15.5877  -48.0478 H         1 UNK         0.0600 
    157 H157        0.5109  -15.1830  -47.8330 H         1 UNK         0.0600 
    158 H158        0.0222  -16.2257  -49.1513 H         1 UNK         0.0600 
    159 H159       -0.2821  -15.8921  -45.5954 H         1 UNK         0.3000 
    160 H160        0.1528  -17.8935  -42.6883 H         1 UNK         0.0600 
    161 H161        1.5660  -15.3513  -43.6597 H         1 UNK         0.0600 
    162 H162        2.3627  -16.8036  -43.0679 H         1 UNK         0.0600 
    163 H163        1.3657  -15.8488  -41.9801 H         1 UNK         0.0600 
    164 H164       -0.8610  -15.2433  -43.2020 H         1 UNK         0.3000 
    165 H165       -4.2632  -16.1914  -43.6773 H         1 UNK         0.0600 
    166 H166       -4.6015  -14.7367  -41.6997 H         1 UNK         0.0600 
    167 H167       -3.9639  -16.2933  -41.1952 H         1 UNK         0.0600 
    168 H168       -2.9014  -14.8918  -41.2552 H         1 UNK         0.0600 
    169 H169       -3.0658  -13.6403  -43.4031 H         1 UNK         0.3000 
    170 H170       -1.7928  -13.1850  -46.6405 H         1 UNK         0.0600 
    171 H171       -4.2222  -12.9485  -47.1598 H         1 UNK         0.0600 
    172 H172       -4.4860  -12.1264  -45.6265 H         1 UNK         0.0600 
    173 H173       -3.4815  -11.3826  -46.8717 H         1 UNK         0.0600 
    174 H174       -2.4073  -11.3478  -44.5390 H         1 UNK         0.3000 
    175 H175       -0.7528  -10.4061  -43.3957 H         1 UNK         0.0600 
    176 H176        0.1987  -12.7914  -41.6930 H         1 UNK         0.0600 
    177 H177       -0.0297  -11.1457  -41.1069 H         1 UNK         0.0600 
    178 H178       -1.4140  -12.0853  -41.6435 H         1 UNK         0.0600 
    179 H179        1.7186  -11.8291  -43.9747 H         1 UNK         0.3000 
    180 H180        3.3475   -9.4515  -44.7493 H         1 UNK         0.0600 
    181 H181        4.1959   -9.2080  -41.8173 H         1 UNK         0.0600 
    182 H182        3.8393   -7.8943  -42.9265 H         1 UNK         0.0600 
    183 H183        5.2483   -8.9043  -43.1996 H         1 UNK         0.0600 
    184 H184        4.1924  -11.4715  -44.8121 H         1 UNK         0.3000 
    185 H185        5.8391  -13.3277  -43.4398 H         1 UNK         0.0600 
    186 H186        5.1034  -14.3312  -41.3500 H         1 UNK         0.0600 
    187 H187        3.4801  -14.5986  -41.9638 H         1 UNK         0.0600 
    188 H188        4.8376  -15.5179  -42.6173 H         1 UNK         0.0600 
    189 H189        3.1233  -13.8506  -44.5953 H         1 UNK         0.3000 
    190 H190       -0.8108  -21.1408  -48.2986 H         1 UNK         0.3000 
    191 H191       -0.7216  -22.9046  -50.4943 H         1 UNK         0.0600 
    192 H192       -2.8498  -20.9669  -49.4948 H         1 UNK         0.0600 
    193 H193       -2.9853  -21.8049  -51.0328 H         1 UNK         0.0600 
    194 H194       -1.6471  -20.7019  -50.7470 H         1 UNK         0.0600 
    195 H195       -2.9737  -22.9127  -47.6705 H         1 UNK         0.3000 
    196 H196       -4.5025  -25.1525  -48.4553 H         1 UNK         0.0600 
    197 H197       -5.1505  -25.2349  -46.0424 H         1 UNK         0.0600 
    198 H198       -5.2009  -23.5935  -46.6672 H         1 UNK         0.0600 
    199 H199       -3.8586  -24.1067  -45.6482 H         1 UNK         0.0600 
    200 H200       -1.4847  -25.0047  -46.4958 H         1 UNK         0.3000 
    201 H201       -1.2581  -27.8024  -46.0080 H         1 UNK         0.0600 
    202 H202       -0.0343  -26.0986  -44.6924 H         1 UNK         0.0600 
    203 H203        0.8968  -25.6259  -46.1111 H         1 UNK         0.0600 
    204 H204        1.0989  -27.2297  -45.4169 H         1 UNK         0.0600 
    205 H205       -0.1532  -25.7718  -48.7142 H         1 UNK         0.3000 
    206 H206        1.2289  -27.8876  -50.1297 H         1 UNK         0.0600 
    207 H207        1.8356  -25.4736  -50.3398 H         1 UNK         0.0600 
    208 H208        1.4160  -26.1604  -51.9007 H         1 UNK         0.0600 
    209 H209        0.2641  -25.1321  -51.0601 H         1 UNK         0.0600 
    210 H210       -2.0358  -27.4386  -49.6089 H         1 UNK         0.3000 
    211 H211       -3.9059  -28.2768  -50.3627 H         1 UNK         0.0600 
    212 H212       -2.3417  -30.0075  -52.3427 H         1 UNK         0.0600 
    213 H213       -3.9846  -30.2672  -51.7794 H         1 UNK         0.0600 
    214 H214       -2.6453  -30.4264  -50.6563 H         1 UNK         0.0600 
    215 H215       -2.8265  -25.8407  -51.4875 H         1 UNK         0.3000 
    216 H216       -4.2956  -25.5824  -54.0628 H         1 UNK         0.0600 
    217 H217       -3.3714  -23.2574  -54.0106 H         1 UNK         0.0600 
    218 H218       -2.0823  -24.4456  -53.9216 H         1 UNK         0.0600 
    219 H219       -2.5871  -23.5877  -52.4734 H         1 UNK         0.0600 
    220 H220       -5.7133  -23.5182  -54.0204 H         1 UNK         0.3000 
    221 H221       -7.8588  -24.0670  -52.1952 H         1 UNK         0.0600 
    222 H222       -7.5520  -22.0956  -54.5036 H         1 UNK         0.0600 
    223 H223       -8.2614  -23.7041  -54.5719 H         1 UNK         0.0600 
    224 H224       -9.0710  -22.4355  -53.6738 H         1 UNK         0.0600 
    225 H225       -5.8084  -23.1495  -50.6385 H         1 UNK         0.3000 
    226 H226       -5.2070  -21.7816  -48.9759 H         1 UNK         0.0600 
    227 H227       -7.2382  -22.8066  -48.0740 H         1 UNK         0.0600 
    228 H228       -7.1179  -21.1652  -47.4695 H         1 UNK         0.0600 
    229 H229       -8.2574  -21.5506  -48.7618 H         1 UNK         0.0600 
    230 H230       -7.9009  -19.5975  -49.1545 H         1 UNK         0.3000 
    231 H231       -6.3173  -17.2564  -49.2185 H         1 UNK         0.0600 
    232 H232       -8.5294  -16.1076  -49.4514 H         1 UNK         0.0600 
    233 H233       -8.5777  -17.3488  -48.2099 H         1 UNK         0.0600 
    234 H234       -9.3036  -17.6512  -49.7897 H         1 UNK         0.0600 
    235 H235       -7.6362  -19.1737  -51.8541 H         1 UNK         0.3000 
    236 H236       -6.7549  -17.2295  -53.9325 H         1 UNK         0.0600 
    237 H237       -8.8494  -18.3623  -54.4465 H         1 UNK         0.0600 
    238 H238       -7.5973  -19.0336  -55.4818 H         1 UNK         0.0600 
    239 H239       -8.1645  -19.9383  -54.0822 H         1 UNK         0.0600 
    240 H240       -4.6587  -17.2271  -52.9863 H         1 UNK         0.3000 
    241 H241       -3.1163  -19.3806  -52.3193 H         1 UNK         0.0600 
    242 H242       -1.5468  -20.7566  -53.3003 H         1 UNK         0.3800 
    243 H243       -1.2226  -20.7174  -55.0098 H         1 UNK         0.3800 
    244 H244       -1.6761  -16.8830  -53.3051 H         1 UNK         0.0800 
    245 H245       -2.8458  -16.6818  -52.0437 H         1 UNK         0.0800 
    246 H246        0.4616  -18.7052  -52.9402 H         1 UNK         0.0800 
    247 H247        0.7250  -17.0202  -52.5588 H         1 UNK         0.0800 
@<TRIPOS>BOND
     1    1    2 1    
     2    1  127 1    
     3    1  128 1    
     4    1  129 1    
     5    2    3 2    
     6    2    4 am   BACKBONE|DICT|INTERRES
     7    4    5 1    
     8    4  130 1    
     9    5    6 1    
    10    5   65 1    
    11    5  131 1    
    12    6    7 1    
    13    6  132 1    
    14    6  133 1    
    15    7    8 1    
    16    8    9 1    
    17    8  134 1    
    18    8  135 1    
    19    9   10 ar   
    20    9   14 ar   
    21   10   11 ar   
    22   10  136 1    
    23   11   12 ar   
    24   11  126 1    
    25   12   13 ar   
    26   12  137 1    
    27   13   14 ar   
    28   13   15 1    
    29   14  138 1    
    30   15   16 1    
    31   15  139 1    
    32   15  140 1    
    33   16   17 1    
    34   17   18 1    
    35   17  141 1    
    36   17  142 1    
    37   18   19 1    
    38   18   67 1    
    39   18  143 1    
    40   19   20 am   BACKBONE|DICT|INTERRES
    41   19  144 1    
    42   20   21 2    
    43   20   22 1    
    44   22   23 1    
    45   22   24 1    
    46   22  145 1    
    47   23  146 1    
    48   23  147 1    
    49   23  148 1    
    50   24   25 am   BACKBONE|DICT|INTERRES
    51   24  149 1    
    52   25   26 2    
    53   25   27 1    
    54   27   28 1    
    55   27   29 1    
    56   27  150 1    
    57   28  151 1    
    58   28  152 1    
    59   28  153 1    
    60   29   30 am   BACKBONE|DICT|INTERRES
    61   29  154 1    
    62   30   31 2    
    63   30   32 1    
    64   32   33 1    
    65   32   34 1    
    66   32  155 1    
    67   33  156 1    
    68   33  157 1    
    69   33  158 1    
    70   34   35 am   BACKBONE|DICT|INTERRES
    71   34  159 1    
    72   35   36 2    
    73   35   37 1    
    74   37   38 1    
    75   37   39 1    
    76   37  160 1    
    77   38  161 1    
    78   38  162 1    
    79   38  163 1    
    80   39   40 am   BACKBONE|DICT|INTERRES
    81   39  164 1    
    82   40   41 2    
    83   40   42 1    
    84   42   43 1    
    85   42   44 1    
    86   42  165 1    
    87   43  166 1    
    88   43  167 1    
    89   43  168 1    
    90   44   45 am   BACKBONE|DICT|INTERRES
    91   44  169 1    
    92   45   46 2    
    93   45   47 1    
    94   47   48 1    
    95   47   49 1    
    96   47  170 1    
    97   48  171 1    
    98   48  172 1    
    99   48  173 1    
   100   49   50 am   BACKBONE|DICT|INTERRES
   101   49  174 1    
   102   50   51 2    
   103   50   52 1    
   104   52   53 1    
   105   52   54 1    
   106   52  175 1    
   107   53  176 1    
   108   53  177 1    
   109   53  178 1    
   110   54   55 am   BACKBONE|DICT|INTERRES
   111   54  179 1    
   112   55   56 2    
   113   55   57 1    
   114   57   58 1    
   115   57   59 1    
   116   57  180 1    
   117   58  181 1    
   118   58  182 1    
   119   58  183 1    
   120   59   60 am   BACKBONE|DICT|INTERRES
   121   59  184 1    
   122   60   61 2    
   123   60   62 1    
   124   62   63 1    
   125   62   64 1    
   126   62  185 1    
   127   63  186 1    
   128   63  187 1    
   129   63  188 1    
   130   64   65 am   BACKBONE|DICT|INTERRES
   131   64  189 1    
   132   65   66 2    
   133   67   68 2    
   134   67   69 am   BACKBONE|DICT|INTERRES
   135   69   70 1    
   136   69  190 1    
   137   70   71 1    
   138   70   72 1    
   139   70  191 1    
   140   71  192 1    
   141   71  193 1    
   142   71  194 1    
   143   72   73 2    
   144   72   74 am   BACKBONE|DICT|INTERRES
   145   74   75 1    
   146   74  195 1    
   147   75   76 1    
   148   75   77 1    
   149   75  196 1    
   150   76  197 1    
   151   76  198 1    
   152   76  199 1    
   153   77   78 2    
   154   77   79 am   BACKBONE|DICT|INTERRES
   155   79   80 1    
   156   79  200 1    
   157   80   81 1    
   158   80   82 1    
   159   80  201 1    
   160   81  202 1    
   161   81  203 1    
   162   81  204 1    
   163   82   83 2    
   164   82   84 am   BACKBONE|DICT|INTERRES
   165   84   85 1    
   166   84  205 1    
   167   85   86 1    
   168   85   87 1    
   169   85  206 1    
   170   86  207 1    
   171   86  208 1    
   172   86  209 1    
   173   87   88 2    
   174   87   89 am   BACKBONE|DICT|INTERRES
   175   89   90 1    
   176   89  210 1    
   177   90   91 1    
   178   90   92 1    
   179   90  211 1    
   180   91  212 1    
   181   91  213 1    
   182   91  214 1    
   183   92   93 2    
   184   92   94 am   BACKBONE|DICT|INTERRES
   185   94   95 1    
   186   94  215 1    
   187   95   96 1    
   188   95   97 1    
   189   95  216 1    
   190   96  217 1    
   191   96  218 1    
   192   96  219 1    
   193   97   98 2    
   194   97   99 am   BACKBONE|DICT|INTERRES
   195   99  100 1    
   196   99  220 1    
   197  100  101 1    
   198  100  102 1    
   199  100  221 1    
   200  101  222 1    
   201  101  223 1    
   202  101  224 1    
   203  102  103 2    
   204  102  104 am   BACKBONE|DICT|INTERRES
   205  104  105 1    
   206  104  225 1    
   207  105  106 1    
   208  105  107 1    
   209  105  226 1    
   210  106  227 1    
   211  106  228 1    
   212  106  229 1    
   213  107  108 2    
   214  107  109 am   BACKBONE|DICT|INTERRES
   215  109  110 1    
   216  109  230 1    
   217  110  111 1    
   218  110  112 1    
   219  110  231 1    
   220  111  232 1    
   221  111  233 1    
   222  111  234 1    
   223  112  113 2    
   224  112  114 am   BACKBONE|DICT|INTERRES
   225  114  115 1    
   226  114  235 1    
   227  115  116 1    
   228  115  117 1    
   229  115  236 1    
   230  116  237 1    
   231  116  238 1    
   232  116  239 1    
   233  117  118 2    
   234  117  119 am   BACKBONE|DICT|INTERRES
   235  119  120 1    
   236  119  240 1    
   237  120  121 1    
   238  120  124 1    
   239  120  241 1    
   240  121  122 am   BACKBONE|DICT|INTERRES
   241  121  123 2    
   242  122  242 1    
   243  122  243 1    
   244  124  125 1    
   245  124  244 1    
   246  124  245 1    
   247  125  126 1    
   248  126  246 1    
   249  126  247 1    
@<TRIPOS>SUBSTRUCTURE
     1 UNK         1 GROUP             0       ****    0 ROOT    
