@<TRIPOS>MOLECULE
3R540
247   249    1
SMALL
USER_CHARGES


@<TRIPOS>ATOM
      1 CA         -3.5112  -16.3875  -46.9637 C.3       0 UNK        -0.1800 
      2 C          -2.4794  -15.6470  -47.8038 C.2       0 UNK         0.5000 
      3 O          -2.8455  -14.9084  -48.7181 O.2       0 UNK        -0.5000 
      4 N          -1.1910  -15.8452  -47.4956 N.am      1 UNK        -0.5000 
      5 CA         -0.0672  -15.1684  -48.1460 C.3       1 UNK         0.1400 
      6 C6          1.2753  -15.8795  -47.8351 C.3       23 UNK        -0.0398 
      7 S7          2.5865  -15.4218  -49.0186 S.3       23 UNK        -0.2404 
      8 C8          3.9083  -16.6152  -48.6234 C.3       23 UNK        -0.0205 
      9 C9          3.6258  -18.0564  -49.0453 C.ar      23 UNK        -0.0193 
     10 C10         2.9777  -18.3520  -50.2506 C.ar      23 UNK        -0.1150 
     11 C11         2.7997  -19.6764  -50.6615 C.ar      23 UNK        -0.0193 
     12 C12         3.2935  -20.7134  -49.8648 C.ar      23 UNK        -0.1150 
     13 C13         3.9617  -20.4370  -48.6681 C.ar      23 UNK        -0.0193 
     14 C14         4.1077  -19.1076  -48.2577 C.ar      23 UNK        -0.1150 
     15 C15         4.6113  -21.5603  -47.8652 C.3       23 UNK        -0.0205 
     16 S16         3.4742  -22.9195  -47.4438 S.3       23 UNK        -0.2404 
     17 C17         2.4219  -22.1126  -46.1954 C.3       23 UNK        -0.0398 
     18 CA          0.9714  -22.6475  -46.1804 C.3       11 UNK         0.1400 
     19 N           0.2451  -22.1845  -44.9973 N.am      11 UNK        -0.5000 
     20 C          -0.9726  -22.6007  -44.6234 C.2       10 UNK         0.5000 
     21 O          -1.6016  -23.4872  -45.2003 O.2       10 UNK        -0.5000 
     22 CA         -1.6127  -21.8732  -43.4260 C.3       10 UNK         0.1400 
     23 CB         -1.1160  -22.4664  -42.0993 C.3       10 UNK        -0.1800 
     24 N          -1.3687  -20.4288  -43.4424 N.am      10 UNK        -0.5000 
     25 C          -1.8066  -19.5980  -44.3999 C.2       9 UNK         0.5000 
     26 O          -2.4994  -19.9541  -45.3513 O.2       9 UNK        -0.5000 
     27 CA         -1.3449  -18.1340  -44.3204 C.3       9 UNK         0.1400 
     28 CB         -2.1534  -17.3457  -43.2804 C.3       9 UNK        -0.1800 
     29 N           0.0823  -18.0148  -44.0357 N.am      9 UNK        -0.5000 
     30 C           1.0614  -18.4548  -44.8370 C.2       8 UNK         0.5000 
     31 O           0.8652  -18.9405  -45.9500 O.2       8 UNK        -0.5000 
     32 CA          2.4932  -18.3815  -44.2800 C.3       8 UNK         0.1400 
     33 CB          3.0920  -16.9818  -44.4727 C.3       8 UNK        -0.1800 
     34 N           2.5475  -18.7436  -42.8641 N.am      8 UNK        -0.5000 
     35 C           2.3435  -19.9809  -42.3918 C.2       7 UNK         0.5000 
     36 O           2.1070  -20.9537  -43.1066 O.2       7 UNK        -0.5000 
     37 CA          2.3712  -20.1496  -40.8624 C.3       7 UNK         0.1400 
     38 CB          3.8149  -20.2977  -40.3597 C.3       7 UNK        -0.1800 
     39 N           1.7251  -19.0366  -40.1658 N.am      7 UNK        -0.5000 
     40 C           0.4115  -18.7756  -40.2186 C.2       6 UNK         0.5000 
     41 O          -0.3990  -19.4637  -40.8388 O.2       6 UNK        -0.5000 
     42 CA         -0.0644  -17.4987  -39.5011 C.3       6 UNK         0.1400 
     43 CB         -0.2759  -17.7651  -38.0033 C.3       6 UNK        -0.1800 
     44 N           0.8435  -16.3586  -39.6726 N.am      6 UNK        -0.5000 
     45 C           1.1536  -15.8124  -40.8553 C.2       5 UNK         0.5000 
     46 O           0.7605  -16.2581  -41.9350 O.2       5 UNK        -0.5000 
     47 CA          2.0915  -14.5940  -40.8403 C.3       5 UNK         0.1400 
     48 CB          3.5555  -15.0412  -40.9711 C.3       5 UNK        -0.1800 
     49 N           1.7706  -13.6883  -41.9424 N.am      5 UNK        -0.5000 
     50 C           0.6988  -12.8867  -41.9789 C.2       4 UNK         0.5000 
     51 O          -0.0722  -12.7553  -41.0262 O.2       4 UNK        -0.5000 
     52 CA          0.4055  -12.1247  -43.2904 C.3       4 UNK         0.1400 
     53 CB          0.1312  -10.6282  -43.0362 C.3       4 UNK        -0.1800 
     54 N           1.3907  -12.2936  -44.3676 N.am      4 UNK        -0.5000 
     55 C           2.6656  -11.8708  -44.4040 C.2       3 UNK         0.5000 
     56 O           3.2480  -11.3591  -43.4481 O.2       3 UNK        -0.5000 
     57 CA          3.4236  -12.0460  -45.7384 C.3       3 UNK         0.1400 
     58 CB          4.2504  -13.3415  -45.7143 C.3       3 UNK        -0.1800 
     59 N           2.5462  -12.0739  -46.9105 N.am      3 UNK        -0.5000 
     60 C           1.7484  -11.0744  -47.3165 C.2       2 UNK         0.5000 
     61 O           1.7673   -9.9448  -46.8267 O.2       2 UNK        -0.5000 
     62 CA          0.7327  -11.3976  -48.4344 C.3       2 UNK         0.1400 
     63 CB          1.1856  -10.7803  -49.7664 C.3       2 UNK        -0.1800 
     64 N           0.4898  -12.8312  -48.6379 N.am      2 UNK        -0.5000 
     65 C          -0.0107  -13.6818  -47.7305 C.2       1 UNK         0.5000 
     66 O          -0.3396  -13.3480  -46.5886 O.2       1 UNK        -0.5000 
     67 C           0.2066  -22.3113  -47.4772 C.2       11 UNK         0.5000 
     68 O          -0.0535  -23.2103  -48.2772 O.2       11 UNK        -0.5000 
     69 N          -0.1938  -21.0426  -47.6344 N.am      12 UNK        -0.5000 
     70 CA         -0.9727  -20.5641  -48.7760 C.3       12 UNK         0.1400 
     71 CB         -1.0823  -19.0376  -48.7158 C.3       12 UNK        -0.1800 
     72 C          -2.3631  -21.2136  -48.8853 C.2       12 UNK         0.5000 
     73 O          -2.8024  -21.5119  -49.9921 O.2       12 UNK        -0.5000 
     74 N          -3.0170  -21.4609  -47.7422 N.am      13 UNK        -0.5000 
     75 CA         -4.2941  -22.1713  -47.6577 C.3       13 UNK         0.1400 
     76 CB         -4.8653  -22.0288  -46.2395 C.3       13 UNK        -0.1800 
     77 C          -4.2061  -23.6571  -48.0605 C.2       13 UNK         0.5000 
     78 O          -5.2211  -24.2274  -48.4594 O.2       13 UNK        -0.5000 
     79 N          -3.0151  -24.2601  -47.9561 N.am      14 UNK        -0.5000 
     80 CA         -2.7399  -25.6132  -48.4303 C.3       14 UNK         0.1400 
     81 CB         -1.6379  -26.2493  -47.5681 C.3       14 UNK        -0.1800 
     82 C          -2.3505  -25.6077  -49.9184 C.2       14 UNK         0.5000 
     83 O          -2.9062  -26.3890  -50.6917 O.2       14 UNK        -0.5000 
     84 N          -1.4083  -24.7299  -50.2906 N.am      15 UNK        -0.5000 
     85 CA         -0.8350  -24.5873  -51.6298 C.3       15 UNK         0.1400 
     86 CB          0.3013  -23.5535  -51.5747 C.3       15 UNK        -0.1800 
     87 C          -1.8883  -24.2257  -52.6972 C.2       15 UNK         0.5000 
     88 O          -2.3109  -23.0730  -52.7840 O.2       15 UNK        -0.5000 
     89 N          -2.3038  -25.2389  -53.4723 N.am      16 UNK        -0.5000 
     90 CA         -3.3645  -25.2074  -54.4903 C.3       16 UNK         0.1400 
     91 CB         -3.0112  -24.2316  -55.6341 C.3       16 UNK        -0.1800 
     92 C          -4.7782  -24.9615  -53.9133 C.2       16 UNK         0.5000 
     93 O          -5.6850  -24.6088  -54.6689 O.2       16 UNK        -0.5000 
     94 N          -4.9381  -25.1851  -52.5991 N.am      17 UNK        -0.5000 
     95 CA         -6.1105  -24.9286  -51.7568 C.3       17 UNK         0.1400 
     96 CB         -7.3452  -25.7045  -52.2586 C.3       17 UNK        -0.1800 
     97 C          -6.4297  -23.4292  -51.5825 C.2       17 UNK         0.5000 
     98 O          -6.0419  -22.5894  -52.3971 O.2       17 UNK        -0.5000 
     99 N          -7.1859  -23.1164  -50.5225 N.am      18 UNK        -0.5000 
    100 CA        -7.5905  -21.7613  -50.1310 C.3       18 UNK         0.1400 
    101 CB        -8.2629  -21.8250  -48.7515 C.3       18 UNK        -0.1800 
    102 C         -8.4988  -21.0410  -51.1491 C.2       18 UNK         0.5000 
    103 O         -8.6314  -19.8195  -51.0780 O.2       18 UNK        -0.5000 
    104 N         -9.0853  -21.7963  -52.0886 N.am      19 UNK        -0.5000 
    105 CA        -9.8151  -21.2770  -53.2452 C.3       19 UNK         0.1400 
    106 CB       -10.5201  -22.4414  -53.9576 C.3       19 UNK        -0.1800 
    107 C         -8.9059  -20.5109  -54.2280 C.2       19 UNK         0.5000 
    108 O         -9.3570  -19.5340  -54.8274 O.2       19 UNK        -0.5000 
    109 N         -7.6473  -20.9534  -54.3604 N.am      20 UNK        -0.5000 
    110 CA        -6.6078  -20.2743  -55.1332 C.3       20 UNK         0.1400 
    111 CB        -5.7557  -21.3202  -55.8681 C.3       20 UNK        -0.1800 
    112 C         -5.7158  -19.4169  -54.2214 C.2       20 UNK         0.5000 
    113 O         -5.2893  -18.3376  -54.6354 O.2       20 UNK        -0.5000 
    114 N         -5.4283  -19.9276  -53.0128 N.am      21 UNK        -0.5000 
    115 CA        -4.5610  -19.3507  -51.9785 C.3       21 UNK         0.1400 
    116 CB        -5.2423  -18.1335  -51.3208 C.3       21 UNK        -0.1800 
    117 C         -3.1395  -19.0408  -52.4997 C.2       21 UNK         0.5000 
    118 O         -2.5735  -18.0015  -52.1588 O.2       21 UNK        -0.5000 
    119 N         -2.6445  -19.9231  -53.3810 N.am      22 UNK        -0.5000 
    120 CA        -1.4504  -19.7909  -54.2339 C.3       22 UNK         0.1400 
    121 C         -1.3113  -18.4707  -55.0570 C.2       22 UNK         0.5000 
    122 N         -2.3906  -17.7465  -55.3332 N.am      22 UNK        -0.7600 
    123 O         -0.2217  -18.1176  -55.5005 O.2       22 UNK        -0.5000 
    124 C124       -0.1397  -20.2956  -53.5692 C.3       23 UNK        -0.0398 
    125 S125        0.4205  -19.4035  -52.0810 S.3       23 UNK        -0.2404 
    126 C126        2.1405  -19.9881  -51.9979 C.3       23 UNK        -0.0205 
    127 H127       -4.5221  -16.1385  -47.2878 H         1 UNK         0.0600 
    128 H128       -3.4177  -16.1117  -45.9133 H         1 UNK         0.0600 
    129 H129       -3.3863  -17.4664  -47.0548 H         1 UNK         0.0600 
    130 H130       -0.9511  -16.4339  -46.7135 H         1 UNK         0.3000 
    131 H131       -0.2433  -15.2209  -49.2231 H         1 UNK         0.0600 
    132 H132        1.1518  -16.9608  -47.8881 H         1 UNK         0.0800 
    133 H133        1.6064  -15.6630  -46.8191 H         1 UNK         0.0800 
    134 H134        4.8155  -16.2925  -49.1352 H         1 UNK         0.0800 
    135 H135        4.1302  -16.5585  -47.5585 H         1 UNK         0.0800 
    136 H136        2.6249  -17.5521  -50.8858 H         1 UNK         0.1150 
    137 H137        3.1890  -21.7389  -50.1907 H         1 UNK         0.1150 
    138 H138        4.6412  -18.8869  -47.3439 H         1 UNK         0.1150 
    139 H139        5.4338  -21.9688  -48.4536 H         1 UNK         0.0800 
    140 H140        5.0567  -21.1765  -46.9460 H         1 UNK         0.0800 
    141 H141        2.4323  -21.0326  -46.3437 H         1 UNK         0.0800 
    142 H142        2.8915  -22.2895  -45.2274 H         1 UNK         0.0800 
    143 H143        1.0202  -23.7362  -46.1076 H         1 UNK         0.0600 
    144 H144        0.7185  -21.4964  -44.4207 H         1 UNK         0.3000 
    145 H145       -2.6919  -22.0279  -43.4832 H         1 UNK         0.0600 
    146 H146       -1.6273  -22.0133  -41.2498 H         1 UNK         0.0600 
    147 H147       -1.3028  -23.5401  -42.0569 H         1 UNK         0.0600 
    148 H148       -0.0450  -22.3129  -41.9649 H         1 UNK         0.0600 
    149 H149       -0.8416  -20.0474  -42.6622 H         1 UNK         0.3000 
    150 H150       -1.5222  -17.6846  -45.2969 H         1 UNK         0.0600 
    151 H151       -3.2217  -17.3999  -43.4932 H         1 UNK         0.0600 
    152 H152       -1.8731  -16.2921  -43.2810 H         1 UNK         0.0600 
    153 H153       -1.9985  -17.7308  -42.2725 H         1 UNK         0.0600 
    154 H154        0.3357  -17.5604  -43.1608 H         1 UNK         0.3000 
    155 H155        3.1073  -19.0923  -44.8370 H         1 UNK         0.0600 
    156 H156        2.4848  -16.2073  -44.0036 H         1 UNK         0.0600 
    157 H157        3.1671  -16.7431  -45.5305 H         1 UNK         0.0600 
    158 H158        4.0987  -16.9205  -44.0592 H         1 UNK         0.0600 
    159 H159        2.6785  -17.9907  -42.2061 H         1 UNK         0.3000 
    160 H160        1.8291  -21.0657  -40.6185 H         1 UNK         0.0600 
    161 H161        4.4046  -19.4005  -40.5519 H         1 UNK         0.0600 
    162 H162        4.3156  -21.1319  -40.8530 H         1 UNK         0.0600 
    163 H163        3.8404  -20.4933  -39.2875 H         1 UNK         0.0600 
    164 H164        2.3200  -18.4179  -39.6349 H         1 UNK         0.3000 
    165 H165       -1.0273  -17.2208  -39.9348 H         1 UNK         0.0600 
    166 H166       -0.7072  -16.8966  -37.5053 H         1 UNK         0.0600 
    167 H167       -0.9610  -18.5998  -37.8484 H         1 UNK         0.0600 
    168 H168        0.6601  -18.0109  -37.5003 H         1 UNK         0.0600 
    169 H169        1.2137  -15.9466  -38.8281 H         1 UNK         0.3000 
    170 H170        1.9695  -14.0602  -39.8955 H         1 UNK         0.0600 
    171 H171        3.8380  -15.7037  -40.1520 H         1 UNK         0.0600 
    172 H172        3.7353  -15.5765  -41.9034 H         1 UNK         0.0600 
    173 H173        4.2308  -14.1858  -40.9428 H         1 UNK         0.0600 
    174 H174        2.3421  -13.7536  -42.7701 H         1 UNK         0.3000 
    175 H175       -0.5170  -12.5603  -43.6772 H         1 UNK         0.0600 
    176 H176        0.9909  -10.1284  -42.5893 H         1 UNK         0.0600 
    177 H177       -0.1137  -10.1100  -43.9636 H         1 UNK         0.0600 
    178 H178       -0.7124  -10.4925  -42.3585 H         1 UNK         0.0600 
    179 H179        1.0068  -12.7057  -45.2123 H         1 UNK         0.3000 
    180 H180        4.1047  -11.1995  -45.8467 H         1 UNK         0.0600 
    181 H181        3.6136  -14.2230  -45.6358 H         1 UNK         0.0600 
    182 H182        4.9355  -13.3541  -44.8655 H         1 UNK         0.0600 
    183 H183        4.8521  -13.4433  -46.6177 H         1 UNK         0.0600 
    184 H184        2.4825  -12.9521  -47.4033 H         1 UNK         0.3000 
    185 H185       -0.2162  -10.9399  -48.1480 H         1 UNK         0.0600 
    186 H186        1.3460   -9.7059  -49.6663 H         1 UNK         0.0600 
    187 H187        2.1205  -11.2206  -50.1157 H         1 UNK         0.0600 
    188 H188        0.4348  -10.9230  -50.5439 H         1 UNK         0.0600 
    189 H189        0.7653  -13.1982  -49.5380 H         1 UNK         0.3000 
    190 H190        0.0765  -20.3462  -46.9444 H         1 UNK         0.3000 
    191 H191       -0.4220  -20.8277  -49.6794 H         1 UNK         0.0600 
    192 H192       -0.1051  -18.5796  -48.8601 H         1 UNK         0.0600 
    193 H193       -1.7361  -18.6536  -49.5000 H         1 UNK         0.0600 
    194 H194       -1.4771  -18.7066  -47.7564 H         1 UNK         0.0600 
    195 H195       -2.6276  -21.1188  -46.8676 H         1 UNK         0.3000 
    196 H196       -4.9868  -21.6902  -48.3502 H         1 UNK         0.0600 
    197 H197       -5.8264  -22.5365  -46.1499 H         1 UNK         0.0600 
    198 H198       -5.0264  -20.9817  -45.9826 H         1 UNK         0.0600 
    199 H199       -4.1964  -22.4586  -45.4938 H         1 UNK         0.0600 
    200 H200       -2.2287  -23.7301  -47.6022 H         1 UNK         0.3000 
    201 H201       -3.6366  -26.2269  -48.3202 H         1 UNK         0.0600 
    202 H202       -1.9345  -26.2877  -46.5197 H         1 UNK         0.0600 
    203 H203       -0.7003  -25.6967  -47.6264 H         1 UNK         0.0600 
    204 H204       -1.4359  -27.2722  -47.8878 H         1 UNK         0.0600 
    205 H205       -1.0107  -24.1224  -49.5777 H         1 UNK         0.3000 
    206 H206       -0.3893  -25.5473  -51.8974 H         1 UNK         0.0600 
    207 H207        1.0842  -23.8629  -50.8819 H         1 UNK         0.0600 
    208 H208        0.7646  -23.4270  -52.5536 H         1 UNK         0.0600 
    209 H209       -0.0621  -22.5791  -51.2480 H         1 UNK         0.0600 
    210 H210       -1.9184  -26.1555  -53.2898 H         1 UNK         0.3000 
    211 H211       -3.3938  -26.2101  -54.9186 H         1 UNK         0.0600 
    212 H212       -3.0381  -23.1923  -55.3067 H         1 UNK         0.0600 
    213 H213       -3.7148  -24.3275  -56.4619 H         1 UNK         0.0600 
    214 H214       -2.0164  -24.4327  -56.0313 H         1 UNK         0.0600 
    215 H215       -4.1177  -25.4928  -52.0877 H         1 UNK         0.3000 
    216 H216       -5.8475  -25.3220  -50.7747 H         1 UNK         0.0600 
    217 H217       -8.1573  -25.6588  -51.5324 H         1 UNK         0.0600 
    218 H218       -7.1125  -26.7578  -52.4152 H         1 UNK         0.0600 
    219 H219       -7.7295  -25.3024  -53.1964 H         1 UNK         0.0600 
    220 H220       -7.4430  -23.8551  -49.8828 H         1 UNK         0.3000 
    221 H221       -6.6828  -21.1614  -50.0407 H         1 UNK         0.0600 
    222 H222       -9.1752  -22.4222  -48.7775 H         1 UNK         0.0600 
    223 H223       -7.5971  -22.2613  -48.0069 H         1 UNK         0.0600 
    224 H224       -8.5321  -20.8281  -48.3999 H         1 UNK         0.0600 
    225 H225       -8.9344  -22.7933  -52.0562 H         1 UNK         0.3000 
    226 H226      -10.5766  -20.5829  -52.8834 H         1 UNK         0.0600 
    227 H227      -11.2188  -22.9471  -53.2909 H         1 UNK         0.0600 
    228 H228      -11.0913  -22.0849  -54.8158 H         1 UNK         0.0600 
    229 H229       -9.8069  -23.1819  -54.3224 H         1 UNK         0.0600 
    230 H230       -7.3448  -21.7461  -53.8060 H         1 UNK         0.3000 
    231 H231       -7.0573  -19.6189  -55.8821 H         1 UNK         0.0600 
    232 H232       -6.3670  -21.9363  -56.5275 H         1 UNK         0.0600 
    233 H233       -5.2459  -21.9839  -55.1694 H         1 UNK         0.0600 
    234 H234       -4.9918  -20.8414  -56.4819 H         1 UNK         0.0600 
    235 H235       -5.7573  -20.8696  -52.8079 H         1 UNK         0.3000 
    236 H236       -4.4606  -20.1185  -51.2145 H         1 UNK         0.0600 
    237 H237       -4.6589  -17.7689  -50.4743 H         1 UNK         0.0600 
    238 H238       -5.3552  -17.3069  -52.0229 H         1 UNK         0.0600 
    239 H239       -6.2318  -18.3913  -50.9443 H         1 UNK         0.0600 
    240 H240       -3.1740  -20.7718  -53.5239 H         1 UNK         0.3000 
    241 H241       -1.6465  -20.5182  -55.0225 H         1 UNK         0.0600 
    242 H242       -2.2913  -16.9049  -55.8777 H         1 UNK         0.3800 
    243 H243       -3.3056  -18.0087  -54.9828 H         1 UNK         0.3800 
    244 H244       -0.2763  -21.3383  -53.2887 H         1 UNK         0.0800 
    245 H245        0.6703  -20.3008  -54.3003 H         1 UNK         0.0800 
    246 H246        2.1585  -21.0626  -52.1863 H         1 UNK         0.0800 
    247 H247        2.7164  -19.5228  -52.7989 H         1 UNK         0.0800 
@<TRIPOS>BOND
     1    1    2 1    
     2    1  127 1    
     3    1  128 1    
     4    1  129 1    
     5    2    3 2    
     6    2    4 am   BACKBONE|DICT|INTERRES
     7    4    5 1    
     8    4  130 1    
     9    5    6 1    
    10    5   65 1    
    11    5  131 1    
    12    6    7 1    
    13    6  132 1    
    14    6  133 1    
    15    7    8 1    
    16    8    9 1    
    17    8  134 1    
    18    8  135 1    
    19    9   10 ar   
    20    9   14 ar   
    21   10   11 ar   
    22   10  136 1    
    23   11   12 ar   
    24   11  126 1    
    25   12   13 ar   
    26   12  137 1    
    27   13   14 ar   
    28   13   15 1    
    29   14  138 1    
    30   15   16 1    
    31   15  139 1    
    32   15  140 1    
    33   16   17 1    
    34   17   18 1    
    35   17  141 1    
    36   17  142 1    
    37   18   19 1    
    38   18   67 1    
    39   18  143 1    
    40   19   20 am   BACKBONE|DICT|INTERRES
    41   19  144 1    
    42   20   21 2    
    43   20   22 1    
    44   22   23 1    
    45   22   24 1    
    46   22  145 1    
    47   23  146 1    
    48   23  147 1    
    49   23  148 1    
    50   24   25 am   BACKBONE|DICT|INTERRES
    51   24  149 1    
    52   25   26 2    
    53   25   27 1    
    54   27   28 1    
    55   27   29 1    
    56   27  150 1    
    57   28  151 1    
    58   28  152 1    
    59   28  153 1    
    60   29   30 am   BACKBONE|DICT|INTERRES
    61   29  154 1    
    62   30   31 2    
    63   30   32 1    
    64   32   33 1    
    65   32   34 1    
    66   32  155 1    
    67   33  156 1    
    68   33  157 1    
    69   33  158 1    
    70   34   35 am   BACKBONE|DICT|INTERRES
    71   34  159 1    
    72   35   36 2    
    73   35   37 1    
    74   37   38 1    
    75   37   39 1    
    76   37  160 1    
    77   38  161 1    
    78   38  162 1    
    79   38  163 1    
    80   39   40 am   BACKBONE|DICT|INTERRES
    81   39  164 1    
    82   40   41 2    
    83   40   42 1    
    84   42   43 1    
    85   42   44 1    
    86   42  165 1    
    87   43  166 1    
    88   43  167 1    
    89   43  168 1    
    90   44   45 am   BACKBONE|DICT|INTERRES
    91   44  169 1    
    92   45   46 2    
    93   45   47 1    
    94   47   48 1    
    95   47   49 1    
    96   47  170 1    
    97   48  171 1    
    98   48  172 1    
    99   48  173 1    
   100   49   50 am   BACKBONE|DICT|INTERRES
   101   49  174 1    
   102   50   51 2    
   103   50   52 1    
   104   52   53 1    
   105   52   54 1    
   106   52  175 1    
   107   53  176 1    
   108   53  177 1    
   109   53  178 1    
   110   54   55 am   BACKBONE|DICT|INTERRES
   111   54  179 1    
   112   55   56 2    
   113   55   57 1    
   114   57   58 1    
   115   57   59 1    
   116   57  180 1    
   117   58  181 1    
   118   58  182 1    
   119   58  183 1    
   120   59   60 am   BACKBONE|DICT|INTERRES
   121   59  184 1    
   122   60   61 2    
   123   60   62 1    
   124   62   63 1    
   125   62   64 1    
   126   62  185 1    
   127   63  186 1    
   128   63  187 1    
   129   63  188 1    
   130   64   65 am   BACKBONE|DICT|INTERRES
   131   64  189 1    
   132   65   66 2    
   133   67   68 2    
   134   67   69 am   BACKBONE|DICT|INTERRES
   135   69   70 1    
   136   69  190 1    
   137   70   71 1    
   138   70   72 1    
   139   70  191 1    
   140   71  192 1    
   141   71  193 1    
   142   71  194 1    
   143   72   73 2    
   144   72   74 am   BACKBONE|DICT|INTERRES
   145   74   75 1    
   146   74  195 1    
   147   75   76 1    
   148   75   77 1    
   149   75  196 1    
   150   76  197 1    
   151   76  198 1    
   152   76  199 1    
   153   77   78 2    
   154   77   79 am   BACKBONE|DICT|INTERRES
   155   79   80 1    
   156   79  200 1    
   157   80   81 1    
   158   80   82 1    
   159   80  201 1    
   160   81  202 1    
   161   81  203 1    
   162   81  204 1    
   163   82   83 2    
   164   82   84 am   BACKBONE|DICT|INTERRES
   165   84   85 1    
   166   84  205 1    
   167   85   86 1    
   168   85   87 1    
   169   85  206 1    
   170   86  207 1    
   171   86  208 1    
   172   86  209 1    
   173   87   88 2    
   174   87   89 am   BACKBONE|DICT|INTERRES
   175   89   90 1    
   176   89  210 1    
   177   90   91 1    
   178   90   92 1    
   179   90  211 1    
   180   91  212 1    
   181   91  213 1    
   182   91  214 1    
   183   92   93 2    
   184   92   94 am   BACKBONE|DICT|INTERRES
   185   94   95 1    
   186   94  215 1    
   187   95   96 1    
   188   95   97 1    
   189   95  216 1    
   190   96  217 1    
   191   96  218 1    
   192   96  219 1    
   193   97   98 2    
   194   97   99 am   BACKBONE|DICT|INTERRES
   195   99  100 1    
   196   99  220 1    
   197  100  101 1    
   198  100  102 1    
   199  100  221 1    
   200  101  222 1    
   201  101  223 1    
   202  101  224 1    
   203  102  103 2    
   204  102  104 am   BACKBONE|DICT|INTERRES
   205  104  105 1    
   206  104  225 1    
   207  105  106 1    
   208  105  107 1    
   209  105  226 1    
   210  106  227 1    
   211  106  228 1    
   212  106  229 1    
   213  107  108 2    
   214  107  109 am   BACKBONE|DICT|INTERRES
   215  109  110 1    
   216  109  230 1    
   217  110  111 1    
   218  110  112 1    
   219  110  231 1    
   220  111  232 1    
   221  111  233 1    
   222  111  234 1    
   223  112  113 2    
   224  112  114 am   BACKBONE|DICT|INTERRES
   225  114  115 1    
   226  114  235 1    
   227  115  116 1    
   228  115  117 1    
   229  115  236 1    
   230  116  237 1    
   231  116  238 1    
   232  116  239 1    
   233  117  118 2    
   234  117  119 am   BACKBONE|DICT|INTERRES
   235  119  120 1    
   236  119  240 1    
   237  120  121 1    
   238  120  124 1    
   239  120  241 1    
   240  121  122 am   BACKBONE|DICT|INTERRES
   241  121  123 2    
   242  122  242 1    
   243  122  243 1    
   244  124  125 1    
   245  124  244 1    
   246  124  245 1    
   247  125  126 1    
   248  126  246 1    
   249  126  247 1    
@<TRIPOS>SUBSTRUCTURE
     1 UNK         1 GROUP             0       ****    0 ROOT    
