@<TRIPOS>MOLECULE
3R540
247   249    1
SMALL
USER_CHARGES


@<TRIPOS>ATOM
      1 CA          1.1654  -10.9618  -50.6413 C.3       0 UNK        -0.1800 
      2 C           2.3489  -11.7418  -50.0900 C.2       0 UNK         0.5000 
      3 O           3.4794  -11.2624  -50.1819 O.2       0 UNK        -0.5000 
      4 N           2.1059  -12.9532  -49.5689 N.am      1 UNK        -0.5000 
      5 CA          3.1568  -13.8861  -49.1514 C.3       1 UNK         0.1400 
      6 C6          2.6619  -15.3522  -49.0495 C.3       23 UNK        -0.0398 
      7 S7          3.9472  -16.5326  -49.5859 S.3       23 UNK        -0.2404 
      8 C8          3.1117  -17.4336  -50.9304 C.3       23 UNK        -0.0205 
      9 C9          2.2985  -18.6050  -50.4001 C.ar      23 UNK        -0.0193 
     10 C10         0.9089  -18.5118  -50.2649 C.ar      23 UNK        -0.1150 
     11 C11         0.1716  -19.5986  -49.7833 C.ar      23 UNK        -0.0193 
     12 C12         0.8333  -20.7792  -49.4370 C.ar      23 UNK        -0.1150 
     13 C13         2.2185  -20.8901  -49.5787 C.ar      23 UNK        -0.0193 
     14 C14         2.9450  -19.7977  -50.0590 C.ar      23 UNK        -0.1150 
     15 C15         2.9231  -22.2046  -49.2708 C.3       23 UNK        -0.0205 
     16 S16         3.8286  -22.1898  -47.6893 S.3       23 UNK        -0.2404 
     17 C17         2.4959  -22.1191  -46.4471 C.3       23 UNK        -0.0398 
     18 CA          1.7616  -23.4744  -46.2409 C.3       11 UNK         0.1400 
     19 N           1.6159  -23.8241  -44.8276 N.am      11 UNK        -0.5000 
     20 C           1.2841  -25.0402  -44.3711 C.2       10 UNK         0.5000 
     21 O           1.1452  -26.0296  -45.0906 O.2       10 UNK        -0.5000 
     22 CA          1.0279  -25.1583  -42.8564 C.3       10 UNK         0.1400 
     23 CB          2.3354  -25.4600  -42.1093 C.3       10 UNK        -0.1800 
     24 N           0.4149  -23.9542  -42.2900 N.am      10 UNK        -0.5000 
     25 C          -0.8231  -23.5298  -42.5797 C.2       9 UNK         0.5000 
     26 O          -1.5934  -24.1313  -43.3275 O.2       9 UNK        -0.5000 
     27 CA         -1.2554  -22.1824  -41.9712 C.3       9 UNK         0.1400 
     28 CB         -1.8451  -22.3917  -40.5686 C.3       9 UNK        -0.1800 
     29 N          -0.1863  -21.1795  -41.9037 N.am      9 UNK        -0.5000 
     30 C           0.5080  -20.7176  -42.9524 C.2       8 UNK         0.5000 
     31 O           0.3977  -21.1626  -44.0983 O.2       8 UNK        -0.5000 
     32 CA          1.5338  -19.6054  -42.6579 C.3       8 UNK         0.1400 
     33 CB          2.8710  -20.2240  -42.2219 C.3       8 UNK        -0.1800 
     34 N           1.7697  -18.7532  -43.8247 N.am      8 UNK        -0.5000 
     35 C           0.8476  -17.9651  -44.3929 C.2       7 UNK         0.5000 
     36 O          -0.2692  -17.7677  -43.9058 O.2       7 UNK        -0.5000 
     37 CA          1.2421  -17.3008  -45.7269 C.3       7 UNK         0.1400 
     38 CB          1.8475  -18.3263  -46.7002 C.3       7 UNK        -0.1800 
     39 N           0.0492  -16.7395  -46.3504 N.am      7 UNK        -0.5000 
     40 C          -0.2018  -15.4530  -46.5933 C.2       6 UNK         0.5000 
     41 O           0.6264  -14.5533  -46.4421 O.2       6 UNK        -0.5000 
     42 CA         -1.6334  -15.1439  -47.0670 C.3       6 UNK         0.1400 
     43 CB         -2.6694  -15.5614  -46.0068 C.3       6 UNK        -0.1800 
     44 N          -1.8407  -13.7313  -47.3668 N.am      6 UNK        -0.5000 
     45 C          -1.4929  -13.1250  -48.5074 C.2       5 UNK         0.5000 
     46 O          -0.8455  -13.6633  -49.4074 O.2       5 UNK        -0.5000 
     47 CA         -1.9596  -11.6639  -48.6668 C.3       5 UNK         0.1400 
     48 CB         -3.4064  -11.6172  -49.1816 C.3       5 UNK        -0.1800 
     49 N          -1.8638  -10.8967  -47.4250 N.am      5 UNK        -0.5000 
     50 C          -0.7084  -10.5527  -46.8427 C.2       4 UNK         0.5000 
     51 O           0.3977  -10.7766  -47.3360 O.2       4 UNK        -0.5000 
     52 CA         -0.7747   -9.8816  -45.4567 C.3       4 UNK         0.1400 
     53 CB         -2.1900   -9.4510  -45.0070 C.3       4 UNK        -0.1800 
     54 N          -0.1373  -10.7571  -44.4718 N.am      4 UNK        -0.5000 
     55 C          -0.5161  -12.0013  -44.1465 C.2       3 UNK         0.5000 
     56 O          -1.5846  -12.5125  -44.4888 O.2       3 UNK        -0.5000 
     57 CA          0.5320  -12.8265  -43.3834 C.3       3 UNK         0.1400 
     58 CB         -0.0311  -14.1511  -42.8370 C.3       3 UNK        -0.1800 
     59 N           1.6428  -13.1253  -44.2850 N.am      3 UNK        -0.5000 
     60 C           2.7201  -12.3568  -44.4777 C.2       2 UNK         0.5000 
     61 O           2.8992  -11.2830  -43.9010 O.2       2 UNK        -0.5000 
     62 CA          3.7713  -12.8736  -45.4705 C.3       2 UNK         0.1400 
     63 CB          4.5538  -14.0506  -44.8526 C.3       2 UNK        -0.1800 
     64 N           3.1861  -13.2606  -46.7583 N.am      2 UNK        -0.5000 
     65 C           3.9033  -13.4224  -47.8805 C.2       1 UNK         0.5000 
     66 O           5.1172  -13.2160  -47.9435 O.2       1 UNK        -0.5000 
     67 C           0.3788  -23.4660  -46.9158 C.2       11 UNK         0.5000 
     68 O           0.1999  -24.1076  -47.9493 O.2       11 UNK        -0.5000 
     69 N          -0.5787  -22.7593  -46.2971 N.am      12 UNK        -0.5000 
     70 CA         -1.9567  -22.6105  -46.7648 C.3       12 UNK         0.1400 
     71 CB         -2.7311  -21.7050  -45.7975 C.3       12 UNK        -0.1800 
     72 C          -2.6846  -23.9526  -46.9472 C.2       12 UNK         0.5000 
     73 O          -3.3532  -24.1402  -47.9625 O.2       12 UNK        -0.5000 
     74 N          -2.5084  -24.8715  -45.9881 N.am      13 UNK        -0.5000 
     75 CA         -3.0495  -26.2299  -46.0283 C.3       13 UNK         0.1400 
     76 CB         -2.7678  -26.9299  -44.6902 C.3       13 UNK        -0.1800 
     77 C          -2.5018  -27.0631  -47.2020 C.2       13 UNK         0.5000 
     78 O          -3.2721  -27.7658  -47.8572 O.2       13 UNK        -0.5000 
     79 N          -1.1920  -26.9512  -47.4622 N.am      14 UNK        -0.5000 
     80 CA         -0.5098  -27.6282  -48.5661 C.3       14 UNK         0.1400 
     81 CB          1.0078  -27.5751  -48.3318 C.3       14 UNK        -0.1800 
     82 C          -0.8708  -27.0324  -49.9397 C.2       14 UNK         0.5000 
     83 O          -1.0233  -27.7776  -50.9079 O.2       14 UNK        -0.5000 
     84 N          -1.0095  -25.7023  -49.9938 N.am      15 UNK        -0.5000 
     85 CA         -1.3037  -24.9288  -51.2009 C.3       15 UNK         0.1400 
     86 CB         -0.7486  -23.5126  -51.0064 C.3       15 UNK        -0.1800 
     87 C          -2.8004  -24.8826  -51.5739 C.2       15 UNK         0.5000 
     88 O          -3.1368  -24.2972  -52.6031 O.2       15 UNK        -0.5000 
     89 N          -3.6630  -25.4878  -50.7448 N.am      16 UNK        -0.5000 
     90 CA         -5.1216  -25.5680  -50.8785 C.3       16 UNK         0.1400 
     91 CB         -5.5305  -26.3494  -52.1452 C.3       16 UNK        -0.1800 
     92 C          -5.8208  -24.1982  -50.7428 C.2       16 UNK         0.5000 
     93 O          -6.7611  -23.8987  -51.4827 O.2       16 UNK        -0.5000 
     94 N          -5.3593  -23.4136  -49.7589 N.am      17 UNK        -0.5000 
     95 CA         -5.9250  -22.1637  -49.2515 C.3       17 UNK         0.1400 
     96 CB         -7.1609  -22.4689  -48.3783 C.3       17 UNK        -0.1800 
     97 C          -6.1869  -21.1164  -50.3527 C.2       17 UNK         0.5000 
     98 O          -5.2398  -20.5012  -50.8495 O.2       17 UNK        -0.5000 
     99 N          -7.4645  -20.9313  -50.7125 N.am      18 UNK        -0.5000 
    100 CA        -7.9600  -19.9859  -51.7134 C.3       18 UNK         0.1400 
    101 CB        -9.4930  -20.0620  -51.7563 C.3       18 UNK        -0.1800 
    102 C         -7.3706  -20.1826  -53.1215 C.2       18 UNK         0.5000 
    103 O         -7.2733  -19.2070  -53.8657 O.2       18 UNK        -0.5000 
    104 N         -6.9312  -21.4085  -53.4433 N.am      19 UNK        -0.5000 
    105 CA        -6.2441  -21.7470  -54.6932 C.3       19 UNK         0.1400 
    106 CB        -6.0542  -23.2685  -54.7633 C.3       19 UNK        -0.1800 
    107 C         -4.8903  -21.0268  -54.8744 C.2       19 UNK         0.5000 
    108 O         -4.4521  -20.8511  -56.0119 O.2       19 UNK        -0.5000 
    109 N         -4.2712  -20.6067  -53.7633 N.am      20 UNK        -0.5000 
    110 CA        -3.0249  -19.8417  -53.7207 C.3       20 UNK         0.1400 
    111 CB        -1.9703  -20.6848  -52.9907 C.3       20 UNK        -0.1800 
    112 C         -3.2193  -18.4603  -53.0624 C.2       20 UNK         0.5000 
    113 O         -2.2310  -17.7983  -52.7467 O.2       20 UNK        -0.5000 
    114 N         -4.4816  -18.0451  -52.8751 N.am      21 UNK        -0.5000 
    115 CA        -4.9261  -16.7835  -52.2721 C.3       21 UNK         0.1400 
    116 CB        -4.4445  -15.5687  -53.0940 C.3       21 UNK        -0.1800 
    117 C         -4.6198  -16.6485  -50.7627 C.2       21 UNK         0.5000 
    118 O         -4.5561  -15.5273  -50.2559 O.2       21 UNK        -0.5000 
    119 N         -4.4977  -17.7803  -50.0543 N.am      22 UNK        -0.5000 
    120 CA        -4.4478  -17.8314  -48.5807 C.3       22 UNK         0.1400 
    121 C         -5.8538  -17.7925  -47.9066 C.2       22 UNK         0.5000 
    122 N         -6.9572  -17.8092  -48.6447 N.am      22 UNK        -0.7600 
    123 O         -5.9467  -17.7341  -46.6843 O.2       22 UNK        -0.5000 
    124 C124       -3.6190  -19.0397  -48.0697 C.3       23 UNK        -0.0398 
    125 S125       -1.8243  -18.7468  -48.0863 S.3       23 UNK        -0.2404 
    126 C126       -1.3402  -19.5131  -49.6537 C.3       23 UNK        -0.0205 
    127 H127        1.4542  -10.4325  -51.5493 H         1 UNK         0.0600 
    128 H128        0.3401  -11.6253  -50.8972 H         1 UNK         0.0600 
    129 H129        0.8230  -10.2249  -49.9159 H         1 UNK         0.0600 
    130 H130        1.1478  -13.2812  -49.4917 H         1 UNK         0.3000 
    131 H131        3.8913  -13.8563  -49.9601 H         1 UNK         0.0600 
    132 H132        1.7694  -15.4980  -49.6592 H         1 UNK         0.0800 
    133 H133        2.3655  -15.6077  -48.0343 H         1 UNK         0.0800 
    134 H134        2.4883  -16.7549  -51.5144 H         1 UNK         0.0800 
    135 H135        3.8699  -17.8097  -51.6188 H         1 UNK         0.0800 
    136 H136        0.3985  -17.5975  -50.5335 H         1 UNK         0.1150 
    137 H137        0.2629  -21.6186  -49.0721 H         1 UNK         0.1150 
    138 H138        4.0172  -19.8772  -50.1718 H         1 UNK         0.1150 
    139 H139        2.2185  -23.0356  -49.2814 H         1 UNK         0.0800 
    140 H140        3.6350  -22.4155  -50.0700 H         1 UNK         0.0800 
    141 H141        2.9717  -21.8042  -45.5175 H         1 UNK         0.0800 
    142 H142        1.8148  -21.3059  -46.6964 H         1 UNK         0.0800 
    143 H143        2.3469  -24.2705  -46.7068 H         1 UNK         0.0600 
    144 H144        1.6208  -23.0526  -44.1755 H         1 UNK         0.3000 
    145 H145        0.3427  -25.9944  -42.7005 H         1 UNK         0.0600 
    146 H146        2.1543  -25.6200  -41.0463 H         1 UNK         0.0600 
    147 H147        2.8064  -26.3643  -42.4972 H         1 UNK         0.0600 
    148 H148        3.0547  -24.6462  -42.2094 H         1 UNK         0.0600 
    149 H149        0.9813  -23.4003  -41.6648 H         1 UNK         0.3000 
    150 H150       -2.0412  -21.7737  -42.6084 H         1 UNK         0.0600 
    151 H151       -2.6582  -23.1187  -40.5912 H         1 UNK         0.0600 
    152 H152       -2.2535  -21.4632  -40.1693 H         1 UNK         0.0600 
    153 H153       -1.0955  -22.7592  -39.8666 H         1 UNK         0.0600 
    154 H154       -0.0169  -20.7743  -40.9944 H         1 UNK         0.3000 
    155 H155        1.1509  -18.9792  -41.8495 H         1 UNK         0.0600 
    156 H156        3.6014  -19.4523  -41.9778 H         1 UNK         0.0600 
    157 H157        3.2977  -20.8546  -43.0031 H         1 UNK         0.0600 
    158 H158        2.7471  -20.8428  -41.3322 H         1 UNK         0.0600 
    159 H159        2.6542  -18.8779  -44.2931 H         1 UNK         0.3000 
    160 H160        1.9760  -16.5209  -45.5159 H         1 UNK         0.0600 
    161 H161        2.0597  -17.8742  -47.6653 H         1 UNK         0.0600 
    162 H162        1.1583  -19.1515  -46.8778 H         1 UNK         0.0600 
    163 H163        2.7861  -18.7417  -46.3333 H         1 UNK         0.0600 
    164 H164       -0.7011  -17.4044  -46.4855 H         1 UNK         0.3000 
    165 H165       -1.8138  -15.7177  -47.9781 H         1 UNK         0.0600 
    166 H166       -3.6832  -15.3225  -46.3289 H         1 UNK         0.0600 
    167 H167       -2.6408  -16.6347  -45.8164 H         1 UNK         0.0600 
    168 H168       -2.4955  -15.0571  -45.0557 H         1 UNK         0.0600 
    169 H169       -2.2439  -13.1757  -46.6243 H         1 UNK         0.3000 
    170 H170       -1.3297  -11.1812  -49.4119 H         1 UNK         0.0600 
    171 H171       -3.5051  -12.1712  -50.1163 H         1 UNK         0.0600 
    172 H172       -4.1039  -12.0562  -48.4672 H         1 UNK         0.0600 
    173 H173       -3.7238  -10.5926  -49.3763 H         1 UNK         0.0600 
    174 H174       -2.7278  -10.6912  -46.9450 H         1 UNK         0.3000 
    175 H175       -0.1602   -8.9824  -45.5200 H         1 UNK         0.0600 
    176 H176       -2.8799  -10.2903  -44.9185 H         1 UNK         0.0600 
    177 H177       -2.1523   -8.9560  -44.0366 H         1 UNK         0.0600 
    178 H178       -2.6229   -8.7397  -45.7114 H         1 UNK         0.0600 
    179 H179        0.7941  -10.4778  -44.1884 H         1 UNK         0.3000 
    180 H180        0.8827  -12.2339  -42.5358 H         1 UNK         0.0600 
    181 H181       -0.3860  -14.8033  -43.6353 H         1 UNK         0.0600 
    182 H182       -0.8697  -13.9702  -42.1637 H         1 UNK         0.0600 
    183 H183        0.7260  -14.6980  -42.2750 H         1 UNK         0.0600 
    184 H184        1.4891  -13.9104  -44.9105 H         1 UNK         0.3000 
    185 H185        4.4682  -12.0509  -45.6448 H         1 UNK         0.0600 
    186 H186        4.9400  -13.7896  -43.8664 H         1 UNK         0.0600 
    187 H187        3.9250  -14.9340  -44.7361 H         1 UNK         0.0600 
    188 H188        5.4099  -14.3303  -45.4662 H         1 UNK         0.0600 
    189 H189        2.1844  -13.4362  -46.7730 H         1 UNK         0.3000 
    190 H190       -0.3289  -22.2467  -45.4547 H         1 UNK         0.3000 
    191 H191       -1.9192  -22.1180  -47.7381 H         1 UNK         0.0600 
    192 H192       -3.7435  -21.5247  -46.1599 H         1 UNK         0.0600 
    193 H193       -2.2421  -20.7374  -45.6821 H         1 UNK         0.0600 
    194 H194       -2.8174  -22.1548  -44.8093 H         1 UNK         0.0600 
    195 H195       -1.9887  -24.6135  -45.1534 H         1 UNK         0.3000 
    196 H196       -4.1316  -26.1533  -46.1526 H         1 UNK         0.0600 
    197 H197       -3.1590  -27.9480  -44.6898 H         1 UNK         0.0600 
    198 H198       -3.2397  -26.4001  -43.8626 H         1 UNK         0.0600 
    199 H199       -1.6982  -26.9864  -44.4834 H         1 UNK         0.0600 
    200 H200       -0.6293  -26.3363  -46.8892 H         1 UNK         0.3000 
    201 H201       -0.8155  -28.6766  -48.5664 H         1 UNK         0.0600 
    202 H202        1.2774  -28.0503  -47.3884 H         1 UNK         0.0600 
    203 H203        1.3776  -26.5495  -48.3050 H         1 UNK         0.0600 
    204 H204        1.5442  -28.0973  -49.1250 H         1 UNK         0.0600 
    205 H205       -0.8030  -25.1628  -49.1565 H         1 UNK         0.3000 
    206 H206       -0.7754  -25.3836  -52.0412 H         1 UNK         0.0600 
    207 H207        0.2976  -23.5373  -50.7039 H         1 UNK         0.0600 
    208 H208       -0.7936  -22.9484  -51.9353 H         1 UNK         0.0600 
    209 H209       -1.3109  -22.9644  -50.2499 H         1 UNK         0.0600 
    210 H210       -3.2785  -25.8955  -49.9033 H         1 UNK         0.3000 
    211 H211       -5.4611  -26.1526  -50.0223 H         1 UNK         0.0600 
    212 H212       -5.2575  -25.8232  -53.0591 H         1 UNK         0.0600 
    213 H213       -6.6087  -26.5105  -52.1732 H         1 UNK         0.0600 
    214 H214       -5.0565  -27.3306  -52.1707 H         1 UNK         0.0600 
    215 H215       -4.5613  -23.7577  -49.2260 H         1 UNK         0.3000 
    216 H216       -5.1684  -21.7398  -48.5932 H         1 UNK         0.0600 
    217 H217       -7.9421  -22.9892  -48.9338 H         1 UNK         0.0600 
    218 H218       -7.5911  -21.5540  -47.9681 H         1 UNK         0.0600 
    219 H219       -6.8880  -23.0996  -47.5320 H         1 UNK         0.0600 
    220 H220       -8.1621  -21.5111  -50.2693 H         1 UNK         0.3000 
    221 H221       -7.6777  -18.9843  -51.3856 H         1 UNK         0.0600 
    222 H222       -9.8375  -21.0555  -52.0464 H         1 UNK         0.0600 
    223 H223       -9.9276  -19.8253  -50.7849 H         1 UNK         0.0600 
    224 H224       -9.9009  -19.3498  -52.4750 H         1 UNK         0.0600 
    225 H225       -7.0210  -22.1536  -52.7605 H         1 UNK         0.3000 
    226 H226       -6.8899  -21.4442  -55.5198 H         1 UNK         0.0600 
    227 H227       -7.0054  -23.7935  -54.6745 H         1 UNK         0.0600 
    228 H228       -5.6036  -23.5646  -55.7113 H         1 UNK         0.0600 
    229 H229       -5.4003  -23.6206  -53.9657 H         1 UNK         0.0600 
    230 H230       -4.6999  -20.7967  -52.8636 H         1 UNK         0.3000 
    231 H231       -2.6585  -19.6445  -54.7297 H         1 UNK         0.0600 
    232 H232       -2.3172  -20.9818  -52.0013 H         1 UNK         0.0600 
    233 H233       -1.0289  -20.1470  -52.8708 H         1 UNK         0.0600 
    234 H234       -1.7551  -21.5924  -53.5544 H         1 UNK         0.0600 
    235 H235       -5.2231  -18.6469  -53.2105 H         1 UNK         0.3000 
    236 H236       -6.0144  -16.8012  -52.3435 H         1 UNK         0.0600 
    237 H237       -4.6803  -15.6885  -54.1514 H         1 UNK         0.0600 
    238 H238       -4.9296  -14.6516  -52.7578 H         1 UNK         0.0600 
    239 H239       -3.3686  -15.4172  -53.0035 H         1 UNK         0.0600 
    240 H240       -4.5890  -18.6730  -50.5291 H         1 UNK         0.3000 
    241 H241       -3.9538  -16.9262  -48.2270 H         1 UNK         0.0600 
    242 H242       -6.9049  -17.8211  -49.6475 H         1 UNK         0.3800 
    243 H243       -7.8543  -17.7709  -48.1867 H         1 UNK         0.3800 
    244 H244       -3.8639  -19.2703  -47.0321 H         1 UNK         0.0800 
    245 H245       -3.8462  -19.9395  -48.6361 H         1 UNK         0.0800 
    246 H246       -1.7519  -18.9274  -50.4733 H         1 UNK         0.0800 
    247 H247       -1.7802  -20.5082  -49.7256 H         1 UNK         0.0800 
@<TRIPOS>BOND
     1    1    2 1    
     2    1  127 1    
     3    1  128 1    
     4    1  129 1    
     5    2    3 2    
     6    2    4 am   BACKBONE|DICT|INTERRES
     7    4    5 1    
     8    4  130 1    
     9    5    6 1    
    10    5   65 1    
    11    5  131 1    
    12    6    7 1    
    13    6  132 1    
    14    6  133 1    
    15    7    8 1    
    16    8    9 1    
    17    8  134 1    
    18    8  135 1    
    19    9   10 ar   
    20    9   14 ar   
    21   10   11 ar   
    22   10  136 1    
    23   11   12 ar   
    24   11  126 1    
    25   12   13 ar   
    26   12  137 1    
    27   13   14 ar   
    28   13   15 1    
    29   14  138 1    
    30   15   16 1    
    31   15  139 1    
    32   15  140 1    
    33   16   17 1    
    34   17   18 1    
    35   17  141 1    
    36   17  142 1    
    37   18   19 1    
    38   18   67 1    
    39   18  143 1    
    40   19   20 am   BACKBONE|DICT|INTERRES
    41   19  144 1    
    42   20   21 2    
    43   20   22 1    
    44   22   23 1    
    45   22   24 1    
    46   22  145 1    
    47   23  146 1    
    48   23  147 1    
    49   23  148 1    
    50   24   25 am   BACKBONE|DICT|INTERRES
    51   24  149 1    
    52   25   26 2    
    53   25   27 1    
    54   27   28 1    
    55   27   29 1    
    56   27  150 1    
    57   28  151 1    
    58   28  152 1    
    59   28  153 1    
    60   29   30 am   BACKBONE|DICT|INTERRES
    61   29  154 1    
    62   30   31 2    
    63   30   32 1    
    64   32   33 1    
    65   32   34 1    
    66   32  155 1    
    67   33  156 1    
    68   33  157 1    
    69   33  158 1    
    70   34   35 am   BACKBONE|DICT|INTERRES
    71   34  159 1    
    72   35   36 2    
    73   35   37 1    
    74   37   38 1    
    75   37   39 1    
    76   37  160 1    
    77   38  161 1    
    78   38  162 1    
    79   38  163 1    
    80   39   40 am   BACKBONE|DICT|INTERRES
    81   39  164 1    
    82   40   41 2    
    83   40   42 1    
    84   42   43 1    
    85   42   44 1    
    86   42  165 1    
    87   43  166 1    
    88   43  167 1    
    89   43  168 1    
    90   44   45 am   BACKBONE|DICT|INTERRES
    91   44  169 1    
    92   45   46 2    
    93   45   47 1    
    94   47   48 1    
    95   47   49 1    
    96   47  170 1    
    97   48  171 1    
    98   48  172 1    
    99   48  173 1    
   100   49   50 am   BACKBONE|DICT|INTERRES
   101   49  174 1    
   102   50   51 2    
   103   50   52 1    
   104   52   53 1    
   105   52   54 1    
   106   52  175 1    
   107   53  176 1    
   108   53  177 1    
   109   53  178 1    
   110   54   55 am   BACKBONE|DICT|INTERRES
   111   54  179 1    
   112   55   56 2    
   113   55   57 1    
   114   57   58 1    
   115   57   59 1    
   116   57  180 1    
   117   58  181 1    
   118   58  182 1    
   119   58  183 1    
   120   59   60 am   BACKBONE|DICT|INTERRES
   121   59  184 1    
   122   60   61 2    
   123   60   62 1    
   124   62   63 1    
   125   62   64 1    
   126   62  185 1    
   127   63  186 1    
   128   63  187 1    
   129   63  188 1    
   130   64   65 am   BACKBONE|DICT|INTERRES
   131   64  189 1    
   132   65   66 2    
   133   67   68 2    
   134   67   69 am   BACKBONE|DICT|INTERRES
   135   69   70 1    
   136   69  190 1    
   137   70   71 1    
   138   70   72 1    
   139   70  191 1    
   140   71  192 1    
   141   71  193 1    
   142   71  194 1    
   143   72   73 2    
   144   72   74 am   BACKBONE|DICT|INTERRES
   145   74   75 1    
   146   74  195 1    
   147   75   76 1    
   148   75   77 1    
   149   75  196 1    
   150   76  197 1    
   151   76  198 1    
   152   76  199 1    
   153   77   78 2    
   154   77   79 am   BACKBONE|DICT|INTERRES
   155   79   80 1    
   156   79  200 1    
   157   80   81 1    
   158   80   82 1    
   159   80  201 1    
   160   81  202 1    
   161   81  203 1    
   162   81  204 1    
   163   82   83 2    
   164   82   84 am   BACKBONE|DICT|INTERRES
   165   84   85 1    
   166   84  205 1    
   167   85   86 1    
   168   85   87 1    
   169   85  206 1    
   170   86  207 1    
   171   86  208 1    
   172   86  209 1    
   173   87   88 2    
   174   87   89 am   BACKBONE|DICT|INTERRES
   175   89   90 1    
   176   89  210 1    
   177   90   91 1    
   178   90   92 1    
   179   90  211 1    
   180   91  212 1    
   181   91  213 1    
   182   91  214 1    
   183   92   93 2    
   184   92   94 am   BACKBONE|DICT|INTERRES
   185   94   95 1    
   186   94  215 1    
   187   95   96 1    
   188   95   97 1    
   189   95  216 1    
   190   96  217 1    
   191   96  218 1    
   192   96  219 1    
   193   97   98 2    
   194   97   99 am   BACKBONE|DICT|INTERRES
   195   99  100 1    
   196   99  220 1    
   197  100  101 1    
   198  100  102 1    
   199  100  221 1    
   200  101  222 1    
   201  101  223 1    
   202  101  224 1    
   203  102  103 2    
   204  102  104 am   BACKBONE|DICT|INTERRES
   205  104  105 1    
   206  104  225 1    
   207  105  106 1    
   208  105  107 1    
   209  105  226 1    
   210  106  227 1    
   211  106  228 1    
   212  106  229 1    
   213  107  108 2    
   214  107  109 am   BACKBONE|DICT|INTERRES
   215  109  110 1    
   216  109  230 1    
   217  110  111 1    
   218  110  112 1    
   219  110  231 1    
   220  111  232 1    
   221  111  233 1    
   222  111  234 1    
   223  112  113 2    
   224  112  114 am   BACKBONE|DICT|INTERRES
   225  114  115 1    
   226  114  235 1    
   227  115  116 1    
   228  115  117 1    
   229  115  236 1    
   230  116  237 1    
   231  116  238 1    
   232  116  239 1    
   233  117  118 2    
   234  117  119 am   BACKBONE|DICT|INTERRES
   235  119  120 1    
   236  119  240 1    
   237  120  121 1    
   238  120  124 1    
   239  120  241 1    
   240  121  122 am   BACKBONE|DICT|INTERRES
   241  121  123 2    
   242  122  242 1    
   243  122  243 1    
   244  124  125 1    
   245  124  244 1    
   246  124  245 1    
   247  125  126 1    
   248  126  246 1    
   249  126  247 1    
@<TRIPOS>SUBSTRUCTURE
     1 UNK         1 GROUP             0       ****    0 ROOT    
