@<TRIPOS>MOLECULE
3R540
247   249    1
SMALL
USER_CHARGES


@<TRIPOS>ATOM
      1 CA         -5.1239  -11.9442  -48.1886 C.3       0 UNK        -0.1800 
      2 C          -3.8548  -12.6580  -47.7474 C.2       0 UNK         0.5000 
      3 O          -3.5269  -12.6415  -46.5617 O.2       0 UNK        -0.5000 
      4 N          -3.1511  -13.2987  -48.6929 N.am      1 UNK        -0.5000 
      5 CA         -1.8874  -14.0253  -48.4925 C.3       1 UNK         0.1400 
      6 C6         -1.3581  -14.5935  -49.8320 C.3       23 UNK        -0.0398 
      7 S7          0.4086  -15.0580  -49.7981 S.3       23 UNK        -0.2404 
      8 C8          0.3023  -16.8480  -49.4790 C.3       23 UNK        -0.0205 
      9 C9          1.3407  -17.6351  -50.2625 C.ar      23 UNK        -0.0193 
     10 C10         1.2913  -17.6791  -51.6599 C.ar      23 UNK        -0.1150 
     11 C11         2.2006  -18.4591  -52.3797 C.ar      23 UNK        -0.0193 
     12 C12         3.1686  -19.1967  -51.6893 C.ar      23 UNK        -0.1150 
     13 C13         3.2229  -19.1681  -50.2913 C.ar      23 UNK        -0.0193 
     14 C14         2.3190  -18.3678  -49.5868 C.ar      23 UNK        -0.1150 
     15 C15         4.2475  -20.0132  -49.5460 C.3       23 UNK        -0.0205 
     16 S16         3.5739  -21.6387  -49.0596 S.3       23 UNK        -0.2404 
     17 C17         2.7858  -21.2339  -47.4657 C.3       23 UNK        -0.0398 
     18 CA          1.9298  -22.3780  -46.8654 C.3       11 UNK         0.1400 
     19 N           1.7234  -22.1802  -45.4292 N.am      11 UNK        -0.5000 
     20 C           1.1917  -23.0784  -44.5887 C.2       10 UNK         0.5000 
     21 O           0.9051  -24.2327  -44.9063 O.2       10 UNK        -0.5000 
     22 CA          0.8991  -22.5926  -43.1559 C.3       10 UNK         0.1400 
     23 CB          2.1404  -22.7435  -42.2640 C.3       10 UNK        -0.1800 
     24 N           0.4237  -21.2071  -43.1096 N.am      10 UNK        -0.5000 
     25 C          -0.7273  -20.7834  -43.6525 C.2       9 UNK         0.5000 
     26 O          -1.5302  -21.5292  -44.2114 O.2       9 UNK        -0.5000 
     27 CA         -1.0084  -19.2713  -43.6072 C.3       9 UNK         0.1400 
     28 CB         -1.5260  -18.8544  -42.2224 C.3       9 UNK        -0.1800 
     29 N           0.1671  -18.4734  -43.9517 N.am      9 UNK        -0.5000 
     30 C           0.7839  -18.4826  -45.1414 C.2       8 UNK         0.5000 
     31 O           0.3882  -19.1255  -46.1127 O.2       8 UNK        -0.5000 
     32 CA          2.1096  -17.7061  -45.2386 C.3       8 UNK         0.1400 
     33 CB          1.8754  -16.2131  -45.5074 C.3       8 UNK        -0.1800 
     34 N           2.9221  -17.8653  -44.0328 N.am      8 UNK        -0.5000 
     35 C           3.5217  -19.0086  -43.6728 C.2       7 UNK         0.5000 
     36 O           3.4701  -20.0436  -44.3359 O.2       7 UNK        -0.5000 
     37 CA          4.2713  -19.0015  -42.3285 C.3       7 UNK         0.1400 
     38 CB          5.6884  -18.4353  -42.5020 C.3       7 UNK        -0.1800 
     39 N           3.5646  -18.2361  -41.3006 N.am      7 UNK        -0.5000 
     40 C           2.3948  -18.6024  -40.7576 C.2       6 UNK         0.5000 
     41 O           1.8092  -19.6474  -41.0385 O.2       6 UNK        -0.5000 
     42 CA          1.7468  -17.6031  -39.7802 C.3       6 UNK         0.1400 
     43 CB          2.3173  -17.7801  -38.3653 C.3       6 UNK        -0.1800 
     44 N           1.9055  -16.2071  -40.2021 N.am      6 UNK        -0.5000 
     45 C           1.3986  -15.7040  -41.3345 C.2       5 UNK         0.5000 
     46 O           0.7368  -16.3653  -42.1384 O.2       5 UNK        -0.5000 
     47 CA          1.7251  -14.2410  -41.6534 C.3       5 UNK         0.1400 
     48 CB          3.1702  -14.1146  -42.1753 C.3       5 UNK        -0.1800 
     49 N           0.7791  -13.7849  -42.6648 N.am      5 UNK        -0.5000 
     50 C           0.5590  -12.5219  -43.0396 C.2       4 UNK         0.5000 
     51 O           1.1476  -11.5516  -42.5606 O.2       4 UNK        -0.5000 
     52 CA         -0.5016  -12.3015  -44.1338 C.3       4 UNK         0.1400 
     53 CB          0.1573  -12.2650  -45.5205 C.3       4 UNK        -0.1800 
     54 N          -1.5708  -13.3053  -44.1314 N.am      4 UNK        -0.5000 
     55 C          -2.5455  -13.3615  -43.2098 C.2       3 UNK         0.5000 
     56 O          -2.5807  -12.6204  -42.2261 O.2       3 UNK        -0.5000 
     57 CA         -3.6791  -14.3887  -43.4101 C.3       3 UNK         0.1400 
     58 CB         -5.0639  -13.7336  -43.2632 C.3       3 UNK        -0.1800 
     59 N          -3.6110  -15.0334  -44.7207 N.am      3 UNK        -0.5000 
     60 C          -3.6030  -16.3562  -44.9326 C.2       2 UNK         0.5000 
     61 O          -3.7169  -17.1851  -44.0310 O.2       2 UNK        -0.5000 
     62 CA         -3.4526  -16.8591  -46.3867 C.3       2 UNK         0.1400 
     63 CB         -4.7240  -17.5923  -46.8454 C.3       2 UNK        -0.1800 
     64 N          -3.1351  -15.8192  -47.3685 N.am      2 UNK        -0.5000 
     65 C          -1.9912  -15.1226  -47.4099 C.2       1 UNK         0.5000 
     66 O          -1.0809  -15.2693  -46.5961 O.2       1 UNK        -0.5000 
     67 C           0.5822  -22.5426  -47.6033 C.2       11 UNK         0.5000 
     68 O           0.4199  -23.4933  -48.3659 O.2       11 UNK        -0.5000 
     69 N          -0.3581  -21.6219  -47.3435 N.am      12 UNK        -0.5000 
     70 CA         -1.6857  -21.5634  -47.9546 C.3       12 UNK         0.1400 
     71 CB         -2.3333  -20.2218  -47.5902 C.3       12 UNK        -0.1800 
     72 C          -2.6159  -22.7270  -47.5788 C.2       12 UNK         0.5000 
     73 O          -3.3914  -23.1782  -48.4290 O.2       12 UNK        -0.5000 
     74 N          -2.5453  -23.1624  -46.3139 N.am      13 UNK        -0.5000 
     75 CA         -3.4297  -24.1268  -45.6590 C.3       13 UNK         0.1400 
     76 CB         -3.2841  -25.5318  -46.2875 C.3       13 UNK        -0.1800 
     77 C          -4.8719  -23.5808  -45.6304 C.2       13 UNK         0.5000 
     78 O          -5.1164  -22.5623  -44.9835 O.2       13 UNK        -0.5000 
     79 N          -5.7867  -24.2187  -46.3698 N.am      14 UNK        -0.5000 
     80 CA         -7.1732  -23.7844  -46.5696 C.3       14 UNK         0.1400 
     81 CB         -8.0398  -25.0362  -46.7968 C.3       14 UNK        -0.1800 
     82 C          -7.3233  -22.7698  -47.7289 C.2       14 UNK         0.5000 
     83 O          -8.4199  -22.6339  -48.2728 O.2       14 UNK        -0.5000 
     84 N          -6.2175  -22.1107  -48.1109 N.am      15 UNK        -0.5000 
     85 CA         -6.0302  -21.2898  -49.3135 C.3       15 UNK         0.1400 
     86 CB         -6.9255  -20.0338  -49.3011 C.3       15 UNK        -0.1800 
     87 C          -6.1618  -22.1427  -50.5893 C.2       15 UNK         0.5000 
     88 O          -6.8472  -21.7570  -51.5375 O.2       15 UNK        -0.5000 
     89 N          -5.5155  -23.3137  -50.5509 N.am      16 UNK        -0.5000 
     90 CA         -5.5662  -24.3377  -51.5915 C.3       16 UNK         0.1400 
     91 CB         -6.6104  -25.3986  -51.2060 C.3       16 UNK        -0.1800 
     92 C          -4.1939  -24.9835  -51.8355 C.2       16 UNK         0.5000 
     93 O          -3.9388  -25.4303  -52.9540 O.2       16 UNK        -0.5000 
     94 N          -3.3258  -25.0169  -50.8122 N.am      17 UNK        -0.5000 
     95 CA         -1.9433  -25.4878  -50.9391 C.3       17 UNK         0.1400 
     96 CB         -1.4608  -26.0040  -49.5755 C.3       17 UNK        -0.1800 
     97 C          -1.0105  -24.3891  -51.4877 C.2       17 UNK         0.5000 
     98 O           0.0426  -24.7054  -52.0424 O.2       17 UNK        -0.5000 
     99 N          -1.4389  -23.1294  -51.3562 N.am      18 UNK        -0.5000 
    100 CA        -0.8239  -21.9276  -51.9013 C.3       18 UNK         0.1400 
    101 CB         0.4348  -21.5320  -51.1023 C.3       18 UNK        -0.1800 
    102 C         -1.9187  -20.8453  -51.9496 C.2       18 UNK         0.5000 
    103 O         -3.0910  -21.1914  -52.1222 O.2       18 UNK        -0.5000 
    104 N         -1.5424  -19.5676  -51.7947 N.am      19 UNK        -0.5000 
    105 CA        -2.4110  -18.3847  -51.8504 C.3       19 UNK         0.1400 
    106 CB        -3.3702  -18.3324  -50.6403 C.3       19 UNK        -0.1800 
    107 C         -3.1189  -18.2803  -53.2119 C.2       19 UNK         0.5000 
    108 O         -2.4631  -17.9452  -54.1968 O.2       19 UNK        -0.5000 
    109 N         -4.4143  -18.6155  -53.2706 N.am      20 UNK        -0.5000 
    110 CA        -5.2265  -18.6388  -54.4915 C.3       20 UNK         0.1400 
    111 CB        -6.6727  -18.9958  -54.1172 C.3       20 UNK        -0.1800 
    112 C         -4.6995  -19.5943  -55.5840 C.2       20 UNK         0.5000 
    113 O         -4.9988  -19.3896  -56.7608 O.2       20 UNK        -0.5000 
    114 N         -3.9108  -20.6009  -55.1836 N.am      21 UNK        -0.5000 
    115 CA        -3.2532  -21.5519  -56.0774 C.3       21 UNK         0.1400 
    116 CB        -2.9230  -22.8233  -55.2794 C.3       21 UNK        -0.1800 
    117 C         -1.9896  -20.9995  -56.7758 C.2       21 UNK         0.5000 
    118 O         -1.4831  -21.6710  -57.6765 O.2       21 UNK        -0.5000 
    119 N         -1.4825  -19.8259  -56.3684 N.am      22 UNK        -0.5000 
    120 CA        -0.2208  -19.2541  -56.8818 C.3       22 UNK         0.1400 
    121 C         -0.1586  -17.7028  -56.9534 C.2       22 UNK         0.5000 
    122 N         -1.0300  -16.9523  -56.2958 N.am      22 UNK        -0.7600 
    123 O          0.6925  -17.1608  -57.6538 O.2       22 UNK        -0.5000 
    124 C124        1.0362  -19.8583  -56.1960 C.3       23 UNK        -0.0398 
    125 S125        0.9489  -19.8711  -54.3723 S.3       23 UNK        -0.2404 
    126 C126        2.1006  -18.5473  -53.8960 C.3       23 UNK        -0.0205 
    127 H127       -5.9850  -12.3499  -47.6577 H         1 UNK         0.0600 
    128 H128       -5.3007  -12.0533  -49.2588 H         1 UNK         0.0600 
    129 H129       -5.0525  -10.8805  -47.9617 H         1 UNK         0.0600 
    130 H130       -3.4885  -13.2669  -49.6446 H         1 UNK         0.3000 
    131 H131       -1.1660  -13.2892  -48.1350 H         1 UNK         0.0600 
    132 H132       -1.9722  -15.4251  -50.1803 H         1 UNK         0.0800 
    133 H133       -1.4475  -13.8291  -50.6052 H         1 UNK         0.0800 
    134 H134       -0.6817  -17.2313  -49.7376 H         1 UNK         0.0800 
    135 H135        0.4097  -17.0210  -48.4073 H         1 UNK         0.0800 
    136 H136        0.5356  -17.1161  -52.1892 H         1 UNK         0.1150 
    137 H137        3.8586  -19.8205  -52.2399 H         1 UNK         0.1150 
    138 H138        2.3597  -18.3306  -48.5088 H         1 UNK         0.1150 
    139 H139        5.1199  -20.1754  -50.1807 H         1 UNK         0.0800 
    140 H140        4.6112  -19.4802  -48.6661 H         1 UNK         0.0800 
    141 H141        2.1921  -20.3286  -47.5702 H         1 UNK         0.0800 
    142 H142        3.5966  -20.9838  -46.7810 H         1 UNK         0.0800 
    143 H143        2.4852  -23.3117  -46.9779 H         1 UNK         0.0600 
    144 H144        1.9959  -21.2781  -45.0547 H         1 UNK         0.3000 
    145 H145        0.1100  -23.2273  -42.7476 H         1 UNK         0.0600 
    146 H146        1.9182  -22.4756  -41.2310 H         1 UNK         0.0600 
    147 H147        2.4976  -23.7740  -42.2630 H         1 UNK         0.0600 
    148 H148        2.9609  -22.1119  -42.6043 H         1 UNK         0.0600 
    149 H149        1.0044  -20.5426  -42.6071 H         1 UNK         0.3000 
    150 H150       -1.7837  -19.0548  -44.3437 H         1 UNK         0.0600 
    151 H151       -2.4461  -19.3855  -41.9763 H         1 UNK         0.0600 
    152 H152       -1.7483  -17.7877  -42.1894 H         1 UNK         0.0600 
    153 H153       -0.8019  -19.0673  -41.4364 H         1 UNK         0.0600 
    154 H154        0.5263  -17.8625  -43.2227 H         1 UNK         0.3000 
    155 H155        2.6757  -18.1136  -46.0786 H         1 UNK         0.0600 
    156 H156        1.2165  -15.7630  -44.7654 H         1 UNK         0.0600 
    157 H157        1.4161  -16.0656  -46.4840 H         1 UNK         0.0600 
    158 H158        2.8123  -15.6563  -45.5091 H         1 UNK         0.0600 
    159 H159        2.9734  -17.0746  -43.4098 H         1 UNK         0.3000 
    160 H160        4.3560  -20.0356  -41.9878 H         1 UNK         0.0600 
    161 H161        5.6716  -17.3919  -42.8192 H         1 UNK         0.0600 
    162 H162        6.2436  -18.9983  -43.2535 H         1 UNK         0.0600 
    163 H163        6.2527  -18.4944  -41.5711 H         1 UNK         0.0600 
    164 H164        3.9800  -17.3634  -41.0106 H         1 UNK         0.3000 
    165 H165        0.6776  -17.8227  -39.7457 H         1 UNK         0.0600 
    166 H166        1.8037  -17.1376  -37.6500 H         1 UNK         0.0600 
    167 H167        2.1959  -18.8084  -38.0218 H         1 UNK         0.0600 
    168 H168        3.3815  -17.5442  -38.3258 H         1 UNK         0.0600 
    169 H169        2.4421  -15.6078  -39.5914 H         1 UNK         0.3000 
    170 H170        1.5978  -13.6460  -40.7470 H         1 UNK         0.0600 
    171 H171        3.8888  -14.4899  -41.4460 H         1 UNK         0.0600 
    172 H172        3.3143  -14.6755  -43.0992 H         1 UNK         0.0600 
    173 H173        3.4332  -13.0758  -42.3742 H         1 UNK         0.0600 
    174 H174        0.2268  -14.5293  -43.0728 H         1 UNK         0.3000 
    175 H175       -0.9543  -11.3238  -43.9549 H         1 UNK         0.0600 
    176 H176        0.5828  -13.2318  -45.7921 H         1 UNK         0.0600 
    177 H177       -0.5652  -11.9833  -46.2857 H         1 UNK         0.0600 
    178 H178        0.9634  -11.5309  -45.5527 H         1 UNK         0.0600 
    179 H179       -1.5783  -13.9624  -44.9017 H         1 UNK         0.3000 
    180 H180       -3.5619  -15.1264  -42.6139 H         1 UNK         0.0600 
    181 H181       -5.2188  -12.9566  -44.0130 H         1 UNK         0.0600 
    182 H182       -5.1835  -13.2743  -42.2813 H         1 UNK         0.0600 
    183 H183       -5.8605  -14.4695  -43.3738 H         1 UNK         0.0600 
    184 H184       -3.5389  -14.4015  -45.5118 H         1 UNK         0.3000 
    185 H185       -2.6261  -17.5721  -46.3856 H         1 UNK         0.0600 
    186 H186       -4.6124  -17.9903  -47.8536 H         1 UNK         0.0600 
    187 H187       -4.9488  -18.4351  -46.1901 H         1 UNK         0.0600 
    188 H188       -5.5915  -16.9315  -46.8404 H         1 UNK         0.0600 
    189 H189       -3.8581  -15.5958  -48.0365 H         1 UNK         0.3000 
    190 H190       -0.1217  -20.8507  -46.7244 H         1 UNK         0.3000 
    191 H191       -1.5693  -21.5953  -49.0346 H         1 UNK         0.0600 
    192 H192       -2.4753  -20.1252  -46.5134 H         1 UNK         0.0600 
    193 H193       -3.3092  -20.1112  -48.0583 H         1 UNK         0.0600 
    194 H194       -1.7153  -19.3869  -47.9209 H         1 UNK         0.0600 
    195 H195       -1.9425  -22.6466  -45.6768 H         1 UNK         0.3000 
    196 H196       -3.1012  -24.1909  -44.6207 H         1 UNK         0.0600 
    197 H197       -3.5943  -25.5627  -47.3318 H         1 UNK         0.0600 
    198 H198       -2.2472  -25.8660  -46.2459 H         1 UNK         0.0600 
    199 H199       -3.8789  -26.2663  -45.7432 H         1 UNK         0.0600 
    200 H200       -5.4948  -25.0331  -46.8903 H         1 UNK         0.3000 
    201 H201       -7.5299  -23.2899  -45.6639 H         1 UNK         0.0600 
    202 H202       -7.7697  -25.5489  -47.7209 H         1 UNK         0.0600 
    203 H203       -9.0977  -24.7786  -46.8604 H         1 UNK         0.0600 
    204 H204       -7.9323  -25.7449  -45.9754 H         1 UNK         0.0600 
    205 H205       -5.3698  -22.3234  -47.6038 H         1 UNK         0.3000 
    206 H206       -4.9958  -20.9520  -49.2945 H         1 UNK         0.0600 
    207 H207       -7.9825  -20.2837  -49.3935 H         1 UNK         0.0600 
    208 H208       -6.7938  -19.4658  -48.3804 H         1 UNK         0.0600 
    209 H209       -6.6756  -19.3714  -50.1305 H         1 UNK         0.0600 
    210 H210       -4.9462  -23.5046  -49.7359 H         1 UNK         0.3000 
    211 H211       -5.8665  -23.8836  -52.5384 H         1 UNK         0.0600 
    212 H212       -7.6019  -24.9562  -51.1068 H         1 UNK         0.0600 
    213 H213       -6.3631  -25.8799  -50.2590 H         1 UNK         0.0600 
    214 H214       -6.6762  -26.1782  -51.9660 H         1 UNK         0.0600 
    215 H215       -3.5714  -24.6157  -49.9166 H         1 UNK         0.3000 
    216 H216       -1.9085  -26.3248  -51.6397 H         1 UNK         0.0600 
    217 H217       -1.5124  -25.2308  -48.8104 H         1 UNK         0.0600 
    218 H218       -0.4251  -26.3416  -49.6287 H         1 UNK         0.0600 
    219 H219       -2.0626  -26.8478  -49.2382 H         1 UNK         0.0600 
    220 H220       -2.3591  -22.9792  -50.9647 H         1 UNK         0.3000 
    221 H221       -0.5268  -22.1392  -52.9293 H         1 UNK         0.0600 
    222 H222        1.0457  -22.3985  -50.8511 H         1 UNK         0.0600 
    223 H223        0.2117  -21.0038  -50.1775 H         1 UNK         0.0600 
    224 H224        1.0665  -20.8791  -51.6946 H         1 UNK         0.0600 
    225 H225       -0.5531  -19.3770  -51.7108 H         1 UNK         0.3000 
    226 H226       -1.7630  -17.5107  -51.7927 H         1 UNK         0.0600 
    227 H227       -2.8150  -18.2606  -49.7073 H         1 UNK         0.0600 
    228 H228       -4.0180  -17.4562  -50.6895 H         1 UNK         0.0600 
    229 H229       -4.0089  -19.2121  -50.5767 H         1 UNK         0.0600 
    230 H230       -4.8638  -18.9399  -52.4274 H         1 UNK         0.3000 
    231 H231       -5.2189  -17.6311  -54.9116 H         1 UNK         0.0600 
    232 H232       -6.7379  -19.9913  -53.6764 H         1 UNK         0.0600 
    233 H233       -7.3191  -18.9832  -54.9957 H         1 UNK         0.0600 
    234 H234       -7.0845  -18.2838  -53.4018 H         1 UNK         0.0600 
    235 H235       -3.7283  -20.7055  -54.1923 H         1 UNK         0.3000 
    236 H236       -3.9583  -21.8280  -56.8643 H         1 UNK         0.0600 
    237 H237       -2.1978  -22.6275  -54.4915 H         1 UNK         0.0600 
    238 H238       -3.8159  -23.2418  -54.8145 H         1 UNK         0.0600 
    239 H239       -2.5029  -23.5953  -55.9251 H         1 UNK         0.0600 
    240 H240       -1.9373  -19.3113  -55.6240 H         1 UNK         0.3000 
    241 H241       -0.1575  -19.5368  -57.9346 H         1 UNK         0.0600 
    242 H242       -1.6662  -17.3496  -55.6064 H         1 UNK         0.3800 
    243 H243       -0.9697  -15.9510  -56.3841 H         1 UNK         0.3800 
    244 H244        1.1465  -20.8954  -56.5147 H         1 UNK         0.0800 
    245 H245        1.9500  -19.3598  -56.5243 H         1 UNK         0.0800 
    246 H246        3.0835  -18.7417  -54.3278 H         1 UNK         0.0800 
    247 H247        1.7571  -17.5974  -54.3088 H         1 UNK         0.0800 
@<TRIPOS>BOND
     1    1    2 1    
     2    1  127 1    
     3    1  128 1    
     4    1  129 1    
     5    2    3 2    
     6    2    4 am   BACKBONE|DICT|INTERRES
     7    4    5 1    
     8    4  130 1    
     9    5    6 1    
    10    5   65 1    
    11    5  131 1    
    12    6    7 1    
    13    6  132 1    
    14    6  133 1    
    15    7    8 1    
    16    8    9 1    
    17    8  134 1    
    18    8  135 1    
    19    9   10 ar   
    20    9   14 ar   
    21   10   11 ar   
    22   10  136 1    
    23   11   12 ar   
    24   11  126 1    
    25   12   13 ar   
    26   12  137 1    
    27   13   14 ar   
    28   13   15 1    
    29   14  138 1    
    30   15   16 1    
    31   15  139 1    
    32   15  140 1    
    33   16   17 1    
    34   17   18 1    
    35   17  141 1    
    36   17  142 1    
    37   18   19 1    
    38   18   67 1    
    39   18  143 1    
    40   19   20 am   BACKBONE|DICT|INTERRES
    41   19  144 1    
    42   20   21 2    
    43   20   22 1    
    44   22   23 1    
    45   22   24 1    
    46   22  145 1    
    47   23  146 1    
    48   23  147 1    
    49   23  148 1    
    50   24   25 am   BACKBONE|DICT|INTERRES
    51   24  149 1    
    52   25   26 2    
    53   25   27 1    
    54   27   28 1    
    55   27   29 1    
    56   27  150 1    
    57   28  151 1    
    58   28  152 1    
    59   28  153 1    
    60   29   30 am   BACKBONE|DICT|INTERRES
    61   29  154 1    
    62   30   31 2    
    63   30   32 1    
    64   32   33 1    
    65   32   34 1    
    66   32  155 1    
    67   33  156 1    
    68   33  157 1    
    69   33  158 1    
    70   34   35 am   BACKBONE|DICT|INTERRES
    71   34  159 1    
    72   35   36 2    
    73   35   37 1    
    74   37   38 1    
    75   37   39 1    
    76   37  160 1    
    77   38  161 1    
    78   38  162 1    
    79   38  163 1    
    80   39   40 am   BACKBONE|DICT|INTERRES
    81   39  164 1    
    82   40   41 2    
    83   40   42 1    
    84   42   43 1    
    85   42   44 1    
    86   42  165 1    
    87   43  166 1    
    88   43  167 1    
    89   43  168 1    
    90   44   45 am   BACKBONE|DICT|INTERRES
    91   44  169 1    
    92   45   46 2    
    93   45   47 1    
    94   47   48 1    
    95   47   49 1    
    96   47  170 1    
    97   48  171 1    
    98   48  172 1    
    99   48  173 1    
   100   49   50 am   BACKBONE|DICT|INTERRES
   101   49  174 1    
   102   50   51 2    
   103   50   52 1    
   104   52   53 1    
   105   52   54 1    
   106   52  175 1    
   107   53  176 1    
   108   53  177 1    
   109   53  178 1    
   110   54   55 am   BACKBONE|DICT|INTERRES
   111   54  179 1    
   112   55   56 2    
   113   55   57 1    
   114   57   58 1    
   115   57   59 1    
   116   57  180 1    
   117   58  181 1    
   118   58  182 1    
   119   58  183 1    
   120   59   60 am   BACKBONE|DICT|INTERRES
   121   59  184 1    
   122   60   61 2    
   123   60   62 1    
   124   62   63 1    
   125   62   64 1    
   126   62  185 1    
   127   63  186 1    
   128   63  187 1    
   129   63  188 1    
   130   64   65 am   BACKBONE|DICT|INTERRES
   131   64  189 1    
   132   65   66 2    
   133   67   68 2    
   134   67   69 am   BACKBONE|DICT|INTERRES
   135   69   70 1    
   136   69  190 1    
   137   70   71 1    
   138   70   72 1    
   139   70  191 1    
   140   71  192 1    
   141   71  193 1    
   142   71  194 1    
   143   72   73 2    
   144   72   74 am   BACKBONE|DICT|INTERRES
   145   74   75 1    
   146   74  195 1    
   147   75   76 1    
   148   75   77 1    
   149   75  196 1    
   150   76  197 1    
   151   76  198 1    
   152   76  199 1    
   153   77   78 2    
   154   77   79 am   BACKBONE|DICT|INTERRES
   155   79   80 1    
   156   79  200 1    
   157   80   81 1    
   158   80   82 1    
   159   80  201 1    
   160   81  202 1    
   161   81  203 1    
   162   81  204 1    
   163   82   83 2    
   164   82   84 am   BACKBONE|DICT|INTERRES
   165   84   85 1    
   166   84  205 1    
   167   85   86 1    
   168   85   87 1    
   169   85  206 1    
   170   86  207 1    
   171   86  208 1    
   172   86  209 1    
   173   87   88 2    
   174   87   89 am   BACKBONE|DICT|INTERRES
   175   89   90 1    
   176   89  210 1    
   177   90   91 1    
   178   90   92 1    
   179   90  211 1    
   180   91  212 1    
   181   91  213 1    
   182   91  214 1    
   183   92   93 2    
   184   92   94 am   BACKBONE|DICT|INTERRES
   185   94   95 1    
   186   94  215 1    
   187   95   96 1    
   188   95   97 1    
   189   95  216 1    
   190   96  217 1    
   191   96  218 1    
   192   96  219 1    
   193   97   98 2    
   194   97   99 am   BACKBONE|DICT|INTERRES
   195   99  100 1    
   196   99  220 1    
   197  100  101 1    
   198  100  102 1    
   199  100  221 1    
   200  101  222 1    
   201  101  223 1    
   202  101  224 1    
   203  102  103 2    
   204  102  104 am   BACKBONE|DICT|INTERRES
   205  104  105 1    
   206  104  225 1    
   207  105  106 1    
   208  105  107 1    
   209  105  226 1    
   210  106  227 1    
   211  106  228 1    
   212  106  229 1    
   213  107  108 2    
   214  107  109 am   BACKBONE|DICT|INTERRES
   215  109  110 1    
   216  109  230 1    
   217  110  111 1    
   218  110  112 1    
   219  110  231 1    
   220  111  232 1    
   221  111  233 1    
   222  111  234 1    
   223  112  113 2    
   224  112  114 am   BACKBONE|DICT|INTERRES
   225  114  115 1    
   226  114  235 1    
   227  115  116 1    
   228  115  117 1    
   229  115  236 1    
   230  116  237 1    
   231  116  238 1    
   232  116  239 1    
   233  117  118 2    
   234  117  119 am   BACKBONE|DICT|INTERRES
   235  119  120 1    
   236  119  240 1    
   237  120  121 1    
   238  120  124 1    
   239  120  241 1    
   240  121  122 am   BACKBONE|DICT|INTERRES
   241  121  123 2    
   242  122  242 1    
   243  122  243 1    
   244  124  125 1    
   245  124  244 1    
   246  124  245 1    
   247  125  126 1    
   248  126  246 1    
   249  126  247 1    
@<TRIPOS>SUBSTRUCTURE
     1 UNK         1 GROUP             0       ****    0 ROOT    
