@<TRIPOS>MOLECULE
3R540
247   249    1
SMALL
USER_CHARGES


@<TRIPOS>ATOM
      1 CA          0.1565  -13.6764  -42.6369 C.3       0 UNK        -0.1800 
      2 C          -1.1111  -14.4376  -42.9854 C.2       0 UNK         0.5000 
      3 O          -1.7594  -14.9894  -42.0961 O.2       0 UNK        -0.5000 
      4 N          -1.4667  -14.4636  -44.2717 N.am      1 UNK        -0.5000 
      5 CA         -2.7091  -15.0392  -44.7814 C.3       1 UNK         0.1400 
      6 C6         -2.5406  -16.5273  -45.1998 C.3       23 UNK        -0.0398 
      7 S7         -1.6849  -16.8175  -46.7895 S.3       23 UNK        -0.2404 
      8 C8         -0.0080  -17.2501  -46.2439 C.3       23 UNK        -0.0205 
      9 C9          0.8100  -17.7936  -47.4054 C.ar      23 UNK        -0.0193 
     10 C10         1.5273  -16.9224  -48.2306 C.ar      23 UNK        -0.1150 
     11 C11         2.2593  -17.4139  -49.3171 C.ar      23 UNK        -0.0193 
     12 C12         2.2889  -18.7885  -49.5595 C.ar      23 UNK        -0.1150 
     13 C13         1.5665  -19.6685  -48.7523 C.ar      23 UNK        -0.0193 
     14 C14         0.8295  -19.1661  -47.6746 C.ar      23 UNK        -0.1150 
     15 C15         1.5545  -21.1540  -49.0741 C.3       23 UNK        -0.0205 
     16 S16         2.4652  -22.1162  -47.8328 S.3       23 UNK        -0.2404 
     17 C17         2.2127  -23.8258  -48.4343 C.3       23 UNK        -0.0398 
     18 CA          1.1097  -24.6109  -47.6781 C.3       11 UNK         0.1400 
     19 N           1.2118  -24.4445  -46.2280 N.am      11 UNK        -0.5000 
     20 C           0.5265  -25.1366  -45.3113 C.2       10 UNK         0.5000 
     21 O          -0.2381  -26.0618  -45.5788 O.2       10 UNK        -0.5000 
     22 CA          0.6821  -24.6679  -43.8550 C.3       10 UNK         0.1400 
     23 CB          1.9048  -25.3268  -43.2006 C.3       10 UNK        -0.1800 
     24 N           0.7930  -23.2118  -43.7328 N.am      10 UNK        -0.5000 
     25 C          -0.1452  -22.3293  -44.0923 C.2       9 UNK         0.5000 
     26 O          -1.2080  -22.6572  -44.6203 O.2       9 UNK        -0.5000 
     27 CA          0.1321  -20.8351  -43.8305 C.3       9 UNK         0.1400 
     28 CB         -0.1433  -20.4837  -42.3577 C.3       9 UNK        -0.1800 
     29 N           1.4463  -20.3174  -44.2426 N.am      9 UNK        -0.5000 
     30 C           2.6777  -20.6556  -43.8284 C.2       8 UNK         0.5000 
     31 O           2.9357  -21.6188  -43.1060 O.2       8 UNK        -0.5000 
     32 CA          3.8082  -19.6918  -44.2405 C.3       8 UNK         0.1400 
     33 CB          4.2542  -19.9211  -45.6905 C.3       8 UNK        -0.1800 
     34 N           3.4277  -18.2873  -44.0688 N.am      8 UNK        -0.5000 
     35 C           3.1919  -17.7078  -42.8824 C.2       7 UNK         0.5000 
     36 O           3.2962  -18.2997  -41.8068 O.2       7 UNK        -0.5000 
     37 CA          2.7508  -16.2292  -42.8968 C.3       7 UNK         0.1400 
     38 CB          3.1564  -15.4884  -41.6039 C.3       7 UNK        -0.1800 
     39 N           3.1864  -15.4718  -44.0775 N.am      7 UNK        -0.5000 
     40 C           4.4479  -15.1810  -44.4329 C.2       6 UNK         0.5000 
     41 O           5.4477  -15.6325  -43.8739 O.2       6 UNK        -0.5000 
     42 CA          4.6202  -14.1955  -45.6063 C.3       6 UNK         0.1400 
     43 CB          4.7690  -14.9647  -46.9280 C.3       6 UNK        -0.1800 
     44 N           3.5234  -13.2306  -45.7413 N.am      6 UNK        -0.5000 
     45 C           3.1570  -12.3137  -44.8320 C.2       5 UNK         0.5000 
     46 O           3.7283  -12.1710  -43.7507 O.2       5 UNK        -0.5000 
     47 CA          1.9609  -11.3949  -45.1793 C.3       5 UNK         0.1400 
     48 CB          2.3117   -9.9161  -44.9432 C.3       5 UNK        -0.1800 
     49 N           1.4694  -11.5385  -46.5523 N.am      5 UNK        -0.5000 
     50 C           0.7383  -12.5529  -47.0287 C.2       4 UNK         0.5000 
     51 O           0.3778  -13.5210  -46.3531 O.2       4 UNK        -0.5000 
     52 CA          0.4475  -12.4975  -48.5338 C.3       4 UNK         0.1400 
     53 CB          1.7435  -12.7797  -49.3224 C.3       4 UNK        -0.1800 
     54 N          -0.5913  -13.4645  -48.8749 N.am      4 UNK        -0.5000 
     55 C          -1.2168  -13.5446  -50.0567 C.2       3 UNK         0.5000 
     56 O          -0.9951  -12.7921  -51.0061 O.2       3 UNK        -0.5000 
     57 CA         -2.2958  -14.6313  -50.1997 C.3       3 UNK         0.1400 
     58 CB         -1.6671  -16.0229  -50.3478 C.3       3 UNK        -0.1800 
     59 N          -3.2256  -14.6339  -49.0734 N.am      3 UNK        -0.5000 
     60 C          -4.1881  -13.7179  -48.8916 C.2       2 UNK         0.5000 
     61 O          -4.4292  -12.8149  -49.6933 O.2       2 UNK        -0.5000 
     62 CA         -5.0369  -13.8290  -47.6089 C.3       2 UNK         0.1400 
     63 CB         -6.3740  -14.5173  -47.9162 C.3       2 UNK        -0.1800 
     64 N          -4.3740  -14.5507  -46.5193 N.am      2 UNK        -0.5000 
     65 C          -3.2852  -14.1133  -45.8731 C.2       1 UNK         0.5000 
     66 O          -2.7472  -13.0297  -46.1164 O.2       1 UNK        -0.5000 
     67 C          -0.2991  -24.2740  -48.2087 C.2       11 UNK         0.5000 
     68 O          -0.8151  -25.0037  -49.0547 O.2       11 UNK        -0.5000 
     69 N          -0.9106  -23.2027  -47.6809 N.am      12 UNK        -0.5000 
     70 CA         -2.2600  -22.7693  -48.0428 C.3       12 UNK         0.1400 
     71 CB         -2.5168  -21.3416  -47.5355 C.3       12 UNK        -0.1800 
     72 C          -3.3221  -23.7412  -47.5117 C.2       12 UNK         0.5000 
     73 O          -4.2562  -24.0713  -48.2410 O.2       12 UNK        -0.5000 
     74 N          -3.1276  -24.2184  -46.2744 N.am      13 UNK        -0.5000 
     75 CA         -3.9579  -25.2364  -45.6333 C.3       13 UNK         0.1400 
     76 CB         -3.5390  -25.3886  -44.1634 C.3       13 UNK        -0.1800 
     77 C          -3.9070  -26.5896  -46.3672 C.2       13 UNK         0.5000 
     78 O          -4.9559  -27.1953  -46.5863 O.2       13 UNK        -0.5000 
     79 N          -2.7004  -27.0182  -46.7667 N.am      14 UNK        -0.5000 
     80 CA         -2.4608  -28.2422  -47.5347 C.3       14 UNK         0.1400 
     81 CB         -0.9521  -28.5250  -47.5960 C.3       14 UNK        -0.1800 
     82 C          -3.0594  -28.1903  -48.9522 C.2       14 UNK         0.5000 
     83 O          -3.6323  -29.1818  -49.4054 O.2       14 UNK        -0.5000 
     84 N          -2.9362  -27.0332  -49.6170 N.am      15 UNK        -0.5000 
     85 CA         -3.5126  -26.7718  -50.9379 C.3       15 UNK         0.1400 
     86 CB         -2.8338  -25.5298  -51.5377 C.3       15 UNK        -0.1800 
     87 C          -5.0412  -26.5726  -50.9134 C.2       15 UNK         0.5000 
     88 O          -5.6762  -26.6912  -51.9620 O.2       15 UNK        -0.5000 
     89 N          -5.5885  -26.2387  -49.7345 N.am      16 UNK        -0.5000 
     90 CA         -6.9570  -25.7749  -49.4808 C.3       16 UNK         0.1400 
     91 CB         -7.9875  -26.8872  -49.7646 C.3       16 UNK        -0.1800 
     92 C          -7.2564  -24.4526  -50.2212 C.2       16 UNK         0.5000 
     93 O          -8.3512  -24.2651  -50.7558 O.2       16 UNK        -0.5000 
     94 N          -6.2516  -23.5692  -50.2592 N.am      17 UNK        -0.5000 
     95 CA         -6.2873  -22.2820  -50.9400 C.3       17 UNK         0.1400 
     96 CB         -4.8517  -21.8755  -51.3109 C.3       17 UNK        -0.1800 
     97 C          -6.9417  -21.2257  -50.0384 C.2       17 UNK         0.5000 
     98 O          -6.4635  -20.9939  -48.9260 O.2       17 UNK        -0.5000 
     99 N          -8.0093  -20.5920  -50.5388 N.am      18 UNK        -0.5000 
    100 CA        -8.6911  -19.4800  -49.8705 C.3       18 UNK         0.1400 
    101 CB       -10.0948  -19.3163  -50.4734 C.3       18 UNK        -0.1800 
    102 C         -7.9032  -18.1591  -49.9727 C.2       18 UNK         0.5000 
    103 O         -8.0254  -17.3102  -49.0906 O.2       18 UNK        -0.5000 
    104 N         -7.1108  -18.0219  -51.0413 N.am      19 UNK        -0.5000 
    105 CA        -6.2290  -16.9083  -51.3689 C.3       19 UNK         0.1400 
    106 CB        -7.0484  -15.6598  -51.7516 C.3       19 UNK        -0.1800 
    107 C         -5.3239  -17.3616  -52.5277 C.2       19 UNK         0.5000 
    108 O         -5.5400  -18.4431  -53.0830 O.2       19 UNK        -0.5000 
    109 N         -4.3269  -16.5311  -52.8671 N.am      20 UNK        -0.5000 
    110 CA        -3.3571  -16.7130  -53.9615 C.3       20 UNK         0.1400 
    111 CB        -4.0643  -16.6715  -55.3321 C.3       20 UNK        -0.1800 
    112 C         -2.4407  -17.9494  -53.8072 C.2       20 UNK         0.5000 
    113 O         -1.8765  -18.4314  -54.7918 O.2       20 UNK        -0.5000 
    114 N         -2.2754  -18.4158  -52.5616 N.am      21 UNK        -0.5000 
    115 CA        -1.4896  -19.5868  -52.1641 C.3       21 UNK         0.1400 
    116 CB        -1.7019  -19.8280  -50.6632 C.3       21 UNK        -0.1800 
    117 C          0.0166  -19.4940  -52.4849 C.2       21 UNK         0.5000 
    118 O          0.6822  -20.5287  -52.5375 O.2       21 UNK        -0.5000 
    119 N          0.5210  -18.2732  -52.7106 N.am      22 UNK        -0.5000 
    120 CA         1.8882  -18.0021  -53.1806 C.3       22 UNK         0.1400 
    121 C          2.1677  -18.4716  -54.6407 C.2       22 UNK         0.5000 
    122 N          1.1578  -18.7549  -55.4576 N.am      22 UNK        -0.7600 
    123 O          3.3242  -18.5786  -55.0389 O.2       22 UNK        -0.5000 
    124 C124        2.2976  -16.5121  -53.0203 C.3       23 UNK        -0.0398 
    125 S125        1.8347  -15.7199  -51.4413 S.3       23 UNK        -0.2404 
    126 C126        2.9911  -16.4592  -50.2464 C.3       23 UNK        -0.0205 
    127 H127        0.9103  -13.7994  -43.4126 H         1 UNK         0.0600 
    128 H128       -0.0613  -12.6144  -42.5260 H         1 UNK         0.0600 
    129 H129        0.5694  -14.0375  -41.6957 H         1 UNK         0.0600 
    130 H130       -0.9129  -13.9768  -44.9740 H         1 UNK         0.3000 
    131 H131       -3.4522  -15.0108  -43.9816 H         1 UNK         0.0600 
    132 H132       -3.5229  -16.9949  -45.2777 H         1 UNK         0.0800 
    133 H133       -2.0342  -17.0790  -44.4068 H         1 UNK         0.0800 
    134 H134        0.4720  -16.3663  -45.8211 H         1 UNK         0.0800 
    135 H135       -0.0629  -17.9896  -45.4454 H         1 UNK         0.0800 
    136 H136        1.4905  -15.8587  -48.0438 H         1 UNK         0.1150 
    137 H137        2.8552  -19.1751  -50.3935 H         1 UNK         0.1150 
    138 H138        0.2643  -19.8450  -47.0532 H         1 UNK         0.1150 
    139 H139        0.5234  -21.4952  -49.1280 H         1 UNK         0.0800 
    140 H140        1.9879  -21.3379  -50.0586 H         1 UNK         0.0800 
    141 H141        3.1621  -24.3466  -48.3036 H         1 UNK         0.0800 
    142 H142        2.0343  -23.8248  -49.5114 H         1 UNK         0.0800 
    143 H143        1.2678  -25.6714  -47.8863 H         1 UNK         0.0600 
    144 H144        1.8044  -23.6892  -45.9146 H         1 UNK         0.3000 
    145 H145       -0.2100  -24.9811  -43.3093 H         1 UNK         0.0600 
    146 H146        1.9738  -25.0662  -42.1443 H         1 UNK         0.0600 
    147 H147        1.8442  -26.4141  -43.2641 H         1 UNK         0.0600 
    148 H148        2.8338  -25.0192  -43.6825 H         1 UNK         0.0600 
    149 H149        1.6553  -22.8378  -43.3399 H         1 UNK         0.3000 
    150 H150       -0.5953  -20.2868  -44.4314 H         1 UNK         0.0600 
    151 H151       -0.0755  -19.4085  -42.1907 H         1 UNK         0.0600 
    152 H152        0.5640  -20.9708  -41.6857 H         1 UNK         0.0600 
    153 H153       -1.1455  -20.7962  -42.0610 H         1 UNK         0.0600 
    154 H154        1.4044  -19.5226  -44.8617 H         1 UNK         0.3000 
    155 H155        4.6634  -19.8913  -43.5913 H         1 UNK         0.0600 
    156 H156        4.5249  -20.9646  -45.8559 H         1 UNK         0.0600 
    157 H157        3.4688  -19.6640  -46.4010 H         1 UNK         0.0600 
    158 H158        5.1294  -19.3179  -45.9322 H         1 UNK         0.0600 
    159 H159        3.3505  -17.7256  -44.9033 H         1 UNK         0.3000 
    160 H160        1.6611  -16.2478  -42.9378 H         1 UNK         0.0600 
    161 H161        4.2266  -15.5714  -41.4115 H         1 UNK         0.0600 
    162 H162        2.6362  -15.8985  -40.7376 H         1 UNK         0.0600 
    163 H163        2.9148  -14.4271  -41.6575 H         1 UNK         0.0600 
    164 H164        2.4504  -15.0528  -44.6276 H         1 UNK         0.3000 
    165 H165        5.5378  -13.6308  -45.4298 H         1 UNK         0.0600 
    166 H166        4.9524  -14.2881  -47.7630 H         1 UNK         0.0600 
    167 H167        5.6087  -15.6596  -46.8836 H         1 UNK         0.0600 
    168 H168        3.8758  -15.5466  -47.1554 H         1 UNK         0.0600 
    169 H169        2.9925  -13.2719  -46.5973 H         1 UNK         0.3000 
    170 H170        1.1474  -11.6554  -44.5012 H         1 UNK         0.0600 
    171 H171        2.6091   -9.7404  -43.9085 H         1 UNK         0.0600 
    172 H172        3.1348   -9.5919  -45.5811 H         1 UNK         0.0600 
    173 H173        1.4563   -9.2705  -45.1435 H         1 UNK         0.0600 
    174 H174        1.7432  -10.8041  -47.1895 H         1 UNK         0.3000 
    175 H175        0.0805  -11.4978  -48.7745 H         1 UNK         0.0600 
    176 H176        2.5188  -12.0485  -49.0918 H         1 UNK         0.0600 
    177 H177        1.5842  -12.7358  -50.3993 H         1 UNK         0.0600 
    178 H178        2.1442  -13.7643  -49.0854 H         1 UNK         0.0600 
    179 H179       -0.8519  -14.0815  -48.1159 H         1 UNK         0.3000 
    180 H180       -2.8635  -14.4239  -51.1091 H         1 UNK         0.0600 
    181 H181       -0.9368  -16.2292  -49.5661 H         1 UNK         0.0600 
    182 H182       -1.1477  -16.1058  -51.3016 H         1 UNK         0.0600 
    183 H183       -2.4242  -16.8045  -50.3071 H         1 UNK         0.0600 
    184 H184       -3.0788  -15.3331  -48.3590 H         1 UNK         0.3000 
    185 H185       -5.2452  -12.8133  -47.2661 H         1 UNK         0.0600 
    186 H186       -7.0272  -14.5242  -47.0436 H         1 UNK         0.0600 
    187 H187       -6.9080  -14.0031  -48.7164 H         1 UNK         0.0600 
    188 H188       -6.2246  -15.5497  -48.2325 H         1 UNK         0.0600 
    189 H189       -4.7758  -15.4419  -46.2675 H         1 UNK         0.3000 
    190 H190       -0.4523  -22.6978  -46.9369 H         1 UNK         0.3000 
    191 H191       -2.3311  -22.7592  -49.1323 H         1 UNK         0.0600 
    192 H192       -1.7775  -20.6421  -47.9211 H         1 UNK         0.0600 
    193 H193       -3.4961  -20.9875  -47.8612 H         1 UNK         0.0600 
    194 H194       -2.4962  -21.2820  -46.4477 H         1 UNK         0.0600 
    195 H195       -2.3505  -23.8518  -45.7334 H         1 UNK         0.3000 
    196 H196       -4.9910  -24.8834  -45.6572 H         1 UNK         0.0600 
    197 H197       -4.1766  -26.1087  -43.6491 H         1 UNK         0.0600 
    198 H198       -3.6204  -24.4412  -43.6302 H         1 UNK         0.0600 
    199 H199       -2.5102  -25.7363  -44.0701 H         1 UNK         0.0600 
    200 H200       -1.8766  -26.4902  -46.4915 H         1 UNK         0.3000 
    201 H201       -2.9386  -29.0682  -47.0037 H         1 UNK         0.0600 
    202 H202       -0.5366  -28.6616  -46.5975 H         1 UNK         0.0600 
    203 H203       -0.4093  -27.7098  -48.0756 H         1 UNK         0.0600 
    204 H204       -0.7465  -29.4352  -48.1606 H         1 UNK         0.0600 
    205 H205       -2.3917  -26.2823  -49.2044 H         1 UNK         0.3000 
    206 H206       -3.3001  -27.6250  -51.5855 H         1 UNK         0.0600 
    207 H207       -1.7581  -25.6769  -51.6359 H         1 UNK         0.0600 
    208 H208       -3.2233  -25.3096  -52.5325 H         1 UNK         0.0600 
    209 H209       -2.9959  -24.6465  -50.9186 H         1 UNK         0.0600 
    210 H210       -4.9555  -26.1336  -48.9522 H         1 UNK         0.3000 
    211 H211       -7.0049  -25.5450  -48.4154 H         1 UNK         0.0600 
    212 H212       -8.0488  -27.1260  -50.8265 H         1 UNK         0.0600 
    213 H213       -8.9841  -26.5854  -49.4409 H         1 UNK         0.0600 
    214 H214       -7.7354  -27.8021  -49.2282 H         1 UNK         0.0600 
    215 H215       -5.4284  -23.7624  -49.6946 H         1 UNK         0.3000 
    216 H216       -6.8608  -22.3794  -51.8644 H         1 UNK         0.0600 
    217 H217       -4.3979  -22.6022  -51.9849 H         1 UNK         0.0600 
    218 H218       -4.2173  -21.7980  -50.4278 H         1 UNK         0.0600 
    219 H219       -4.8350  -20.9084  -51.8153 H         1 UNK         0.0600 
    220 H220       -8.3604  -20.8576  -51.4479 H         1 UNK         0.3000 
    221 H221       -8.8018  -19.7209  -48.8109 H         1 UNK         0.0600 
    222 H222      -10.0522  -19.0796  -51.5373 H         1 UNK         0.0600 
    223 H223      -10.6839  -20.2259  -50.3541 H         1 UNK         0.0600 
    224 H224      -10.6395  -18.5104  -49.9796 H         1 UNK         0.0600 
    225 H225       -7.0447  -18.7822  -51.7076 H         1 UNK         0.3000 
    226 H226       -5.6001  -16.6895  -50.5037 H         1 UNK         0.0600 
    227 H227       -7.6892  -15.3342  -50.9325 H         1 UNK         0.0600 
    228 H228       -6.3990  -14.8189  -51.9971 H         1 UNK         0.0600 
    229 H229       -7.6843  -15.8492  -52.6172 H         1 UNK         0.0600 
    230 H230       -4.2474  -15.6589  -52.3649 H         1 UNK         0.3000 
    231 H231       -2.6914  -15.8499  -53.9157 H         1 UNK         0.0600 
    232 H232       -3.3401  -16.6434  -56.1471 H         1 UNK         0.0600 
    233 H233       -4.6897  -15.7838  -55.4266 H         1 UNK         0.0600 
    234 H234       -4.6965  -17.5459  -55.4889 H         1 UNK         0.0600 
    235 H235       -2.7847  -17.9560  -51.8239 H         1 UNK         0.3000 
    236 H236       -1.8887  -20.4444  -52.7095 H         1 UNK         0.0600 
    237 H237       -1.2872  -20.7922  -50.3725 H         1 UNK         0.0600 
    238 H238       -1.2158  -19.0620  -50.0569 H         1 UNK         0.0600 
    239 H239       -2.7598  -19.8400  -50.4023 H         1 UNK         0.0600 
    240 H240       -0.0861  -17.4742  -52.6234 H         1 UNK         0.3000 
    241 H241        2.5587  -18.5885  -52.5528 H         1 UNK         0.0600 
    242 H242        1.3536  -19.0587  -56.3982 H         1 UNK         0.3800 
    243 H243        0.1958  -18.6685  -55.1507 H         1 UNK         0.3800 
    244 H244        3.3742  -16.3996  -53.1593 H         1 UNK         0.0800 
    245 H245        1.8345  -15.9154  -53.8083 H         1 UNK         0.0800 
    246 H246        3.4591  -15.6659  -49.6637 H         1 UNK         0.0800 
    247 H247        3.8025  -16.9705  -50.7660 H         1 UNK         0.0800 
@<TRIPOS>BOND
     1    1    2 1    
     2    1  127 1    
     3    1  128 1    
     4    1  129 1    
     5    2    3 2    
     6    2    4 am   BACKBONE|DICT|INTERRES
     7    4    5 1    
     8    4  130 1    
     9    5    6 1    
    10    5   65 1    
    11    5  131 1    
    12    6    7 1    
    13    6  132 1    
    14    6  133 1    
    15    7    8 1    
    16    8    9 1    
    17    8  134 1    
    18    8  135 1    
    19    9   10 ar   
    20    9   14 ar   
    21   10   11 ar   
    22   10  136 1    
    23   11   12 ar   
    24   11  126 1    
    25   12   13 ar   
    26   12  137 1    
    27   13   14 ar   
    28   13   15 1    
    29   14  138 1    
    30   15   16 1    
    31   15  139 1    
    32   15  140 1    
    33   16   17 1    
    34   17   18 1    
    35   17  141 1    
    36   17  142 1    
    37   18   19 1    
    38   18   67 1    
    39   18  143 1    
    40   19   20 am   BACKBONE|DICT|INTERRES
    41   19  144 1    
    42   20   21 2    
    43   20   22 1    
    44   22   23 1    
    45   22   24 1    
    46   22  145 1    
    47   23  146 1    
    48   23  147 1    
    49   23  148 1    
    50   24   25 am   BACKBONE|DICT|INTERRES
    51   24  149 1    
    52   25   26 2    
    53   25   27 1    
    54   27   28 1    
    55   27   29 1    
    56   27  150 1    
    57   28  151 1    
    58   28  152 1    
    59   28  153 1    
    60   29   30 am   BACKBONE|DICT|INTERRES
    61   29  154 1    
    62   30   31 2    
    63   30   32 1    
    64   32   33 1    
    65   32   34 1    
    66   32  155 1    
    67   33  156 1    
    68   33  157 1    
    69   33  158 1    
    70   34   35 am   BACKBONE|DICT|INTERRES
    71   34  159 1    
    72   35   36 2    
    73   35   37 1    
    74   37   38 1    
    75   37   39 1    
    76   37  160 1    
    77   38  161 1    
    78   38  162 1    
    79   38  163 1    
    80   39   40 am   BACKBONE|DICT|INTERRES
    81   39  164 1    
    82   40   41 2    
    83   40   42 1    
    84   42   43 1    
    85   42   44 1    
    86   42  165 1    
    87   43  166 1    
    88   43  167 1    
    89   43  168 1    
    90   44   45 am   BACKBONE|DICT|INTERRES
    91   44  169 1    
    92   45   46 2    
    93   45   47 1    
    94   47   48 1    
    95   47   49 1    
    96   47  170 1    
    97   48  171 1    
    98   48  172 1    
    99   48  173 1    
   100   49   50 am   BACKBONE|DICT|INTERRES
   101   49  174 1    
   102   50   51 2    
   103   50   52 1    
   104   52   53 1    
   105   52   54 1    
   106   52  175 1    
   107   53  176 1    
   108   53  177 1    
   109   53  178 1    
   110   54   55 am   BACKBONE|DICT|INTERRES
   111   54  179 1    
   112   55   56 2    
   113   55   57 1    
   114   57   58 1    
   115   57   59 1    
   116   57  180 1    
   117   58  181 1    
   118   58  182 1    
   119   58  183 1    
   120   59   60 am   BACKBONE|DICT|INTERRES
   121   59  184 1    
   122   60   61 2    
   123   60   62 1    
   124   62   63 1    
   125   62   64 1    
   126   62  185 1    
   127   63  186 1    
   128   63  187 1    
   129   63  188 1    
   130   64   65 am   BACKBONE|DICT|INTERRES
   131   64  189 1    
   132   65   66 2    
   133   67   68 2    
   134   67   69 am   BACKBONE|DICT|INTERRES
   135   69   70 1    
   136   69  190 1    
   137   70   71 1    
   138   70   72 1    
   139   70  191 1    
   140   71  192 1    
   141   71  193 1    
   142   71  194 1    
   143   72   73 2    
   144   72   74 am   BACKBONE|DICT|INTERRES
   145   74   75 1    
   146   74  195 1    
   147   75   76 1    
   148   75   77 1    
   149   75  196 1    
   150   76  197 1    
   151   76  198 1    
   152   76  199 1    
   153   77   78 2    
   154   77   79 am   BACKBONE|DICT|INTERRES
   155   79   80 1    
   156   79  200 1    
   157   80   81 1    
   158   80   82 1    
   159   80  201 1    
   160   81  202 1    
   161   81  203 1    
   162   81  204 1    
   163   82   83 2    
   164   82   84 am   BACKBONE|DICT|INTERRES
   165   84   85 1    
   166   84  205 1    
   167   85   86 1    
   168   85   87 1    
   169   85  206 1    
   170   86  207 1    
   171   86  208 1    
   172   86  209 1    
   173   87   88 2    
   174   87   89 am   BACKBONE|DICT|INTERRES
   175   89   90 1    
   176   89  210 1    
   177   90   91 1    
   178   90   92 1    
   179   90  211 1    
   180   91  212 1    
   181   91  213 1    
   182   91  214 1    
   183   92   93 2    
   184   92   94 am   BACKBONE|DICT|INTERRES
   185   94   95 1    
   186   94  215 1    
   187   95   96 1    
   188   95   97 1    
   189   95  216 1    
   190   96  217 1    
   191   96  218 1    
   192   96  219 1    
   193   97   98 2    
   194   97   99 am   BACKBONE|DICT|INTERRES
   195   99  100 1    
   196   99  220 1    
   197  100  101 1    
   198  100  102 1    
   199  100  221 1    
   200  101  222 1    
   201  101  223 1    
   202  101  224 1    
   203  102  103 2    
   204  102  104 am   BACKBONE|DICT|INTERRES
   205  104  105 1    
   206  104  225 1    
   207  105  106 1    
   208  105  107 1    
   209  105  226 1    
   210  106  227 1    
   211  106  228 1    
   212  106  229 1    
   213  107  108 2    
   214  107  109 am   BACKBONE|DICT|INTERRES
   215  109  110 1    
   216  109  230 1    
   217  110  111 1    
   218  110  112 1    
   219  110  231 1    
   220  111  232 1    
   221  111  233 1    
   222  111  234 1    
   223  112  113 2    
   224  112  114 am   BACKBONE|DICT|INTERRES
   225  114  115 1    
   226  114  235 1    
   227  115  116 1    
   228  115  117 1    
   229  115  236 1    
   230  116  237 1    
   231  116  238 1    
   232  116  239 1    
   233  117  118 2    
   234  117  119 am   BACKBONE|DICT|INTERRES
   235  119  120 1    
   236  119  240 1    
   237  120  121 1    
   238  120  124 1    
   239  120  241 1    
   240  121  122 am   BACKBONE|DICT|INTERRES
   241  121  123 2    
   242  122  242 1    
   243  122  243 1    
   244  124  125 1    
   245  124  244 1    
   246  124  245 1    
   247  125  126 1    
   248  126  246 1    
   249  126  247 1    
@<TRIPOS>SUBSTRUCTURE
     1 UNK         1 GROUP             0       ****    0 ROOT    
