@<TRIPOS>MOLECULE
3R540
247   249    1
SMALL
USER_CHARGES


@<TRIPOS>ATOM
      1 CA          1.0830  -15.9514  -47.8197 C.3       0 UNK        -0.1800 
      2 C           1.5763  -14.5370  -48.0806 C.2       0 UNK         0.5000 
      3 O           1.1475  -13.6024  -47.4037 O.2       0 UNK        -0.5000 
      4 N           2.4858  -14.3778  -49.0515 N.am      1 UNK        -0.5000 
      5 CA          3.0467  -13.0977  -49.5126 C.3       1 UNK         0.1400 
      6 C6          3.9130  -13.2697  -50.7847 C.3       23 UNK        -0.0398 
      7 S7          5.2853  -14.4635  -50.5858 S.3       23 UNK        -0.2404 
      8 C8          4.9562  -15.6461  -51.9282 C.3       23 UNK        -0.0205 
      9 C9          3.7492  -16.5305  -51.6496 C.ar      23 UNK        -0.0193 
     10 C10         2.5274  -16.2799  -52.2810 C.ar      23 UNK        -0.1150 
     11 C11         1.4405  -17.1383  -52.0915 C.ar      23 UNK        -0.0193 
     12 C12         1.5792  -18.2483  -51.2533 C.ar      23 UNK        -0.1150 
     13 C13         2.7879  -18.4972  -50.5970 C.ar      23 UNK        -0.0193 
     14 C14         3.8686  -17.6330  -50.7985 C.ar      23 UNK        -0.1150 
     15 C15         2.9437  -19.7159  -49.6990 C.3       23 UNK        -0.0205 
     16 S16         2.4767  -19.3574  -47.9769 S.3       23 UNK        -0.2404 
     17 C17         0.6876  -19.7278  -47.9857 C.3       23 UNK        -0.0398 
     18 CA          0.4042  -21.1381  -47.4195 C.3       11 UNK         0.1400 
     19 N           0.6858  -21.2354  -45.9857 N.am      11 UNK        -0.5000 
     20 C           0.7693  -22.3881  -45.3094 C.2       10 UNK         0.5000 
     21 O           0.6372  -23.4956  -45.8306 O.2       10 UNK        -0.5000 
     22 CA          0.9913  -22.2876  -43.7902 C.3       10 UNK         0.1400 
     23 CB          2.4623  -21.9842  -43.4693 C.3       10 UNK        -0.1800 
     24 N           0.1263  -21.2892  -43.1590 N.am      10 UNK        -0.5000 
     25 C          -1.2123  -21.3634  -43.1277 C.2       9 UNK         0.5000 
     26 O          -1.8550  -22.2977  -43.6056 O.2       9 UNK        -0.5000 
     27 CA         -1.9668  -20.1828  -42.4913 C.3       9 UNK         0.1400 
     28 CB         -1.9418  -20.2839  -40.9590 C.3       9 UNK        -0.1800 
     29 N          -1.4486  -18.8811  -42.9128 N.am      9 UNK        -0.5000 
     30 C          -1.4593  -18.4323  -44.1767 C.2       8 UNK         0.5000 
     31 O          -1.9397  -19.0555  -45.1218 O.2       8 UNK        -0.5000 
     32 CA         -0.7591  -17.0897  -44.4463 C.3       8 UNK         0.1400 
     33 CB         -1.6410  -15.9062  -44.0227 C.3       8 UNK        -0.1800 
     34 N           0.5415  -16.9954  -43.7875 N.am      8 UNK        -0.5000 
     35 C           1.5681  -17.8296  -44.0021 C.2       7 UNK         0.5000 
     36 O           1.5418  -18.7574  -44.8080 O.2       7 UNK        -0.5000 
     37 CA          2.8108  -17.6266  -43.1234 C.3       7 UNK         0.1400 
     38 CB          3.6435  -16.4347  -43.6188 C.3       7 UNK        -0.1800 
     39 N           2.4503  -17.4385  -41.7181 N.am      7 UNK        -0.5000 
     40 C           1.9229  -18.3957  -40.9408 C.2       6 UNK         0.5000 
     41 O           1.7163  -19.5490  -41.3180 O.2       6 UNK        -0.5000 
     42 CA          1.5261  -17.9834  -39.5121 C.3       6 UNK         0.1400 
     43 CB          2.7467  -18.0108  -38.5801 C.3       6 UNK        -0.1800 
     44 N           0.9051  -16.6592  -39.4615 N.am      6 UNK        -0.5000 
     45 C          -0.2886  -16.3639  -39.9950 C.2       5 UNK         0.5000 
     46 O          -1.0037  -17.1826  -40.5713 O.2       5 UNK        -0.5000 
     47 CA         -0.7340  -14.8926  -39.9128 C.3       5 UNK         0.1400 
     48 CB         -1.3862  -14.5987  -38.5535 C.3       5 UNK        -0.1800 
     49 N           0.3540  -13.9384  -40.1501 N.am      5 UNK        -0.5000 
     50 C           1.0598  -13.8652  -41.2855 C.2       4 UNK         0.5000 
     51 O           0.9180  -14.6442  -42.2307 O.2       4 UNK        -0.5000 
     52 CA          2.1307  -12.7664  -41.3706 C.3       4 UNK         0.1400 
     53 CB          3.5027  -13.3204  -40.9567 C.3       4 UNK        -0.1800 
     54 N           2.2166  -12.2558  -42.7362 N.am      4 UNK        -0.5000 
     55 C           1.3231  -11.4350  -43.3025 C.2       3 UNK         0.5000 
     56 O           0.3915  -10.9229  -42.6788 O.2       3 UNK        -0.5000 
     57 CA          1.4562  -11.1588  -44.8162 C.3       3 UNK         0.1400 
     58 CB          1.4209   -9.6497  -45.1338 C.3       3 UNK        -0.1800 
     59 N           2.5967  -11.8102  -45.4753 N.am      3 UNK        -0.5000 
     60 C           3.9066  -11.5538  -45.3232 C.2       2 UNK         0.5000 
     61 O           4.3567  -10.7296  -44.5276 O.2       2 UNK        -0.5000 
     62 CA          4.8892  -12.3686  -46.1912 C.3       2 UNK         0.1400 
     63 CB          5.5466  -13.4780  -45.3563 C.3       2 UNK        -0.1800 
     64 N           4.2646  -12.9738  -47.3691 N.am      2 UNK        -0.5000 
     65 C           3.8026  -12.2941  -48.4285 C.2       1 UNK         0.5000 
     66 O           3.9324  -11.0764  -48.5626 O.2       1 UNK        -0.5000 
     67 C          -1.0214  -21.6174  -47.7618 C.2       11 UNK         0.5000 
     68 O          -1.1896  -22.3163  -48.7607 O.2       11 UNK        -0.5000 
     69 N          -2.0123  -21.2914  -46.9178 N.am      12 UNK        -0.5000 
     70 CA         -3.3872  -21.7815  -47.0400 C.3       12 UNK         0.1400 
     71 CB         -4.3017  -21.0546  -46.0436 C.3       12 UNK        -0.1800 
     72 C          -3.4895  -23.3058  -46.8594 C.2       12 UNK         0.5000 
     73 O          -4.2004  -23.9546  -47.6264 O.2       12 UNK        -0.5000 
     74 N          -2.7534  -23.8552  -45.8829 N.am      13 UNK        -0.5000 
     75 CA         -2.6446  -25.2936  -45.6379 C.3       13 UNK         0.1400 
     76 CB         -1.9036  -25.5463  -44.3166 C.3       13 UNK        -0.1800 
     77 C          -1.9690  -26.0387  -46.8028 C.2       13 UNK         0.5000 
     78 O          -2.4689  -27.0841  -47.2181 O.2       13 UNK        -0.5000 
     79 N          -0.8852  -25.4658  -47.3471 N.am      14 UNK        -0.5000 
     80 CA         -0.1793  -25.9698  -48.5297 C.3       14 UNK         0.1400 
     81 CB          1.1073  -25.1587  -48.7444 C.3       14 UNK        -0.1800 
     82 C          -1.0509  -25.9584  -49.8016 C.2       14 UNK         0.5000 
     83 O          -0.9644  -26.8838  -50.6090 O.2       14 UNK        -0.5000 
     84 N          -1.9049  -24.9350  -49.9311 N.am      15 UNK        -0.5000 
     85 CA         -2.9160  -24.7999  -50.9809 C.3       15 UNK         0.1400 
     86 CB         -3.3236  -23.3209  -51.0793 C.3       15 UNK        -0.1800 
     87 C          -4.1643  -25.6809  -50.7624 C.2       15 UNK         0.5000 
     88 O          -5.0421  -25.6879  -51.6253 O.2       15 UNK        -0.5000 
     89 N          -4.2561  -26.3682  -49.6128 N.am      16 UNK        -0.5000 
     90 CA         -5.3866  -27.1843  -49.1523 C.3       16 UNK         0.1400 
     91 CB         -5.5352  -28.4485  -50.0238 C.3       16 UNK        -0.1800 
     92 C          -6.7000  -26.3796  -49.0263 C.2       16 UNK         0.5000 
     93 O          -7.7825  -26.9185  -49.2630 O.2       16 UNK        -0.5000 
     94 N          -6.5665  -25.0930  -48.6699 N.am      17 UNK        -0.5000 
     95 CA         -7.6140  -24.0776  -48.5309 C.3       17 UNK         0.1400 
     96 CB         -8.5481  -24.4204  -47.3519 C.3       17 UNK        -0.1800 
     97 C          -8.3857  -23.7674  -49.8346 C.2       17 UNK         0.5000 
     98 O          -9.4980  -23.2402  -49.7665 O.2       17 UNK        -0.5000 
     99 N          -7.7971  -24.0796  -50.9992 N.am      18 UNK        -0.5000 
    100 CA        -8.3683  -23.7875  -52.3140 C.3       18 UNK         0.1400 
    101 CB        -7.6002  -24.5706  -53.3886 C.3       18 UNK        -0.1800 
    102 C         -8.3444  -22.2786  -52.6202 C.2       18 UNK         0.5000 
    103 O         -7.3466  -21.6093  -52.3392 O.2       18 UNK        -0.5000 
    104 N         -9.4374  -21.7745  -53.2043 N.am      19 UNK        -0.5000 
    105 CA        -9.5766  -20.3831  -53.6295 C.3       19 UNK         0.1400 
    106 CB       -11.0628  -20.0769  -53.8707 C.3       19 UNK        -0.1800 
    107 C         -8.7539  -20.1058  -54.8999 C.2       19 UNK         0.5000 
    108 O         -8.7490  -20.9346  -55.8133 O.2       19 UNK        -0.5000 
    109 N         -8.0938  -18.9389  -54.9326 N.am      20 UNK        -0.5000 
    110 CA        -7.2734  -18.4119  -56.0338 C.3       20 UNK         0.1400 
    111 CB        -8.1543  -18.0861  -57.2582 C.3       20 UNK        -0.1800 
    112 C         -6.0556  -19.2919  -56.3990 C.2       20 UNK         0.5000 
    113 O         -5.5619  -19.2208  -57.5266 O.2       20 UNK        -0.5000 
    114 N         -5.5710  -20.0886  -55.4345 N.am      21 UNK        -0.5000 
    115 CA        -4.4874  -21.0638  -55.5978 C.3       21 UNK         0.1400 
    116 CB        -4.3466  -21.8696  -54.2998 C.3       21 UNK        -0.1800 
    117 C         -3.1296  -20.4555  -55.9996 C.2       21 UNK         0.5000 
    118 O         -2.3163  -21.1493  -56.6114 O.2       21 UNK        -0.5000 
    119 N         -2.9177  -19.1752  -55.6676 N.am      22 UNK        -0.5000 
    120 CA        -1.7508  -18.3849  -56.0898 C.3       22 UNK         0.1400 
    121 C         -1.7949  -17.9141  -57.5769 C.2       22 UNK         0.5000 
    122 N         -2.8905  -18.0905  -58.3084 N.am      22 UNK        -0.7600 
    123 O         -0.8106  -17.3830  -58.0834 O.2       22 UNK        -0.5000 
    124 C124       -1.4762  -17.2028  -55.1139 C.3       23 UNK        -0.0398 
    125 S125        0.2743  -17.1354  -54.5995 S.3       23 UNK        -0.2404 
    126 C126        0.1216  -16.8775  -52.8031 C.3       23 UNK        -0.0205 
    127 H127       -0.0032  -15.9621  -47.7336 H         1 UNK         0.0600 
    128 H128        1.5067  -16.3348  -46.8914 H         1 UNK         0.0600 
    129 H129        1.3618  -16.6252  -48.6296 H         1 UNK         0.0600 
    130 H130        2.8161  -15.1910  -49.5534 H         1 UNK         0.3000 
    131 H131        2.1922  -12.4776  -49.7915 H         1 UNK         0.0600 
    132 H132        3.2743  -13.5814  -51.6106 H         1 UNK         0.0800 
    133 H133        4.3325  -12.3122  -51.0994 H         1 UNK         0.0800 
    134 H134        5.8370  -16.2763  -52.0595 H         1 UNK         0.0800 
    135 H135        4.8323  -15.1060  -52.8683 H         1 UNK         0.0800 
    136 H136        2.4264  -15.4348  -52.9474 H         1 UNK         0.1150 
    137 H137        0.7469  -18.9238  -51.1206 H         1 UNK         0.1150 
    138 H138        4.8118  -17.8292  -50.3078 H         1 UNK         0.1150 
    139 H139        2.3572  -20.5525  -50.0822 H         1 UNK         0.0800 
    140 H140        3.9825  -20.0492  -49.7125 H         1 UNK         0.0800 
    141 H141        0.3067  -19.6313  -49.0021 H         1 UNK         0.0800 
    142 H142        0.1710  -18.9687  -47.3957 H         1 UNK         0.0800 
    143 H143        1.0813  -21.8314  -47.9233 H         1 UNK         0.0600 
    144 H144        0.8585  -20.3593  -45.4967 H         1 UNK         0.3000 
    145 H145        0.7462  -23.2594  -43.3567 H         1 UNK         0.0600 
    146 H146        2.6422  -22.0029  -42.3944 H         1 UNK         0.0600 
    147 H147        3.1218  -22.7251  -43.9227 H         1 UNK         0.0600 
    148 H148        2.7636  -21.0047  -43.8411 H         1 UNK         0.0600 
    149 H149        0.5887  -20.5023  -42.7152 H         1 UNK         0.3000 
    150 H150       -3.0076  -20.2439  -42.8156 H         1 UNK         0.0600 
    151 H151       -2.3253  -21.2484  -40.6240 H         1 UNK         0.0600 
    152 H152       -2.5624  -19.5119  -40.5039 H         1 UNK         0.0600 
    153 H153       -0.9311  -20.1759  -40.5643 H         1 UNK         0.0600 
    154 H154       -1.0678  -18.2871  -42.1818 H         1 UNK         0.3000 
    155 H155       -0.5894  -17.0180  -45.5218 H         1 UNK         0.0600 
    156 H156       -1.8231  -15.9041  -42.9479 H         1 UNK         0.0600 
    157 H157       -2.6100  -15.9427  -44.5218 H         1 UNK         0.0600 
    158 H158       -1.1745  -14.9559  -44.2838 H         1 UNK         0.0600 
    159 H159        0.6599  -16.2334  -43.1230 H         1 UNK         0.3000 
    160 H160        3.4267  -18.5253  -43.1993 H         1 UNK         0.0600 
    161 H161        3.0793  -15.5025  -43.5873 H         1 UNK         0.0600 
    162 H162        3.9597  -16.5892  -44.6513 H         1 UNK         0.0600 
    163 H163        4.5444  -16.3045  -43.0192 H         1 UNK         0.0600 
    164 H164        2.5318  -16.5042  -41.3475 H         1 UNK         0.3000 
    165 H165        0.8006  -18.7127  -39.1452 H         1 UNK         0.0600 
    166 H166        2.4607  -17.7971  -37.5501 H         1 UNK         0.0600 
    167 H167        3.2205  -18.9933  -38.5875 H         1 UNK         0.0600 
    168 H168        3.5001  -17.2806  -38.8783 H         1 UNK         0.0600 
    169 H169        1.4274  -15.9231  -39.0100 H         1 UNK         0.3000 
    170 H170       -1.4850  -14.7351  -40.6897 H         1 UNK         0.0600 
    171 H171       -2.2110  -15.2860  -38.3598 H         1 UNK         0.0600 
    172 H172       -0.6745  -14.7004  -37.7333 H         1 UNK         0.0600 
    173 H173       -1.7937  -13.5881  -38.5218 H         1 UNK         0.0600 
    174 H174        0.5363  -13.2715  -39.4140 H         1 UNK         0.3000 
    175 H175        1.8631  -11.9475  -40.6994 H         1 UNK         0.0600 
    176 H176        3.8212  -14.1401  -41.6012 H         1 UNK         0.0600 
    177 H177        4.2682  -12.5454  -41.0008 H         1 UNK         0.0600 
    178 H178        3.4808  -13.6963  -39.9331 H         1 UNK         0.0600 
    179 H179        2.9314  -12.6524  -43.3257 H         1 UNK         0.3000 
    180 H180        0.5708  -11.6050  -45.2715 H         1 UNK         0.0600 
    181 H181        2.2383   -9.1129  -44.6520 H         1 UNK         0.0600 
    182 H182        0.4897   -9.1991  -44.7886 H         1 UNK         0.0600 
    183 H183        1.4874   -9.4714  -46.2072 H         1 UNK         0.0600 
    184 H184        2.3303  -12.5153  -46.1559 H         1 UNK         0.3000 
    185 H185        5.6705  -11.6858  -46.5314 H         1 UNK         0.0600 
    186 H186        6.0500  -13.0650  -44.4812 H         1 UNK         0.0600 
    187 H187        4.8118  -14.2002  -45.0018 H         1 UNK         0.0600 
    188 H188        6.2959  -14.0175  -45.9360 H         1 UNK         0.0600 
    189 H189        4.1261  -13.9734  -47.3511 H         1 UNK         0.3000 
    190 H190       -1.8218  -20.6656  -46.1394 H         1 UNK         0.3000 
    191 H191       -3.7359  -21.5450  -48.0472 H         1 UNK         0.0600 
    192 H192       -3.9814  -21.2114  -45.0135 H         1 UNK         0.0600 
    193 H193       -5.3299  -21.4090  -46.1263 H         1 UNK         0.0600 
    194 H194       -4.3125  -19.9809  -46.2310 H         1 UNK         0.0600 
    195 H195       -2.2394  -23.2463  -45.2521 H         1 UNK         0.3000 
    196 H196       -3.6573  -25.6894  -45.5362 H         1 UNK         0.0600 
    197 H197       -1.8279  -26.6144  -44.1093 H         1 UNK         0.0600 
    198 H198       -2.4288  -25.0887  -43.4781 H         1 UNK         0.0600 
    199 H199       -0.8914  -25.1427  -44.3359 H         1 UNK         0.0600 
    200 H200       -0.5037  -24.6308  -46.9103 H         1 UNK         0.3000 
    201 H201        0.1016  -27.0060  -48.3308 H         1 UNK         0.0600 
    202 H202        1.7574  -25.2112  -47.8709 H         1 UNK         0.0600 
    203 H203        0.8929  -24.1079  -48.9390 H         1 UNK         0.0600 
    204 H204        1.6727  -25.5413  -49.5950 H         1 UNK         0.0600 
    205 H205       -1.8574  -24.1783  -49.2564 H         1 UNK         0.3000 
    206 H206       -2.4745  -25.0966  -51.9343 H         1 UNK         0.0600 
    207 H207       -2.4747  -22.6941  -51.3528 H         1 UNK         0.0600 
    208 H208       -4.0953  -23.1740  -51.8345 H         1 UNK         0.0600 
    209 H209       -3.7231  -22.9506  -50.1354 H         1 UNK         0.0600 
    210 H210       -3.4927  -26.2869  -48.9526 H         1 UNK         0.3000 
    211 H211       -5.1345  -27.5082  -48.1418 H         1 UNK         0.0600 
    212 H212       -5.8521  -28.2065  -51.0387 H         1 UNK         0.0600 
    213 H213       -6.2766  -29.1288  -49.6034 H         1 UNK         0.0600 
    214 H214       -4.5943  -28.9951  -50.0871 H         1 UNK         0.0600 
    215 H215       -5.6264  -24.7603  -48.4606 H         1 UNK         0.3000 
    216 H216       -7.0923  -23.1547  -48.2735 H         1 UNK         0.0600 
    217 H217       -9.2288  -23.5960  -47.1368 H         1 UNK         0.0600 
    218 H218       -7.9792  -24.6131  -46.4423 H         1 UNK         0.0600 
    219 H219       -9.1568  -25.3004  -47.5607 H         1 UNK         0.0600 
    220 H220       -6.8809  -24.5098  -50.9898 H         1 UNK         0.3000 
    221 H221       -9.4042  -24.1334  -52.3176 H         1 UNK         0.0600 
    222 H222       -6.5483  -24.2864  -53.4183 H         1 UNK         0.0600 
    223 H223       -7.6493  -25.6441  -53.2046 H         1 UNK         0.0600 
    224 H224       -8.0177  -24.3889  -54.3797 H         1 UNK         0.0600 
    225 H225      -10.1998  -22.3926  -53.4406 H         1 UNK         0.3000 
    226 H226       -9.2203  -19.7379  -52.8234 H         1 UNK         0.0600 
    227 H227      -11.6509  -20.2374  -52.9669 H         1 UNK         0.0600 
    228 H228      -11.2035  -19.0371  -54.1688 H         1 UNK         0.0600 
    229 H229      -11.4810  -20.7034  -54.6598 H         1 UNK         0.0600 
    230 H230       -8.1593  -18.3355  -54.1240 H         1 UNK         0.3000 
    231 H231       -6.8572  -17.4700  -55.6741 H         1 UNK         0.0600 
    232 H232       -8.9956  -17.4508  -56.9812 H         1 UNK         0.0600 
    233 H233       -8.5537  -18.9888  -57.7214 H         1 UNK         0.0600 
    234 H234       -7.5858  -17.5526  -58.0209 H         1 UNK         0.0600 
    235 H235       -6.0360  -20.0842  -54.5378 H         1 UNK         0.3000 
    236 H236       -4.7822  -21.7497  -56.3946 H         1 UNK         0.0600 
    237 H237       -3.5675  -22.6280  -54.3889 H         1 UNK         0.0600 
    238 H238       -4.0887  -21.2285  -53.4560 H         1 UNK         0.0600 
    239 H239       -5.2742  -22.3862  -54.0570 H         1 UNK         0.0600 
    240 H240       -3.6486  -18.6817  -55.1778 H         1 UNK         0.3000 
    241 H241       -0.8989  -19.0663  -56.0428 H         1 UNK         0.0600 
    242 H242       -2.8938  -17.7826  -59.2680 H         1 UNK         0.3800 
    243 H243       -3.7205  -18.5322  -57.9271 H         1 UNK         0.3800 
    244 H244       -1.7515  -16.2394  -55.5472 H         1 UNK         0.0800 
    245 H245       -2.0938  -17.2953  -54.2199 H         1 UNK         0.0800 
    246 H246       -0.2033  -15.8542  -52.6092 H         1 UNK         0.0800 
    247 H247       -0.6545  -17.5321  -52.4035 H         1 UNK         0.0800 
@<TRIPOS>BOND
     1    1    2 1    
     2    1  127 1    
     3    1  128 1    
     4    1  129 1    
     5    2    3 2    
     6    2    4 am   BACKBONE|DICT|INTERRES
     7    4    5 1    
     8    4  130 1    
     9    5    6 1    
    10    5   65 1    
    11    5  131 1    
    12    6    7 1    
    13    6  132 1    
    14    6  133 1    
    15    7    8 1    
    16    8    9 1    
    17    8  134 1    
    18    8  135 1    
    19    9   10 ar   
    20    9   14 ar   
    21   10   11 ar   
    22   10  136 1    
    23   11   12 ar   
    24   11  126 1    
    25   12   13 ar   
    26   12  137 1    
    27   13   14 ar   
    28   13   15 1    
    29   14  138 1    
    30   15   16 1    
    31   15  139 1    
    32   15  140 1    
    33   16   17 1    
    34   17   18 1    
    35   17  141 1    
    36   17  142 1    
    37   18   19 1    
    38   18   67 1    
    39   18  143 1    
    40   19   20 am   BACKBONE|DICT|INTERRES
    41   19  144 1    
    42   20   21 2    
    43   20   22 1    
    44   22   23 1    
    45   22   24 1    
    46   22  145 1    
    47   23  146 1    
    48   23  147 1    
    49   23  148 1    
    50   24   25 am   BACKBONE|DICT|INTERRES
    51   24  149 1    
    52   25   26 2    
    53   25   27 1    
    54   27   28 1    
    55   27   29 1    
    56   27  150 1    
    57   28  151 1    
    58   28  152 1    
    59   28  153 1    
    60   29   30 am   BACKBONE|DICT|INTERRES
    61   29  154 1    
    62   30   31 2    
    63   30   32 1    
    64   32   33 1    
    65   32   34 1    
    66   32  155 1    
    67   33  156 1    
    68   33  157 1    
    69   33  158 1    
    70   34   35 am   BACKBONE|DICT|INTERRES
    71   34  159 1    
    72   35   36 2    
    73   35   37 1    
    74   37   38 1    
    75   37   39 1    
    76   37  160 1    
    77   38  161 1    
    78   38  162 1    
    79   38  163 1    
    80   39   40 am   BACKBONE|DICT|INTERRES
    81   39  164 1    
    82   40   41 2    
    83   40   42 1    
    84   42   43 1    
    85   42   44 1    
    86   42  165 1    
    87   43  166 1    
    88   43  167 1    
    89   43  168 1    
    90   44   45 am   BACKBONE|DICT|INTERRES
    91   44  169 1    
    92   45   46 2    
    93   45   47 1    
    94   47   48 1    
    95   47   49 1    
    96   47  170 1    
    97   48  171 1    
    98   48  172 1    
    99   48  173 1    
   100   49   50 am   BACKBONE|DICT|INTERRES
   101   49  174 1    
   102   50   51 2    
   103   50   52 1    
   104   52   53 1    
   105   52   54 1    
   106   52  175 1    
   107   53  176 1    
   108   53  177 1    
   109   53  178 1    
   110   54   55 am   BACKBONE|DICT|INTERRES
   111   54  179 1    
   112   55   56 2    
   113   55   57 1    
   114   57   58 1    
   115   57   59 1    
   116   57  180 1    
   117   58  181 1    
   118   58  182 1    
   119   58  183 1    
   120   59   60 am   BACKBONE|DICT|INTERRES
   121   59  184 1    
   122   60   61 2    
   123   60   62 1    
   124   62   63 1    
   125   62   64 1    
   126   62  185 1    
   127   63  186 1    
   128   63  187 1    
   129   63  188 1    
   130   64   65 am   BACKBONE|DICT|INTERRES
   131   64  189 1    
   132   65   66 2    
   133   67   68 2    
   134   67   69 am   BACKBONE|DICT|INTERRES
   135   69   70 1    
   136   69  190 1    
   137   70   71 1    
   138   70   72 1    
   139   70  191 1    
   140   71  192 1    
   141   71  193 1    
   142   71  194 1    
   143   72   73 2    
   144   72   74 am   BACKBONE|DICT|INTERRES
   145   74   75 1    
   146   74  195 1    
   147   75   76 1    
   148   75   77 1    
   149   75  196 1    
   150   76  197 1    
   151   76  198 1    
   152   76  199 1    
   153   77   78 2    
   154   77   79 am   BACKBONE|DICT|INTERRES
   155   79   80 1    
   156   79  200 1    
   157   80   81 1    
   158   80   82 1    
   159   80  201 1    
   160   81  202 1    
   161   81  203 1    
   162   81  204 1    
   163   82   83 2    
   164   82   84 am   BACKBONE|DICT|INTERRES
   165   84   85 1    
   166   84  205 1    
   167   85   86 1    
   168   85   87 1    
   169   85  206 1    
   170   86  207 1    
   171   86  208 1    
   172   86  209 1    
   173   87   88 2    
   174   87   89 am   BACKBONE|DICT|INTERRES
   175   89   90 1    
   176   89  210 1    
   177   90   91 1    
   178   90   92 1    
   179   90  211 1    
   180   91  212 1    
   181   91  213 1    
   182   91  214 1    
   183   92   93 2    
   184   92   94 am   BACKBONE|DICT|INTERRES
   185   94   95 1    
   186   94  215 1    
   187   95   96 1    
   188   95   97 1    
   189   95  216 1    
   190   96  217 1    
   191   96  218 1    
   192   96  219 1    
   193   97   98 2    
   194   97   99 am   BACKBONE|DICT|INTERRES
   195   99  100 1    
   196   99  220 1    
   197  100  101 1    
   198  100  102 1    
   199  100  221 1    
   200  101  222 1    
   201  101  223 1    
   202  101  224 1    
   203  102  103 2    
   204  102  104 am   BACKBONE|DICT|INTERRES
   205  104  105 1    
   206  104  225 1    
   207  105  106 1    
   208  105  107 1    
   209  105  226 1    
   210  106  227 1    
   211  106  228 1    
   212  106  229 1    
   213  107  108 2    
   214  107  109 am   BACKBONE|DICT|INTERRES
   215  109  110 1    
   216  109  230 1    
   217  110  111 1    
   218  110  112 1    
   219  110  231 1    
   220  111  232 1    
   221  111  233 1    
   222  111  234 1    
   223  112  113 2    
   224  112  114 am   BACKBONE|DICT|INTERRES
   225  114  115 1    
   226  114  235 1    
   227  115  116 1    
   228  115  117 1    
   229  115  236 1    
   230  116  237 1    
   231  116  238 1    
   232  116  239 1    
   233  117  118 2    
   234  117  119 am   BACKBONE|DICT|INTERRES
   235  119  120 1    
   236  119  240 1    
   237  120  121 1    
   238  120  124 1    
   239  120  241 1    
   240  121  122 am   BACKBONE|DICT|INTERRES
   241  121  123 2    
   242  122  242 1    
   243  122  243 1    
   244  124  125 1    
   245  124  244 1    
   246  124  245 1    
   247  125  126 1    
   248  126  246 1    
   249  126  247 1    
@<TRIPOS>SUBSTRUCTURE
     1 UNK         1 GROUP             0       ****    0 ROOT    
