@<TRIPOS>MOLECULE
3R540
247   249    1
SMALL
USER_CHARGES


@<TRIPOS>ATOM
      1 CA          6.2069  -15.8586  -44.8328 C.3       0 UNK        -0.1800 
      2 C           5.5061  -14.7720  -45.6341 C.2       0 UNK         0.5000 
      3 O           6.1616  -13.8440  -46.1073 O.2       0 UNK        -0.5000 
      4 N           4.1785  -14.8864  -45.7770 N.am      1 UNK        -0.5000 
      5 CA          3.2999  -13.9547  -46.4976 C.3       1 UNK         0.1400 
      6 C6          3.5522  -13.8888  -48.0300 C.3       23 UNK        -0.0398 
      7 S7          3.4077  -15.5043  -48.8758 S.3       23 UNK        -0.2404 
      8 C8          1.6155  -15.8090  -48.7559 C.3       23 UNK        -0.0205 
      9 C9          1.1276  -16.8586  -49.7452 C.ar      23 UNK        -0.0193 
     10 C10         0.2317  -16.5016  -50.7576 C.ar      23 UNK        -0.1150 
     11 C11        -0.2538  -17.4567  -51.6563 C.ar      23 UNK        -0.0193 
     12 C12         0.1825  -18.7812  -51.5408 C.ar      23 UNK        -0.1150 
     13 C13         1.0675  -19.1568  -50.5277 C.ar      23 UNK        -0.0193 
     14 C14         1.5378  -18.1904  -49.6335 C.ar      23 UNK        -0.1150 
     15 C15         1.5081  -20.6086  -50.4082 C.3       23 UNK        -0.0205 
     16 S16         0.2224  -21.6389  -49.6309 S.3       23 UNK        -0.2404 
     17 C17         0.2586  -21.0280  -47.9127 C.3       23 UNK        -0.0398 
     18 CA          0.1781  -22.1755  -46.8753 C.3       11 UNK         0.1400 
     19 N           0.9405  -21.8518  -45.6703 N.am      11 UNK        -0.5000 
     20 C           1.3914  -22.7191  -44.7556 C.2       10 UNK         0.5000 
     21 O           1.2407  -23.9376  -44.8458 O.2       10 UNK        -0.5000 
     22 CA          2.0827  -22.1054  -43.5160 C.3       10 UNK         0.1400 
     23 CB          3.1896  -23.0100  -42.9377 C.3       10 UNK        -0.1800 
     24 N           2.5670  -20.7365  -43.7459 N.am      10 UNK        -0.5000 
     25 C           3.5245  -20.3400  -44.5992 C.2       9 UNK         0.5000 
     26 O           4.2385  -21.1125  -45.2384 O.2       9 UNK        -0.5000 
     27 CA          3.6731  -18.8233  -44.8334 C.3       9 UNK         0.1400 
     28 CB          3.1086  -18.4558  -46.2134 C.3       9 UNK        -0.1800 
     29 N           3.0050  -17.9998  -43.8232 N.am      9 UNK        -0.5000 
     30 C           3.4735  -17.7949  -42.5843 C.2       8 UNK         0.5000 
     31 O           4.5473  -18.2366  -42.1756 O.2       8 UNK        -0.5000 
     32 CA          2.5791  -16.9726  -41.6409 C.3       8 UNK         0.1400 
     33 CB          2.7608  -15.4689  -41.9007 C.3       8 UNK        -0.1800 
     34 N           1.1618  -17.3133  -41.7639 N.am      8 UNK        -0.5000 
     35 C           0.6193  -18.5021  -41.4657 C.2       7 UNK         0.5000 
     36 O           1.2586  -19.4638  -41.0406 O.2       7 UNK        -0.5000 
     37 CA         -0.8860  -18.6546  -41.7409 C.3       7 UNK         0.1400 
     38 CB         -1.7227  -17.9996  -40.6320 C.3       7 UNK        -0.1800 
     39 N          -1.2518  -18.0883  -43.0389 N.am      7 UNK        -0.5000 
     40 C          -0.9446  -18.6569  -44.2116 C.2       6 UNK         0.5000 
     41 O          -0.3690  -19.7393  -44.3115 O.2       6 UNK        -0.5000 
     42 CA         -1.3230  -17.8945  -45.4919 C.3       6 UNK         0.1400 
     43 CB         -2.7044  -18.3341  -45.9986 C.3       6 UNK        -0.1800 
     44 N          -1.2975  -16.4421  -45.3232 N.am      6 UNK        -0.5000 
     45 C          -0.1736  -15.7372  -45.1460 C.2       5 UNK         0.5000 
     46 O           0.9496  -16.2381  -45.0567 O.2       5 UNK        -0.5000 
     47 CA         -0.3332  -14.2135  -45.0324 C.3       5 UNK         0.1400 
     48 CB         -0.8070  -13.6076  -46.3628 C.3       5 UNK        -0.1800 
     49 N          -1.1935  -13.7388  -43.9477 N.am      5 UNK        -0.5000 
     50 C          -1.1483  -14.1249  -42.6659 C.2       4 UNK         0.5000 
     51 O          -0.5285  -15.1076  -42.2599 O.2       4 UNK        -0.5000 
     52 CA         -1.8300  -13.1765  -41.6668 C.3       4 UNK         0.1400 
     53 CB         -1.8934  -13.7563  -40.2423 C.3       4 UNK        -0.1800 
     54 N          -1.0526  -11.9384  -41.6423 N.am      4 UNK        -0.5000 
     55 C          -1.3619  -10.8165  -42.3042 C.2       3 UNK         0.5000 
     56 O          -2.4183  -10.6493  -42.9145 O.2       3 UNK        -0.5000 
     57 CA         -0.2790   -9.7194  -42.3323 C.3       3 UNK         0.1400 
     58 CB         -0.3237   -8.8784  -41.0472 C.3       3 UNK        -0.1800 
     59 N           1.0766  -10.2518  -42.5197 N.am      3 UNK        -0.5000 
     60 C           1.5010  -10.8947  -43.6185 C.2       2 UNK         0.5000 
     61 O           0.7802  -11.0823  -44.5997 O.2       2 UNK        -0.5000 
     62 CA          2.9628  -11.4052  -43.6210 C.3       2 UNK         0.1400 
     63 CB          3.4740  -11.7655  -42.2120 C.3       2 UNK        -0.1800 
     64 N           3.1301  -12.5780  -44.4824 N.am      2 UNK        -0.5000 
     65 C           3.2581  -12.5649  -45.8177 C.2       1 UNK         0.5000 
     66 O           3.3450  -11.5349  -46.4889 O.2       1 UNK        -0.5000 
     67 C          -1.2851  -22.5269  -46.5359 C.2       11 UNK         0.5000 
     68 O          -1.9320  -23.2412  -47.3005 O.2       11 UNK        -0.5000 
     69 N          -1.7793  -22.0573  -45.3796 N.am      12 UNK        -0.5000 
     70 CA         -3.1028  -22.3657  -44.8318 C.3       12 UNK         0.1400 
     71 CB         -3.3118  -21.5694  -43.5352 C.3       12 UNK        -0.1800 
     72 C          -3.3270  -23.8711  -44.5866 C.2       12 UNK         0.5000 
     73 O          -4.4466  -24.3513  -44.7606 O.2       12 UNK        -0.5000 
     74 N          -2.2501  -24.6015  -44.2601 N.am      13 UNK        -0.5000 
     75 CA         -2.2381  -26.0614  -44.1233 C.3       13 UNK         0.1400 
     76 CB         -0.9177  -26.4908  -43.4664 C.3       13 UNK        -0.1800 
     77 C          -2.4414  -26.8016  -45.4627 C.2       13 UNK         0.5000 
     78 O          -2.8936  -27.9466  -45.4585 O.2       13 UNK        -0.5000 
     79 N          -2.1302  -26.1278  -46.5777 N.am      14 UNK        -0.5000 
     80 CA         -2.3604  -26.5819  -47.9488 C.3       14 UNK         0.1400 
     81 CB         -1.1007  -26.2782  -48.7803 C.3       14 UNK        -0.1800 
     82 C          -3.6074  -25.9143  -48.5663 C.2       14 UNK         0.5000 
     83 O          -3.7972  -26.0105  -49.7783 O.2       14 UNK        -0.5000 
     84 N          -4.4154  -25.2278  -47.7404 N.am      15 UNK        -0.5000 
     85 CA         -5.6200  -24.4689  -48.0927 C.3       15 UNK         0.1400 
     86 CB         -6.7466  -25.4206  -48.5460 C.3       15 UNK        -0.1800 
     87 C          -5.3438  -23.3354  -49.1033 C.2       15 UNK         0.5000 
     88 O          -6.1239  -23.1402  -50.0366 O.2       15 UNK        -0.5000 
     89 N          -4.2137  -22.6336  -48.9178 N.am      16 UNK        -0.5000 
     90 CA         -3.6776  -21.5782  -49.7877 C.3       16 UNK         0.1400 
     91 CB         -4.5676  -20.3196  -49.7495 C.3       16 UNK        -0.1800 
     92 C          -3.4120  -22.1021  -51.2139 C.2       16 UNK         0.5000 
     93 O          -3.8359  -21.4959  -52.1968 O.2       16 UNK        -0.5000 
     94 N          -2.7694  -23.2772  -51.2745 N.am      17 UNK        -0.5000 
     95 CA         -2.4707  -24.0873  -52.4610 C.3       17 UNK         0.1400 
     96 CB         -1.6056  -23.3032  -53.4692 C.3       17 UNK        -0.1800 
     97 C          -3.7069  -24.7365  -53.1258 C.2       17 UNK         0.5000 
     98 O          -3.5501  -25.3899  -54.1583 O.2       17 UNK        -0.5000 
     99 N          -4.8937  -24.5876  -52.5148 N.am      18 UNK        -0.5000 
    100 CA        -6.1765  -25.1978  -52.8787 C.3       18 UNK         0.1400 
    101 CB        -6.1374  -26.7170  -52.6102 C.3       18 UNK        -0.1800 
    102 C         -6.6479  -24.8546  -54.3085 C.2       18 UNK         0.5000 
    103 O         -7.2056  -25.7124  -54.9969 O.2       18 UNK        -0.5000 
    104 N         -6.4188  -23.6076  -54.7349 N.am      19 UNK        -0.5000 
    105 CA        -6.7626  -23.1042  -56.0606 C.3       19 UNK         0.1400 
    106 CB        -5.6124  -23.4082  -57.0359 C.3       19 UNK        -0.1800 
    107 C         -7.0445  -21.5985  -55.9887 C.2       19 UNK         0.5000 
    108 O         -6.5568  -20.9223  -55.0782 O.2       19 UNK        -0.5000 
    109 N         -7.8143  -21.0980  -56.9644 N.am      20 UNK        -0.5000 
    110 CA        -8.1326  -19.6801  -57.1396 C.3       20 UNK         0.1400 
    111 CB        -9.1447  -19.5236  -58.2845 C.3       20 UNK        -0.1800 
    112 C         -6.8618  -18.8588  -57.4179 C.2       20 UNK         0.5000 
    113 O         -6.0558  -19.2568  -58.2634 O.2       20 UNK        -0.5000 
    114 N         -6.6839  -17.7651  -56.6627 N.am      21 UNK        -0.5000 
    115 CA        -5.4987  -16.8933  -56.6449 C.3       21 UNK         0.1400 
    116 CB        -5.4064  -16.0840  -57.9555 C.3       21 UNK        -0.1800 
    117 C         -4.1858  -17.6439  -56.3150 C.2       21 UNK         0.5000 
    118 O         -3.1097  -17.2174  -56.7375 O.2       21 UNK        -0.5000 
    119 N         -4.3106  -18.7606  -55.5839 N.am      22 UNK        -0.5000 
    120 CA        -3.2523  -19.7327  -55.2670 C.3       22 UNK         0.1400 
    121 C         -2.7533  -20.5555  -56.4961 C.2       22 UNK         0.5000 
    122 N         -3.4514  -20.5645  -57.6271 N.am      22 UNK        -0.7600 
    123 O         -1.7230  -21.2193  -56.4240 O.2       22 UNK        -0.5000 
    124 C124       -2.0787  -19.1411  -54.4346 C.3       23 UNK        -0.0398 
    125 S125       -2.6265  -18.1869  -52.9724 S.3       23 UNK        -0.2404 
    126 C126       -1.2321  -17.0301  -52.7478 C.3       23 UNK        -0.0205 
    127 H127        6.5825  -16.6350  -45.4992 H         1 UNK         0.0600 
    128 H128        5.5331  -16.3167  -44.1108 H         1 UNK         0.0600 
    129 H129        7.0503  -15.4413  -44.2824 H         1 UNK         0.0600 
    130 H130        3.7098  -15.6841  -45.3721 H         1 UNK         0.3000 
    131 H131        2.2960  -14.3529  -46.3730 H         1 UNK         0.0600 
    132 H132        2.8494  -13.2016  -48.5043 H         1 UNK         0.0800 
    133 H133        4.5449  -13.4859  -48.2353 H         1 UNK         0.0800 
    134 H134        1.3730  -16.1384  -47.7459 H         1 UNK         0.0800 
    135 H135        1.0849  -14.8704  -48.9177 H         1 UNK         0.0800 
    136 H136       -0.0943  -15.4744  -50.8434 H         1 UNK         0.1150 
    137 H137       -0.1764  -19.5327  -52.2276 H         1 UNK         0.1150 
    138 H138        2.2278  -18.4708  -48.8528 H         1 UNK         0.1150 
    139 H139        1.7203  -21.0041  -51.4026 H         1 UNK         0.0800 
    140 H140        2.4394  -20.6891  -49.8452 H         1 UNK         0.0800 
    141 H141       -0.5314  -20.2872  -47.7748 H         1 UNK         0.0800 
    142 H142        1.1940  -20.4845  -47.7785 H         1 UNK         0.0800 
    143 H143        0.6318  -23.0714  -47.3050 H         1 UNK         0.0600 
    144 H144        1.0086  -20.8705  -45.4339 H         1 UNK         0.3000 
    145 H145        1.3042  -22.0171  -42.7568 H         1 UNK         0.0600 
    146 H146        3.6633  -22.5477  -42.0717 H         1 UNK         0.0600 
    147 H147        2.7798  -23.9662  -42.6105 H         1 UNK         0.0600 
    148 H148        3.9661  -23.2251  -43.6719 H         1 UNK         0.0600 
    149 H149        2.0457  -20.0156  -43.2648 H         1 UNK         0.3000 
    150 H150        4.7408  -18.5960  -44.8273 H         1 UNK         0.0600 
    151 H151        3.5825  -19.0457  -46.9988 H         1 UNK         0.0600 
    152 H152        3.2859  -17.4088  -46.4499 H         1 UNK         0.0600 
    153 H153        2.0337  -18.6310  -46.2681 H         1 UNK         0.0600 
    154 H154        2.1297  -17.5615  -44.0942 H         1 UNK         0.3000 
    155 H155        2.8891  -17.1855  -40.6158 H         1 UNK         0.0600 
    156 H156        3.8096  -15.1790  -41.8252 H         1 UNK         0.0600 
    157 H157        2.2052  -14.8781  -41.1722 H         1 UNK         0.0600 
    158 H158        2.4083  -15.1884  -42.8934 H         1 UNK         0.0600 
    159 H159        0.5450  -16.5657  -42.0774 H         1 UNK         0.3000 
    160 H160       -1.1194  -19.7216  -41.7514 H         1 UNK         0.0600 
    161 H161       -1.5282  -16.9301  -40.5546 H         1 UNK         0.0600 
    162 H162       -1.4964  -18.4434  -39.6617 H         1 UNK         0.0600 
    163 H163       -2.7894  -18.1351  -40.8109 H         1 UNK         0.0600 
    164 H164       -1.6667  -17.1677  -43.0363 H         1 UNK         0.3000 
    165 H165       -0.5868  -18.1564  -46.2551 H         1 UNK         0.0600 
    166 H166       -2.9487  -17.8510  -46.9449 H         1 UNK         0.0600 
    167 H167       -2.7355  -19.4106  -46.1706 H         1 UNK         0.0600 
    168 H168       -3.4920  -18.0925  -45.2839 H         1 UNK         0.0600 
    169 H169       -2.1810  -15.9553  -45.3650 H         1 UNK         0.3000 
    170 H170        0.6562  -13.8145  -44.8165 H         1 UNK         0.0600 
    171 H171       -0.1725  -13.9247  -47.1892 H         1 UNK         0.0600 
    172 H172       -1.8297  -13.9013  -46.6013 H         1 UNK         0.0600 
    173 H173       -0.7728  -12.5185  -46.3343 H         1 UNK         0.0600 
    174 H174       -1.7195  -12.9009  -44.1537 H         1 UNK         0.3000 
    175 H175       -2.8513  -12.9950  -42.0078 H         1 UNK         0.0600 
    176 H176       -0.9015  -13.9843  -39.8497 H         1 UNK         0.0600 
    177 H177       -2.3706  -13.0568  -39.5558 H         1 UNK         0.0600 
    178 H178       -2.4765  -14.6775  -40.2233 H         1 UNK         0.0600 
    179 H179       -0.1451  -11.9949  -41.2035 H         1 UNK         0.3000 
    180 H180       -0.4988   -9.0613  -43.1757 H         1 UNK         0.0600 
    181 H181       -0.0789   -9.4727  -40.1660 H         1 UNK         0.0600 
    182 H182       -1.3172   -8.4555  -40.8922 H         1 UNK         0.0600 
    183 H183        0.3780   -8.0456  -41.0964 H         1 UNK         0.0600 
    184 H184        1.7216  -10.1217  -41.7540 H         1 UNK         0.3000 
    185 H185        3.5852  -10.5968  -44.0097 H         1 UNK         0.0600 
    186 H186        3.5469  -10.8834  -41.5752 H         1 UNK         0.0600 
    187 H187        2.8192  -12.4823  -41.7153 H         1 UNK         0.0600 
    188 H188        4.4720  -12.2026  -42.2558 H         1 UNK         0.0600 
    189 H189        3.0874  -13.4730  -44.0211 H         1 UNK         0.3000 
    190 H190       -1.1958  -21.4336  -44.8308 H         1 UNK         0.3000 
    191 H191       -3.8481  -22.0383  -45.5597 H         1 UNK         0.0600 
    192 H192       -3.2941  -20.4964  -43.7234 H         1 UNK         0.0600 
    193 H193       -4.2781  -21.7998  -43.0846 H         1 UNK         0.0600 
    194 H194       -2.5417  -21.7936  -42.7961 H         1 UNK         0.0600 
    195 H195       -1.3602  -24.1339  -44.1616 H         1 UNK         0.3000 
    196 H196       -3.0586  -26.3468  -43.4616 H         1 UNK         0.0600 
    197 H197       -0.8971  -27.5686  -43.2998 H         1 UNK         0.0600 
    198 H198       -0.7828  -26.0102  -42.4973 H         1 UNK         0.0600 
    199 H199       -0.0584  -26.2395  -44.0891 H         1 UNK         0.0600 
    200 H200       -1.8029  -25.1733  -46.4929 H         1 UNK         0.3000 
    201 H201       -2.5291  -27.6603  -47.9676 H         1 UNK         0.0600 
    202 H202       -0.2185  -26.7443  -48.3414 H         1 UNK         0.0600 
    203 H203       -0.9111  -25.2067  -48.8528 H         1 UNK         0.0600 
    204 H204       -1.1966  -26.6635  -49.7961 H         1 UNK         0.0600 
    205 H205       -4.1694  -25.2001  -46.7590 H         1 UNK         0.3000 
    206 H206       -5.9525  -23.9802  -47.1759 H         1 UNK         0.0600 
    207 H207       -6.9308  -26.1953  -47.8019 H         1 UNK         0.0600 
    208 H208       -7.6828  -24.8795  -48.6881 H         1 UNK         0.0600 
    209 H209       -6.5074  -25.9117  -49.4891 H         1 UNK         0.0600 
    210 H210       -3.5887  -22.9249  -48.1707 H         1 UNK         0.3000 
    211 H211       -2.7081  -21.3001  -49.3746 H         1 UNK         0.0600 
    212 H212       -5.5514  -20.5027  -50.1822 H         1 UNK         0.0600 
    213 H213       -4.1103  -19.5053  -50.3131 H         1 UNK         0.0600 
    214 H214       -4.7086  -19.9681  -48.7275 H         1 UNK         0.0600 
    215 H215       -2.5203  -23.7098  -50.3960 H         1 UNK         0.3000 
    216 H216       -1.8671  -24.9188  -52.0947 H         1 UNK         0.0600 
    217 H217       -1.2307  -23.9584  -54.2560 H         1 UNK         0.0600 
    218 H218       -0.7409  -22.8515  -52.9828 H         1 UNK         0.0600 
    219 H219       -2.1710  -22.5090  -53.9556 H         1 UNK         0.0600 
    220 H220       -4.9190  -24.0227  -51.6750 H         1 UNK         0.3000 
    221 H221       -6.9174  -24.7656  -52.2049 H         1 UNK         0.0600 
    222 H222       -5.4623  -27.2302  -53.2957 H         1 UNK         0.0600 
    223 H223       -5.8052  -26.9307  -51.5946 H         1 UNK         0.0600 
    224 H224       -7.1260  -27.1621  -52.7277 H         1 UNK         0.0600 
    225 H225       -5.9977  -22.9283  -54.1130 H         1 UNK         0.3000 
    226 H226       -7.6731  -23.5938  -56.4131 H         1 UNK         0.0600 
    227 H227       -5.4804  -24.4824  -57.1660 H         1 UNK         0.0600 
    228 H228       -5.8027  -22.9819  -58.0216 H         1 UNK         0.0600 
    229 H229       -4.6674  -23.0005  -56.6759 H         1 UNK         0.0600 
    230 H230       -8.1439  -21.7178  -57.6899 H         1 UNK         0.3000 
    231 H231       -8.5963  -19.3238  -56.2173 H         1 UNK         0.0600 
    232 H232       -8.7423  -19.8882  -59.2306 H         1 UNK         0.0600 
    233 H233       -9.4151  -18.4762  -58.4250 H         1 UNK         0.0600 
    234 H234      -10.0643  -20.0710  -58.0768 H         1 UNK         0.0600 
    235 H235       -7.3957  -17.5343  -55.9830 H         1 UNK         0.3000 
    236 H236       -5.6513  -16.1848  -55.8296 H         1 UNK         0.0600 
    237 H237       -6.3391  -15.5587  -58.1611 H         1 UNK         0.0600 
    238 H238       -4.6189  -15.3318  -57.8977 H         1 UNK         0.0600 
    239 H239       -5.1855  -16.7230  -58.8109 H         1 UNK         0.0600 
    240 H240       -5.2387  -19.0478  -55.3012 H         1 UNK         0.3000 
    241 H241       -3.7433  -20.4727  -54.6356 H         1 UNK         0.0600 
    242 H242       -3.1109  -21.1029  -58.4071 H         1 UNK         0.3800 
    243 H243       -4.3085  -20.0301  -57.7272 H         1 UNK         0.3800 
    244 H244       -1.4331  -19.9472  -54.0849 H         1 UNK         0.0800 
    245 H245       -1.4582  -18.5094  -55.0709 H         1 UNK         0.0800 
    246 H246       -0.6870  -16.8907  -53.6815 H         1 UNK         0.0800 
    247 H247       -1.6580  -16.0561  -52.5024 H         1 UNK         0.0800 
@<TRIPOS>BOND
     1    1    2 1    
     2    1  127 1    
     3    1  128 1    
     4    1  129 1    
     5    2    3 2    
     6    2    4 am   BACKBONE|DICT|INTERRES
     7    4    5 1    
     8    4  130 1    
     9    5    6 1    
    10    5   65 1    
    11    5  131 1    
    12    6    7 1    
    13    6  132 1    
    14    6  133 1    
    15    7    8 1    
    16    8    9 1    
    17    8  134 1    
    18    8  135 1    
    19    9   10 ar   
    20    9   14 ar   
    21   10   11 ar   
    22   10  136 1    
    23   11   12 ar   
    24   11  126 1    
    25   12   13 ar   
    26   12  137 1    
    27   13   14 ar   
    28   13   15 1    
    29   14  138 1    
    30   15   16 1    
    31   15  139 1    
    32   15  140 1    
    33   16   17 1    
    34   17   18 1    
    35   17  141 1    
    36   17  142 1    
    37   18   19 1    
    38   18   67 1    
    39   18  143 1    
    40   19   20 am   BACKBONE|DICT|INTERRES
    41   19  144 1    
    42   20   21 2    
    43   20   22 1    
    44   22   23 1    
    45   22   24 1    
    46   22  145 1    
    47   23  146 1    
    48   23  147 1    
    49   23  148 1    
    50   24   25 am   BACKBONE|DICT|INTERRES
    51   24  149 1    
    52   25   26 2    
    53   25   27 1    
    54   27   28 1    
    55   27   29 1    
    56   27  150 1    
    57   28  151 1    
    58   28  152 1    
    59   28  153 1    
    60   29   30 am   BACKBONE|DICT|INTERRES
    61   29  154 1    
    62   30   31 2    
    63   30   32 1    
    64   32   33 1    
    65   32   34 1    
    66   32  155 1    
    67   33  156 1    
    68   33  157 1    
    69   33  158 1    
    70   34   35 am   BACKBONE|DICT|INTERRES
    71   34  159 1    
    72   35   36 2    
    73   35   37 1    
    74   37   38 1    
    75   37   39 1    
    76   37  160 1    
    77   38  161 1    
    78   38  162 1    
    79   38  163 1    
    80   39   40 am   BACKBONE|DICT|INTERRES
    81   39  164 1    
    82   40   41 2    
    83   40   42 1    
    84   42   43 1    
    85   42   44 1    
    86   42  165 1    
    87   43  166 1    
    88   43  167 1    
    89   43  168 1    
    90   44   45 am   BACKBONE|DICT|INTERRES
    91   44  169 1    
    92   45   46 2    
    93   45   47 1    
    94   47   48 1    
    95   47   49 1    
    96   47  170 1    
    97   48  171 1    
    98   48  172 1    
    99   48  173 1    
   100   49   50 am   BACKBONE|DICT|INTERRES
   101   49  174 1    
   102   50   51 2    
   103   50   52 1    
   104   52   53 1    
   105   52   54 1    
   106   52  175 1    
   107   53  176 1    
   108   53  177 1    
   109   53  178 1    
   110   54   55 am   BACKBONE|DICT|INTERRES
   111   54  179 1    
   112   55   56 2    
   113   55   57 1    
   114   57   58 1    
   115   57   59 1    
   116   57  180 1    
   117   58  181 1    
   118   58  182 1    
   119   58  183 1    
   120   59   60 am   BACKBONE|DICT|INTERRES
   121   59  184 1    
   122   60   61 2    
   123   60   62 1    
   124   62   63 1    
   125   62   64 1    
   126   62  185 1    
   127   63  186 1    
   128   63  187 1    
   129   63  188 1    
   130   64   65 am   BACKBONE|DICT|INTERRES
   131   64  189 1    
   132   65   66 2    
   133   67   68 2    
   134   67   69 am   BACKBONE|DICT|INTERRES
   135   69   70 1    
   136   69  190 1    
   137   70   71 1    
   138   70   72 1    
   139   70  191 1    
   140   71  192 1    
   141   71  193 1    
   142   71  194 1    
   143   72   73 2    
   144   72   74 am   BACKBONE|DICT|INTERRES
   145   74   75 1    
   146   74  195 1    
   147   75   76 1    
   148   75   77 1    
   149   75  196 1    
   150   76  197 1    
   151   76  198 1    
   152   76  199 1    
   153   77   78 2    
   154   77   79 am   BACKBONE|DICT|INTERRES
   155   79   80 1    
   156   79  200 1    
   157   80   81 1    
   158   80   82 1    
   159   80  201 1    
   160   81  202 1    
   161   81  203 1    
   162   81  204 1    
   163   82   83 2    
   164   82   84 am   BACKBONE|DICT|INTERRES
   165   84   85 1    
   166   84  205 1    
   167   85   86 1    
   168   85   87 1    
   169   85  206 1    
   170   86  207 1    
   171   86  208 1    
   172   86  209 1    
   173   87   88 2    
   174   87   89 am   BACKBONE|DICT|INTERRES
   175   89   90 1    
   176   89  210 1    
   177   90   91 1    
   178   90   92 1    
   179   90  211 1    
   180   91  212 1    
   181   91  213 1    
   182   91  214 1    
   183   92   93 2    
   184   92   94 am   BACKBONE|DICT|INTERRES
   185   94   95 1    
   186   94  215 1    
   187   95   96 1    
   188   95   97 1    
   189   95  216 1    
   190   96  217 1    
   191   96  218 1    
   192   96  219 1    
   193   97   98 2    
   194   97   99 am   BACKBONE|DICT|INTERRES
   195   99  100 1    
   196   99  220 1    
   197  100  101 1    
   198  100  102 1    
   199  100  221 1    
   200  101  222 1    
   201  101  223 1    
   202  101  224 1    
   203  102  103 2    
   204  102  104 am   BACKBONE|DICT|INTERRES
   205  104  105 1    
   206  104  225 1    
   207  105  106 1    
   208  105  107 1    
   209  105  226 1    
   210  106  227 1    
   211  106  228 1    
   212  106  229 1    
   213  107  108 2    
   214  107  109 am   BACKBONE|DICT|INTERRES
   215  109  110 1    
   216  109  230 1    
   217  110  111 1    
   218  110  112 1    
   219  110  231 1    
   220  111  232 1    
   221  111  233 1    
   222  111  234 1    
   223  112  113 2    
   224  112  114 am   BACKBONE|DICT|INTERRES
   225  114  115 1    
   226  114  235 1    
   227  115  116 1    
   228  115  117 1    
   229  115  236 1    
   230  116  237 1    
   231  116  238 1    
   232  116  239 1    
   233  117  118 2    
   234  117  119 am   BACKBONE|DICT|INTERRES
   235  119  120 1    
   236  119  240 1    
   237  120  121 1    
   238  120  124 1    
   239  120  241 1    
   240  121  122 am   BACKBONE|DICT|INTERRES
   241  121  123 2    
   242  122  242 1    
   243  122  243 1    
   244  124  125 1    
   245  124  244 1    
   246  124  245 1    
   247  125  126 1    
   248  126  246 1    
   249  126  247 1    
@<TRIPOS>SUBSTRUCTURE
     1 UNK         1 GROUP             0       ****    0 ROOT    
