@<TRIPOS>MOLECULE
3R540
247   249    1
SMALL
USER_CHARGES


@<TRIPOS>ATOM
      1 CA          0.1289  -14.9079  -50.3792 C.3       0 UNK        -0.1800 
      2 C          -0.6506  -15.0197  -49.0781 C.2       0 UNK         0.5000 
      3 O          -0.8330  -16.1220  -48.5657 O.2       0 UNK        -0.5000 
      4 N          -1.0891  -13.8833  -48.5208 N.am      1 UNK        -0.5000 
      5 CA         -1.9238  -13.8121  -47.3102 C.3       1 UNK         0.1400 
      6 C6         -2.6451  -12.4476  -47.1498 C.3       23 UNK        -0.0398 
      7 S7         -3.4563  -11.8133  -48.6603 S.3       23 UNK        -0.2404 
      8 C8         -4.9383  -12.8703  -48.8079 C.3       23 UNK        -0.0205 
      9 C9         -4.6258  -14.2347  -49.4115 C.ar      23 UNK        -0.0193 
     10 C10        -3.9670  -14.3252  -50.6401 C.ar      23 UNK        -0.1150 
     11 C11        -3.6314  -15.5681  -51.1785 C.ar      23 UNK        -0.0193 
     12 C12        -3.9909  -16.7330  -50.4945 C.ar      23 UNK        -0.1150 
     13 C13        -4.6768  -16.6660  -49.2719 C.ar      23 UNK        -0.0193 
     14 C14        -4.9873  -15.4081  -48.7426 C.ar      23 UNK        -0.1150 
     15 C15        -5.0879  -17.9023  -48.4653 C.3       23 UNK        -0.0205 
     16 S16        -4.6895  -19.5193  -49.2154 S.3       23 UNK        -0.2404 
     17 C17        -5.1478  -20.6814  -47.8889 C.3       23 UNK        -0.0398 
     18 CA         -3.8910  -21.2951  -47.2303 C.3       11 UNK         0.1400 
     19 N          -3.1081  -20.2764  -46.5310 N.am      11 UNK        -0.5000 
     20 C          -1.9386  -20.4377  -45.9028 C.2       10 UNK         0.5000 
     21 O          -1.3554  -21.5171  -45.7963 O.2       10 UNK        -0.5000 
     22 CA         -1.3460  -19.1802  -45.2380 C.3       10 UNK         0.1400 
     23 CB         -1.9238  -17.8614  -45.7888 C.3       10 UNK        -0.1800 
     24 N          -1.4664  -19.1777  -43.7777 N.am      10 UNK        -0.5000 
     25 C          -2.5421  -19.4901  -43.0356 C.2       9 UNK         0.5000 
     26 O          -3.5983  -19.9396  -43.4820 O.2       9 UNK        -0.5000 
     27 CA         -2.4209  -19.2083  -41.5267 C.3       9 UNK         0.1400 
     28 CB         -1.7072  -20.3718  -40.8204 C.3       9 UNK        -0.1800 
     29 N          -1.7124  -17.9573  -41.2397 N.am      9 UNK        -0.5000 
     30 C          -2.1027  -16.7366  -41.6396 C.2       8 UNK         0.5000 
     31 O          -3.1666  -16.5253  -42.2224 O.2       8 UNK        -0.5000 
     32 CA         -1.1652  -15.5464  -41.3389 C.3       8 UNK         0.1400 
     33 CB         -1.8701  -14.5065  -40.4525 C.3       8 UNK        -0.1800 
     34 N           0.1072  -15.9073  -40.7049 N.am      8 UNK        -0.5000 
     35 C           1.1251  -16.5439  -41.2957 C.2       7 UNK         0.5000 
     36 O           1.0840  -16.9896  -42.4449 O.2       7 UNK        -0.5000 
     37 CA          2.3694  -16.7664  -40.4220 C.3       7 UNK         0.1400 
     38 CB          2.2855  -18.1161  -39.6922 C.3       7 UNK        -0.1800 
     39 N           3.5891  -16.7293  -41.2243 N.am      7 UNK        -0.5000 
     40 C           4.2245  -15.5987  -41.5723 C.2       6 UNK         0.5000 
     41 O           3.8369  -14.4817  -41.2255 O.2       6 UNK        -0.5000 
     42 CA          5.5116  -15.7046  -42.4159 C.3       6 UNK         0.1400 
     43 CB          6.7130  -15.0722  -41.6876 C.3       6 UNK        -0.1800 
     44 N           5.8262  -17.0844  -42.7744 N.am      6 UNK        -0.5000 
     45 C           6.5208  -17.4849  -43.8415 C.2       5 UNK         0.5000 
     46 O           7.0773  -16.7210  -44.6310 O.2       5 UNK        -0.5000 
     47 CA          6.5724  -19.0058  -44.0837 C.3       5 UNK         0.1400 
     48 CB          7.3321  -19.7474  -42.9656 C.3       5 UNK        -0.1800 
     49 N           5.2421  -19.5806  -44.3187 N.am      5 UNK        -0.5000 
     50 C           4.1986  -19.6745  -43.4827 C.2       4 UNK         0.5000 
     51 O           4.2377  -19.3539  -42.2924 O.2       4 UNK        -0.5000 
     52 CA          2.8725  -20.1281  -44.1233 C.3       4 UNK         0.1400 
     53 CB          1.7667  -20.3961  -43.0892 C.3       4 UNK        -0.1800 
     54 N           2.4000  -19.1215  -45.0765 N.am      4 UNK        -0.5000 
     55 C           2.8565  -18.9810  -46.3289 C.2       3 UNK         0.5000 
     56 O           3.7174  -19.7190  -46.8118 O.2       3 UNK        -0.5000 
     57 CA          2.2802  -17.8437  -47.1983 C.3       3 UNK         0.1400 
     58 CB          1.4232  -18.4327  -48.3317 C.3       3 UNK        -0.1800 
     59 N           1.4987  -16.8252  -46.4852 N.am      3 UNK        -0.5000 
     60 C           1.9810  -15.9697  -45.5692 C.2       2 UNK         0.5000 
     61 O           3.1504  -15.9794  -45.1837 O.2       2 UNK        -0.5000 
     62 CA          0.9926  -14.9207  -45.0227 C.3       2 UNK         0.1400 
     63 CB          1.6785  -13.7440  -44.3064 C.3       2 UNK        -0.1800 
     64 N           0.1425  -14.4181  -46.0982 N.am      2 UNK        -0.5000 
     65 C          -1.1743  -14.1910  -46.0101 C.2       1 UNK         0.5000 
     66 O          -1.8068  -14.2840  -44.9578 O.2       1 UNK        -0.5000 
     67 C          -4.2703  -22.5072  -46.3567 C.2       11 UNK         0.5000 
     68 O          -4.4206  -23.5981  -46.9071 O.2       11 UNK        -0.5000 
     69 N          -4.3869  -22.3242  -45.0330 N.am      12 UNK        -0.5000 
     70 CA         -4.6557  -23.4073  -44.0846 C.3       12 UNK         0.1400 
     71 CB         -5.0779  -22.8149  -42.7316 C.3       12 UNK        -0.1800 
     72 C          -3.4539  -24.3547  -43.9066 C.2       12 UNK         0.5000 
     73 O          -3.6559  -25.5488  -43.6848 O.2       12 UNK        -0.5000 
     74 N          -2.2326  -23.8147  -44.0201 N.am      13 UNK        -0.5000 
     75 CA         -0.9857  -24.5765  -43.9496 C.3       13 UNK         0.1400 
     76 CB          0.1202  -23.6850  -43.3672 C.3       13 UNK        -0.1800 
     77 C          -0.5769  -25.0955  -45.3376 C.2       13 UNK         0.5000 
     78 O          -0.1217  -26.2332  -45.4550 O.2       13 UNK        -0.5000 
     79 N          -0.7591  -24.2534  -46.3646 N.am      14 UNK        -0.5000 
     80 CA         -0.4163  -24.5359  -47.7593 C.3       14 UNK         0.1400 
     81 CB         -0.3042  -23.2014  -48.5167 C.3       14 UNK        -0.1800 
     82 C          -1.4060  -25.4814  -48.4703 C.2       14 UNK         0.5000 
     83 O          -1.1342  -25.8782  -49.6023 O.2       14 UNK        -0.5000 
     84 N          -2.5406  -25.7982  -47.8276 N.am      15 UNK        -0.5000 
     85 CA         -3.6473  -26.6203  -48.3344 C.3       15 UNK         0.1400 
     86 CB         -3.2086  -28.0897  -48.5037 C.3       15 UNK        -0.1800 
     87 C          -4.2749  -26.0184  -49.6095 C.2       15 UNK         0.5000 
     88 O          -4.4813  -26.7186  -50.6018 O.2       15 UNK        -0.5000 
     89 N          -4.5253  -24.7030  -49.5493 N.am      16 UNK        -0.5000 
     90 CA         -5.0763  -23.8319  -50.5937 C.3       16 UNK         0.1400 
     91 CB         -6.5074  -24.2596  -50.9754 C.3       16 UNK        -0.1800 
     92 C          -4.1773  -23.6375  -51.8339 C.2       16 UNK         0.5000 
     93 O          -4.6238  -23.0147  -52.7984 O.2       16 UNK        -0.5000 
     94 N          -2.9198  -24.1064  -51.7951 N.am      17 UNK        -0.5000 
     95 CA         -1.9551  -23.9530  -52.8902 C.3       17 UNK         0.1400 
     96 CB         -0.6963  -24.7816  -52.6010 C.3       17 UNK        -0.1800 
     97 C          -1.5825  -22.4848  -53.1691 C.2       17 UNK         0.5000 
     98 O          -1.3489  -22.1290  -54.3235 O.2       17 UNK        -0.5000 
     99 N          -1.5764  -21.6517  -52.1178 N.am      18 UNK        -0.5000 
    100 CA        -1.3828  -20.2055  -52.2188 C.3       18 UNK         0.1400 
    101 CB        -1.1635  -19.6088  -50.8193 C.3       18 UNK        -0.1800 
    102 C         -2.5478  -19.5187  -52.9546 C.2       18 UNK         0.5000 
    103 O         -2.2995  -18.7081  -53.8454 O.2       18 UNK        -0.5000 
    104 N         -3.7907  -19.8944  -52.6147 N.am      19 UNK        -0.5000 
    105 CA        -5.0093  -19.4099  -53.2705 C.3       19 UNK         0.1400 
    106 CB        -6.2564  -19.8651  -52.4964 C.3       19 UNK        -0.1800 
    107 C         -5.0980  -19.8464  -54.7411 C.2       19 UNK         0.5000 
    108 O         -5.4817  -19.0439  -55.5919 O.2       19 UNK        -0.5000 
    109 N         -4.7018  -21.0957  -55.0203 N.am      20 UNK        -0.5000 
    110 CA        -4.5984  -21.6466  -56.3718 C.3       20 UNK         0.1400 
    111 CB        -4.2817  -23.1471  -56.2882 C.3       20 UNK        -0.1800 
    112 C         -3.5571  -20.9140  -57.2415 C.2       20 UNK         0.5000 
    113 O         -3.7650  -20.7835  -58.4484 O.2       20 UNK        -0.5000 
    114 N         -2.4719  -20.4372  -56.6158 N.am      21 UNK        -0.5000 
    115 CA        -1.4361  -19.6343  -57.2571 C.3       21 UNK         0.1400 
    116 CB        -0.1462  -19.6755  -56.4219 C.3       21 UNK        -0.1800 
    117 C         -1.8920  -18.1866  -57.5140 C.2       21 UNK         0.5000 
    118 O         -1.7502  -17.7127  -58.6428 O.2       21 UNK        -0.5000 
    119 N         -2.4097  -17.5026  -56.4811 N.am      22 UNK        -0.5000 
    120 CA        -2.8260  -16.0914  -56.5809 C.3       22 UNK         0.1400 
    121 C         -4.1949  -15.8445  -57.2788 C.2       22 UNK         0.5000 
    122 N         -5.0978  -16.8139  -57.3454 N.am      22 UNK        -0.7600 
    123 O         -4.4323  -14.7542  -57.7924 O.2       22 UNK        -0.5000 
    124 C124       -2.6811  -15.3164  -55.2449 C.3       23 UNK        -0.0398 
    125 S125       -3.8965  -15.7210  -53.9401 S.3       23 UNK        -0.2404 
    126 C126       -2.8303  -15.6372  -52.4690 C.3       23 UNK        -0.0205 
    127 H127        1.1959  -15.0178  -50.1864 H         1 UNK         0.0600 
    128 H128       -0.0387  -13.9474  -50.8668 H         1 UNK         0.0600 
    129 H129       -0.1744  -15.6966  -51.0672 H         1 UNK         0.0600 
    130 H130       -0.9169  -13.0012  -48.9817 H         1 UNK         0.3000 
    131 H131       -2.6970  -14.5733  -47.4178 H         1 UNK         0.0600 
    132 H132       -1.9319  -11.6857  -46.8302 H         1 UNK         0.0800 
    133 H133       -3.3942  -12.5055  -46.3580 H         1 UNK         0.0800 
    134 H134       -5.6614  -12.3678  -49.4516 H         1 UNK         0.0800 
    135 H135       -5.4134  -12.9688  -47.8307 H         1 UNK         0.0800 
    136 H136       -3.6844  -13.4221  -51.1626 H         1 UNK         0.1150 
    137 H137       -3.7169  -17.6844  -50.9208 H         1 UNK         0.1150 
    138 H138       -5.5027  -15.3434  -47.7945 H         1 UNK         0.1150 
    139 H139       -4.6111  -17.8425  -47.4870 H         1 UNK         0.0800 
    140 H140       -6.1642  -17.8629  -48.2915 H         1 UNK         0.0800 
    141 H141       -5.7745  -21.4544  -48.3364 H         1 UNK         0.0800 
    142 H142       -5.7731  -20.1809  -47.1474 H         1 UNK         0.0800 
    143 H143       -3.2556  -21.6858  -48.0261 H         1 UNK         0.0600 
    144 H144       -3.5094  -19.3517  -46.5246 H         1 UNK         0.3000 
    145 H145       -0.2827  -19.1978  -45.4704 H         1 UNK         0.0600 
    146 H146       -1.3566  -17.0146  -45.4083 H         1 UNK         0.0600 
    147 H147       -1.8728  -17.8247  -46.8774 H         1 UNK         0.0600 
    148 H148       -2.9627  -17.7101  -45.4933 H         1 UNK         0.0600 
    149 H149       -0.6677  -18.8106  -43.2798 H         1 UNK         0.3000 
    150 H150       -3.4311  -19.1240  -41.1210 H         1 UNK         0.0600 
    151 H151       -2.2162  -21.3174  -41.0120 H         1 UNK         0.0600 
    152 H152       -1.6907  -20.2264  -39.7402 H         1 UNK         0.0600 
    153 H153       -0.6763  -20.4810  -41.1597 H         1 UNK         0.0600 
    154 H154       -0.8334  -18.0330  -40.7513 H         1 UNK         0.3000 
    155 H155       -0.9410  -15.0735  -42.2969 H         1 UNK         0.0600 
    156 H156       -2.1227  -14.9176  -39.4743 H         1 UNK         0.0600 
    157 H157       -2.7966  -14.1602  -40.9126 H         1 UNK         0.0600 
    158 H158       -1.2422  -13.6288  -40.2979 H         1 UNK         0.0600 
    159 H159        0.2178  -15.6065  -39.7470 H         1 UNK         0.3000 
    160 H160        2.4150  -15.9784  -39.6669 H         1 UNK         0.0600 
    161 H161        2.2555  -18.9554  -40.3862 H         1 UNK         0.0600 
    162 H162        1.3918  -18.1725  -39.0697 H         1 UNK         0.0600 
    163 H163        3.1450  -18.2604  -39.0374 H         1 UNK         0.0600 
    164 H164        3.8787  -17.6237  -41.6035 H         1 UNK         0.3000 
    165 H165        5.3213  -15.1429  -43.3330 H         1 UNK         0.0600 
    166 H166        7.6041  -15.0733  -42.3153 H         1 UNK         0.0600 
    167 H167        6.5107  -14.0344  -41.4199 H         1 UNK         0.0600 
    168 H168        6.9494  -15.6099  -40.7688 H         1 UNK         0.0600 
    169 H169        5.3880  -17.8125  -42.2218 H         1 UNK         0.3000 
    170 H170        7.1293  -19.1589  -45.0095 H         1 UNK         0.0600 
    171 H171        8.3450  -19.3566  -42.8628 H         1 UNK         0.0600 
    172 H172        6.8472  -19.6476  -41.9945 H         1 UNK         0.0600 
    173 H173        7.4157  -20.8110  -43.1882 H         1 UNK         0.0600 
    174 H174        5.0452  -19.8036  -45.2897 H         1 UNK         0.3000 
    175 H175        3.0614  -21.0656  -44.6509 H         1 UNK         0.0600 
    176 H176        1.5290  -19.5078  -42.5090 H         1 UNK         0.0600 
    177 H177        0.8502  -20.7249  -43.5746 H         1 UNK         0.0600 
    178 H178        2.0656  -21.1767  -42.3887 H         1 UNK         0.0600 
    179 H179        1.7770  -18.4156  -44.7122 H         1 UNK         0.3000 
    180 H180        3.1361  -17.3407  -47.6526 H         1 UNK         0.0600 
    181 H181        1.2037  -17.6812  -49.0892 H         1 UNK         0.0600 
    182 H182        0.4757  -18.8261  -47.9619 H         1 UNK         0.0600 
    183 H183        1.9392  -19.2477  -48.8413 H         1 UNK         0.0600 
    184 H184        0.5402  -16.7139  -46.7918 H         1 UNK         0.3000 
    185 H185        0.3704  -15.4445  -44.2979 H         1 UNK         0.0600 
    186 H186        0.9444  -13.0429  -43.9093 H         1 UNK         0.0600 
    187 H187        2.2755  -14.0949  -43.4649 H         1 UNK         0.0600 
    188 H188        2.3401  -13.1959  -44.9780 H         1 UNK         0.0600 
    189 H189        0.5792  -14.3238  -47.0047 H         1 UNK         0.3000 
    190 H190       -4.2154  -21.4036  -44.6366 H         1 UNK         0.3000 
    191 H191       -5.4904  -23.9972  -44.4695 H         1 UNK         0.0600 
    192 H192       -5.3680  -23.6031  -42.0358 H         1 UNK         0.0600 
    193 H193       -5.9320  -22.1465  -42.8412 H         1 UNK         0.0600 
    194 H194       -4.2683  -22.2519  -42.2668 H         1 UNK         0.0600 
    195 H195       -2.1519  -22.8362  -44.2657 H         1 UNK         0.3000 
    196 H196       -1.1147  -25.4332  -43.2845 H         1 UNK         0.0600 
    197 H197        0.3662  -22.8686  -44.0449 H         1 UNK         0.0600 
    198 H198       -0.1752  -23.2546  -42.4101 H         1 UNK         0.0600 
    199 H199        1.0339  -24.2569  -43.2017 H         1 UNK         0.0600 
    200 H200       -1.0848  -23.3106  -46.1650 H         1 UNK         0.3000 
    201 H201        0.5624  -25.0195  -47.7800 H         1 UNK         0.0600 
    202 H202       -1.2634  -22.6893  -48.5745 H         1 UNK         0.0600 
    203 H203        0.0478  -23.3559  -49.5368 H         1 UNK         0.0600 
    204 H204        0.4037  -22.5293  -48.0308 H         1 UNK         0.0600 
    205 H205       -2.6950  -25.3717  -46.9247 H         1 UNK         0.3000 
    206 H206       -4.4247  -26.5946  -47.5693 H         1 UNK         0.0600 
    207 H207       -2.7850  -28.4824  -47.5793 H         1 UNK         0.0600 
    208 H208       -4.0577  -28.7218  -48.7660 H         1 UNK         0.0600 
    209 H209       -2.4617  -28.2044  -49.2897 H         1 UNK         0.0600 
    210 H210       -4.3519  -24.2538  -48.6529 H         1 UNK         0.3000 
    211 H211       -5.1481  -22.8437  -50.1403 H         1 UNK         0.0600 
    212 H212       -6.9763  -23.5230  -51.6290 H         1 UNK         0.0600 
    213 H213       -7.1392  -24.3544  -50.0923 H         1 UNK         0.0600 
    214 H214       -6.5191  -25.2141  -51.5020 H         1 UNK         0.0600 
    215 H215       -2.6174  -24.6423  -50.9923 H         1 UNK         0.3000 
    216 H216       -2.4181  -24.3525  -53.7945 H         1 UNK         0.0600 
    217 H217       -0.1719  -24.4238  -51.7150 H         1 UNK         0.0600 
    218 H218        0.0028  -24.7322  -53.4367 H         1 UNK         0.0600 
    219 H219       -0.9422  -25.8323  -52.4452 H         1 UNK         0.0600 
    220 H220       -1.7746  -22.0287  -51.2043 H         1 UNK         0.3000 
    221 H221       -0.4774  -20.0261  -52.8028 H         1 UNK         0.0600 
    222 H222       -0.2497  -19.9962  -50.3691 H         1 UNK         0.0600 
    223 H223       -1.9859  -19.8388  -50.1442 H         1 UNK         0.0600 
    224 H224       -1.0681  -18.5226  -50.8627 H         1 UNK         0.0600 
    225 H225       -3.9121  -20.5886  -51.8938 H         1 UNK         0.3000 
    226 H226       -4.9895  -18.3197  -53.2538 H         1 UNK         0.0600 
    227 H227       -6.2604  -20.9408  -52.3215 H         1 UNK         0.0600 
    228 H228       -6.3268  -19.3631  -51.5334 H         1 UNK         0.0600 
    229 H229       -7.1675  -19.6195  -53.0438 H         1 UNK         0.0600 
    230 H230       -4.4623  -21.7141  -54.2506 H         1 UNK         0.3000 
    231 H231       -5.5722  -21.5304  -56.8519 H         1 UNK         0.0600 
    232 H232       -3.3064  -23.3269  -55.8366 H         1 UNK         0.0600 
    233 H233       -4.2707  -23.5984  -57.2810 H         1 UNK         0.0600 
    234 H234       -5.0284  -23.6772  -55.6965 H         1 UNK         0.0600 
    235 H235       -2.3566  -20.6240  -55.6275 H         1 UNK         0.3000 
    236 H236       -1.2091  -20.0857  -58.2254 H         1 UNK         0.0600 
    237 H237        0.2111  -20.6984  -56.3020 H         1 UNK         0.0600 
    238 H238        0.6489  -19.1079  -56.9066 H         1 UNK         0.0600 
    239 H239       -0.2879  -19.2546  -55.4272 H         1 UNK         0.0600 
    240 H240       -2.4906  -17.9440  -55.5679 H         1 UNK         0.3000 
    241 H241       -2.1020  -15.6145  -57.2452 H         1 UNK         0.0600 
    242 H242       -5.9733  -16.6384  -57.8108 H         1 UNK         0.3800 
    243 H243       -4.9756  -17.6812  -56.8300 H         1 UNK         0.3800 
    244 H244       -2.7521  -14.2441  -55.4343 H         1 UNK         0.0800 
    245 H245       -1.6740  -15.4749  -54.8570 H         1 UNK         0.0800 
    246 H246       -2.1883  -14.7579  -52.5416 H         1 UNK         0.0800 
    247 H247       -2.1622  -16.4979  -52.4495 H         1 UNK         0.0800 
@<TRIPOS>BOND
     1    1    2 1    
     2    1  127 1    
     3    1  128 1    
     4    1  129 1    
     5    2    3 2    
     6    2    4 am   BACKBONE|DICT|INTERRES
     7    4    5 1    
     8    4  130 1    
     9    5    6 1    
    10    5   65 1    
    11    5  131 1    
    12    6    7 1    
    13    6  132 1    
    14    6  133 1    
    15    7    8 1    
    16    8    9 1    
    17    8  134 1    
    18    8  135 1    
    19    9   10 ar   
    20    9   14 ar   
    21   10   11 ar   
    22   10  136 1    
    23   11   12 ar   
    24   11  126 1    
    25   12   13 ar   
    26   12  137 1    
    27   13   14 ar   
    28   13   15 1    
    29   14  138 1    
    30   15   16 1    
    31   15  139 1    
    32   15  140 1    
    33   16   17 1    
    34   17   18 1    
    35   17  141 1    
    36   17  142 1    
    37   18   19 1    
    38   18   67 1    
    39   18  143 1    
    40   19   20 am   BACKBONE|DICT|INTERRES
    41   19  144 1    
    42   20   21 2    
    43   20   22 1    
    44   22   23 1    
    45   22   24 1    
    46   22  145 1    
    47   23  146 1    
    48   23  147 1    
    49   23  148 1    
    50   24   25 am   BACKBONE|DICT|INTERRES
    51   24  149 1    
    52   25   26 2    
    53   25   27 1    
    54   27   28 1    
    55   27   29 1    
    56   27  150 1    
    57   28  151 1    
    58   28  152 1    
    59   28  153 1    
    60   29   30 am   BACKBONE|DICT|INTERRES
    61   29  154 1    
    62   30   31 2    
    63   30   32 1    
    64   32   33 1    
    65   32   34 1    
    66   32  155 1    
    67   33  156 1    
    68   33  157 1    
    69   33  158 1    
    70   34   35 am   BACKBONE|DICT|INTERRES
    71   34  159 1    
    72   35   36 2    
    73   35   37 1    
    74   37   38 1    
    75   37   39 1    
    76   37  160 1    
    77   38  161 1    
    78   38  162 1    
    79   38  163 1    
    80   39   40 am   BACKBONE|DICT|INTERRES
    81   39  164 1    
    82   40   41 2    
    83   40   42 1    
    84   42   43 1    
    85   42   44 1    
    86   42  165 1    
    87   43  166 1    
    88   43  167 1    
    89   43  168 1    
    90   44   45 am   BACKBONE|DICT|INTERRES
    91   44  169 1    
    92   45   46 2    
    93   45   47 1    
    94   47   48 1    
    95   47   49 1    
    96   47  170 1    
    97   48  171 1    
    98   48  172 1    
    99   48  173 1    
   100   49   50 am   BACKBONE|DICT|INTERRES
   101   49  174 1    
   102   50   51 2    
   103   50   52 1    
   104   52   53 1    
   105   52   54 1    
   106   52  175 1    
   107   53  176 1    
   108   53  177 1    
   109   53  178 1    
   110   54   55 am   BACKBONE|DICT|INTERRES
   111   54  179 1    
   112   55   56 2    
   113   55   57 1    
   114   57   58 1    
   115   57   59 1    
   116   57  180 1    
   117   58  181 1    
   118   58  182 1    
   119   58  183 1    
   120   59   60 am   BACKBONE|DICT|INTERRES
   121   59  184 1    
   122   60   61 2    
   123   60   62 1    
   124   62   63 1    
   125   62   64 1    
   126   62  185 1    
   127   63  186 1    
   128   63  187 1    
   129   63  188 1    
   130   64   65 am   BACKBONE|DICT|INTERRES
   131   64  189 1    
   132   65   66 2    
   133   67   68 2    
   134   67   69 am   BACKBONE|DICT|INTERRES
   135   69   70 1    
   136   69  190 1    
   137   70   71 1    
   138   70   72 1    
   139   70  191 1    
   140   71  192 1    
   141   71  193 1    
   142   71  194 1    
   143   72   73 2    
   144   72   74 am   BACKBONE|DICT|INTERRES
   145   74   75 1    
   146   74  195 1    
   147   75   76 1    
   148   75   77 1    
   149   75  196 1    
   150   76  197 1    
   151   76  198 1    
   152   76  199 1    
   153   77   78 2    
   154   77   79 am   BACKBONE|DICT|INTERRES
   155   79   80 1    
   156   79  200 1    
   157   80   81 1    
   158   80   82 1    
   159   80  201 1    
   160   81  202 1    
   161   81  203 1    
   162   81  204 1    
   163   82   83 2    
   164   82   84 am   BACKBONE|DICT|INTERRES
   165   84   85 1    
   166   84  205 1    
   167   85   86 1    
   168   85   87 1    
   169   85  206 1    
   170   86  207 1    
   171   86  208 1    
   172   86  209 1    
   173   87   88 2    
   174   87   89 am   BACKBONE|DICT|INTERRES
   175   89   90 1    
   176   89  210 1    
   177   90   91 1    
   178   90   92 1    
   179   90  211 1    
   180   91  212 1    
   181   91  213 1    
   182   91  214 1    
   183   92   93 2    
   184   92   94 am   BACKBONE|DICT|INTERRES
   185   94   95 1    
   186   94  215 1    
   187   95   96 1    
   188   95   97 1    
   189   95  216 1    
   190   96  217 1    
   191   96  218 1    
   192   96  219 1    
   193   97   98 2    
   194   97   99 am   BACKBONE|DICT|INTERRES
   195   99  100 1    
   196   99  220 1    
   197  100  101 1    
   198  100  102 1    
   199  100  221 1    
   200  101  222 1    
   201  101  223 1    
   202  101  224 1    
   203  102  103 2    
   204  102  104 am   BACKBONE|DICT|INTERRES
   205  104  105 1    
   206  104  225 1    
   207  105  106 1    
   208  105  107 1    
   209  105  226 1    
   210  106  227 1    
   211  106  228 1    
   212  106  229 1    
   213  107  108 2    
   214  107  109 am   BACKBONE|DICT|INTERRES
   215  109  110 1    
   216  109  230 1    
   217  110  111 1    
   218  110  112 1    
   219  110  231 1    
   220  111  232 1    
   221  111  233 1    
   222  111  234 1    
   223  112  113 2    
   224  112  114 am   BACKBONE|DICT|INTERRES
   225  114  115 1    
   226  114  235 1    
   227  115  116 1    
   228  115  117 1    
   229  115  236 1    
   230  116  237 1    
   231  116  238 1    
   232  116  239 1    
   233  117  118 2    
   234  117  119 am   BACKBONE|DICT|INTERRES
   235  119  120 1    
   236  119  240 1    
   237  120  121 1    
   238  120  124 1    
   239  120  241 1    
   240  121  122 am   BACKBONE|DICT|INTERRES
   241  121  123 2    
   242  122  242 1    
   243  122  243 1    
   244  124  125 1    
   245  124  244 1    
   246  124  245 1    
   247  125  126 1    
   248  126  246 1    
   249  126  247 1    
@<TRIPOS>SUBSTRUCTURE
     1 UNK         1 GROUP             0       ****    0 ROOT    
