@<TRIPOS>MOLECULE
3R540
247   249    1
SMALL
USER_CHARGES


@<TRIPOS>ATOM
      1 CA          4.8992  -13.9931  -44.2874 C.3       0 UNK        -0.1800 
      2 C           3.8597  -13.4780  -45.2702 C.2       0 UNK         0.5000 
      3 O           2.7397  -13.1646  -44.8685 O.2       0 UNK        -0.5000 
      4 N           4.2153  -13.3843  -46.5595 N.am      1 UNK        -0.5000 
      5 CA          3.3174  -12.9433  -47.6391 C.3       1 UNK         0.1400 
      6 C6          3.8563  -13.3203  -49.0483 C.3       23 UNK        -0.0398 
      7 S7          2.5873  -14.1409  -50.0785 S.3       23 UNK        -0.2404 
      8 C8          3.3524  -15.7733  -50.3237 C.3       23 UNK        -0.0205 
      9 C9          2.4230  -16.7488  -51.0322 C.ar      23 UNK        -0.0193 
     10 C10         2.4645  -16.8852  -52.4231 C.ar      23 UNK        -0.1150 
     11 C11         1.6612  -17.8287  -53.0740 C.ar      23 UNK        -0.0193 
     12 C12         0.8188  -18.6492  -52.3126 C.ar      23 UNK        -0.1150 
     13 C13         0.7551  -18.5092  -50.9237 C.ar      23 UNK        -0.0193 
     14 C14         1.5513  -17.5522  -50.2929 C.ar      23 UNK        -0.1150 
     15 C15        -0.1729  -19.3868  -50.1004 C.3       23 UNK        -0.0205 
     16 S16         0.6819  -20.8700  -49.4838 S.3       23 UNK        -0.2404 
     17 C17        -0.7153  -21.7518  -48.7186 C.3       23 UNK        -0.0398 
     18 CA         -0.2752  -22.7941  -47.6655 C.3       11 UNK         0.1400 
     19 N           0.2848  -22.1895  -46.4546 N.am      11 UNK        -0.5000 
     20 C           0.8991  -22.8728  -45.4782 C.2       10 UNK         0.5000 
     21 O           1.1468  -24.0771  -45.5399 O.2       10 UNK        -0.5000 
     22 CA          1.2510  -22.0954  -44.1954 C.3       10 UNK         0.1400 
     23 CB          2.5793  -21.3393  -44.3489 C.3       10 UNK        -0.1800 
     24 N           0.1911  -21.1682  -43.7929 N.am      10 UNK        -0.5000 
     25 C          -1.0302  -21.5497  -43.3902 C.2       9 UNK         0.5000 
     26 O          -1.3726  -22.7265  -43.2705 O.2       9 UNK        -0.5000 
     27 CA         -2.0544  -20.4325  -43.1143 C.3       9 UNK         0.1400 
     28 CB         -1.8704  -19.8609  -41.7010 C.3       9 UNK        -0.1800 
     29 N          -1.9911  -19.3492  -44.0965 N.am      9 UNK        -0.5000 
     30 C          -2.2622  -19.4955  -45.4018 C.2       8 UNK         0.5000 
     31 O          -2.6482  -20.5478  -45.9063 O.2       8 UNK        -0.5000 
     32 CA         -1.9922  -18.2875  -46.3137 C.3       8 UNK         0.1400 
     33 CB         -3.1582  -17.2915  -46.2612 C.3       8 UNK        -0.1800 
     34 N          -0.7324  -17.6144  -45.9913 N.am      8 UNK        -0.5000 
     35 C           0.4724  -18.1999  -46.0547 C.2       7 UNK         0.5000 
     36 O           0.6430  -19.3492  -46.4543 O.2       7 UNK        -0.5000 
     37 CA          1.6822  -17.4055  -45.5362 C.3       7 UNK         0.1400 
     38 CB          2.3126  -16.5554  -46.6417 C.3       7 UNK        -0.1800 
     39 N           1.3447  -16.5658  -44.3894 N.am      7 UNK        -0.5000 
     40 C           1.1571  -17.0513  -43.1550 C.2       6 UNK         0.5000 
     41 O           1.2602  -18.2444  -42.8660 O.2       6 UNK        -0.5000 
     42 CA          0.7526  -16.0348  -42.0734 C.3       6 UNK         0.1400 
     43 CB          1.9628  -15.1988  -41.6280 C.3       6 UNK        -0.1800 
     44 N          -0.3149  -15.1397  -42.5184 N.am      6 UNK        -0.5000 
     45 C          -1.5590  -15.5304  -42.8289 C.2       5 UNK         0.5000 
     46 O          -1.9492  -16.6961  -42.7673 O.2       5 UNK        -0.5000 
     47 CA         -2.5179  -14.4353  -43.3301 C.3       5 UNK         0.1400 
     48 CB         -3.1965  -13.7302  -42.1467 C.3       5 UNK        -0.1800 
     49 N          -1.8704  -13.4335  -44.1789 N.am      5 UNK        -0.5000 
     50 C          -1.2373  -13.6798  -45.3326 C.2       4 UNK         0.5000 
     51 O          -1.0733  -14.8065  -45.7972 O.2       4 UNK        -0.5000 
     52 CA         -0.6485  -12.4732  -46.0744 C.3       4 UNK         0.1400 
     53 CB         -1.7396  -11.6142  -46.7400 C.3       4 UNK        -0.1800 
     54 N           0.2512  -11.6766  -45.2395 N.am      4 UNK        -0.5000 
     55 C          -0.0157  -10.8658  -44.2065 C.2       3 UNK         0.5000 
     56 O          -1.1438  -10.6713  -43.7523 O.2       3 UNK        -0.5000 
     57 CA          1.1984  -10.1650  -43.5666 C.3       3 UNK         0.1400 
     58 CB          1.6721  -10.9400  -42.3266 C.3       3 UNK        -0.1800 
     59 N           2.3126  -10.0391  -44.5113 N.am      3 UNK        -0.5000 
     60 C           2.3950   -9.0980  -45.4641 C.2       2 UNK         0.5000 
     61 O           1.6100   -8.1544  -45.5633 O.2       2 UNK        -0.5000 
     62 CA          3.5275   -9.2552  -46.4986 C.3       2 UNK         0.1400 
     63 CB          4.8239   -8.6111  -45.9846 C.3       2 UNK        -0.1800 
     64 N           3.7860  -10.6567  -46.8379 N.am      2 UNK        -0.5000 
     65 C           2.9547  -11.4423  -47.5406 C.2       1 UNK         0.5000 
     66 O           1.9184  -11.0351  -48.0643 O.2       1 UNK        -0.5000 
     67 C          -1.4421  -23.7431  -47.3283 C.2       11 UNK         0.5000 
     68 O          -1.4385  -24.8802  -47.7955 O.2       11 UNK        -0.5000 
     69 N          -2.3914  -23.2864  -46.4967 N.am      12 UNK        -0.5000 
     70 CA         -3.5828  -24.0363  -46.0833 C.3       12 UNK         0.1400 
     71 CB         -4.4872  -23.1454  -45.2188 C.3       12 UNK        -0.1800 
     72 C          -3.2663  -25.3492  -45.3464 C.2       12 UNK         0.5000 
     73 O          -4.0120  -26.3184  -45.4903 O.2       12 UNK        -0.5000 
     74 N          -2.1519  -25.3669  -44.6023 N.am      13 UNK        -0.5000 
     75 CA         -1.6056  -26.5535  -43.9452 C.3       13 UNK         0.1400 
     76 CB         -0.4729  -26.1306  -42.9979 C.3       13 UNK        -0.1800 
     77 C          -1.1177  -27.6321  -44.9350 C.2       13 UNK         0.5000 
     78 O          -1.1297  -28.8123  -44.5822 O.2       13 UNK        -0.5000 
     79 N          -0.7162  -27.2249  -46.1484 N.am      14 UNK        -0.5000 
     80 CA         -0.3904  -28.1274  -47.2503 C.3       14 UNK         0.1400 
     81 CB          0.6571  -27.4831  -48.1740 C.3       14 UNK        -0.1800 
     82 C          -1.6646  -28.5148  -48.0197 C.2       14 UNK         0.5000 
     83 O          -1.9345  -29.7069  -48.1738 O.2       14 UNK        -0.5000 
     84 N          -2.4395  -27.5131  -48.4577 N.am      15 UNK        -0.5000 
     85 CA         -3.7181  -27.6808  -49.1429 C.3       15 UNK         0.1400 
     86 CB         -3.5015  -28.1832  -50.5840 C.3       15 UNK        -0.1800 
     87 C          -4.4678  -26.3446  -49.1699 C.2       15 UNK         0.5000 
     88 O          -3.8645  -25.3121  -49.4645 O.2       15 UNK        -0.5000 
     89 N          -5.7885  -26.3819  -48.9510 N.am      16 UNK        -0.5000 
     90 CA         -6.6717  -25.2121  -49.0420 C.3       16 UNK         0.1400 
     91 CB         -8.0850  -25.6042  -48.5887 C.3       16 UNK        -0.1800 
     92 C          -6.7069  -24.5841  -50.4504 C.2       16 UNK         0.5000 
     93 O          -6.8580  -23.3693  -50.5737 O.2       16 UNK        -0.5000 
     94 N          -6.5038  -25.4144  -51.4832 N.am      17 UNK        -0.5000 
     95 CA         -6.3640  -24.9997  -52.8791 C.3       17 UNK         0.1400 
     96 CB         -6.3252  -26.2483  -53.7724 C.3       17 UNK        -0.1800 
     97 C          -5.1248  -24.1186  -53.1319 C.2       17 UNK         0.5000 
     98 O          -5.1823  -23.2348  -53.9860 O.2       17 UNK        -0.5000 
     99 N          -4.0411  -24.3452  -52.3733 N.am      18 UNK        -0.5000 
    100 CA        -2.8244  -23.5348  -52.4352 C.3       18 UNK         0.1400 
    101 CB        -1.6521  -24.2915  -51.7900 C.3       18 UNK        -0.1800 
    102 C         -3.0228  -22.1616  -51.7731 C.2       18 UNK         0.5000 
    103 O         -2.4811  -21.1741  -52.2634 O.2       18 UNK        -0.5000 
    104 N         -3.8114  -22.1183  -50.6892 N.am      19 UNK        -0.5000 
    105 CA        -4.1866  -20.8853  -49.9934 C.3       19 UNK         0.1400 
    106 CB        -4.7554  -21.2325  -48.6119 C.3       19 UNK        -0.1800 
    107 C         -5.1831  -20.0288  -50.7960 C.2       19 UNK         0.5000 
    108 O         -5.1392  -18.8025  -50.7013 O.2       19 UNK        -0.5000 
    109 N         -6.0563  -20.6865  -51.5715 N.am      20 UNK        -0.5000 
    110 CA        -7.0002  -20.0493  -52.4907 C.3       20 UNK         0.1400 
    111 CB        -8.0647  -21.0765  -52.9054 C.3       20 UNK        -0.1800 
    112 C         -6.3167  -19.4460  -53.7348 C.2       20 UNK         0.5000 
    113 O         -6.8301  -18.4774  -54.2974 O.2       20 UNK        -0.5000 
    114 N         -5.1820  -20.0267  -54.1455 N.am      21 UNK        -0.5000 
    115 CA        -4.3400  -19.5471  -55.2398 C.3       21 UNK         0.1400 
    116 CB        -3.4104  -20.6897  -55.6831 C.3       21 UNK        -0.1800 
    117 C         -3.5253  -18.2971  -54.8481 C.2       21 UNK         0.5000 
    118 O         -3.4219  -17.9588  -53.6672 O.2       21 UNK        -0.5000 
    119 N         -2.9435  -17.6475  -55.8645 N.am      22 UNK        -0.5000 
    120 CA        -2.0504  -16.4753  -55.7583 C.3       22 UNK         0.1400 
    121 C         -2.7578  -15.1428  -55.3611 C.2       22 UNK         0.5000 
    122 N         -4.0831  -15.0677  -55.3571 N.am      22 UNK        -0.7600 
    123 O         -2.0970  -14.1442  -55.0876 O.2       22 UNK        -0.5000 
    124 C124       -0.7745  -16.7377  -54.9044 C.3       23 UNK        -0.0398 
    125 S125        0.1454  -18.2285  -55.4219 S.3       23 UNK        -0.2404 
    126 C126        1.7507  -17.9705  -54.5924 C.3       23 UNK        -0.0205 
    127 H127        5.8623  -14.1640  -44.7684 H         1 UNK         0.0600 
    128 H128        4.5633  -14.9335  -43.8505 H         1 UNK         0.0600 
    129 H129        5.0420  -13.2732  -43.4816 H         1 UNK         0.0600 
    130 H130        5.1509  -13.6472  -46.8358 H         1 UNK         0.3000 
    131 H131        2.3806  -13.4808  -47.4767 H         1 UNK         0.0600 
    132 H132        4.2317  -12.4508  -49.5916 H         1 UNK         0.0800 
    133 H133        4.7159  -13.9864  -48.9647 H         1 UNK         0.0800 
    134 H134        4.2726  -15.6538  -50.8978 H         1 UNK         0.0800 
    135 H135        3.6491  -16.1850  -49.3587 H         1 UNK         0.0800 
    136 H136        3.1370  -16.2636  -52.9977 H         1 UNK         0.1150 
    137 H137        0.2052  -19.3949  -52.7992 H         1 UNK         0.1150 
    138 H138        1.4960  -17.4492  -49.2216 H         1 UNK         0.1150 
    139 H139       -0.5640  -18.8183  -49.2564 H         1 UNK         0.0800 
    140 H140       -1.0328  -19.6804  -50.7017 H         1 UNK         0.0800 
    141 H141       -1.2548  -22.2405  -49.5285 H         1 UNK         0.0800 
    142 H142       -1.4038  -21.0304  -48.2771 H         1 UNK         0.0800 
    143 H143        0.5088  -23.4086  -48.1139 H         1 UNK         0.0600 
    144 H144        0.1989  -21.1798  -46.3665 H         1 UNK         0.3000 
    145 H145        1.3728  -22.8244  -43.3913 H         1 UNK         0.0600 
    146 H146        2.8335  -20.7971  -43.4379 H         1 UNK         0.0600 
    147 H147        2.5471  -20.6220  -45.1680 H         1 UNK         0.0600 
    148 H148        3.3963  -22.0315  -44.5557 H         1 UNK         0.0600 
    149 H149        0.3996  -20.1797  -43.8496 H         1 UNK         0.3000 
    150 H150       -3.0507  -20.8747  -43.1715 H         1 UNK         0.0600 
    151 H151       -1.9213  -20.6502  -40.9500 H         1 UNK         0.0600 
    152 H152       -2.6505  -19.1369  -41.4653 H         1 UNK         0.0600 
    153 H153       -0.9075  -19.3615  -41.5899 H         1 UNK         0.0600 
    154 H154       -1.7231  -18.4341  -43.7476 H         1 UNK         0.3000 
    155 H155       -1.9174  -18.6592  -47.3365 H         1 UNK         0.0600 
    156 H156       -4.0952  -17.7744  -46.5417 H         1 UNK         0.0600 
    157 H157       -3.0010  -16.4622  -46.9509 H         1 UNK         0.0600 
    158 H158       -3.2884  -16.8788  -45.2615 H         1 UNK         0.0600 
    159 H159       -0.7961  -16.6379  -45.7132 H         1 UNK         0.3000 
    160 H160        2.4360  -18.1282  -45.2166 H         1 UNK         0.0600 
    161 H161        1.6054  -15.8447  -47.0715 H         1 UNK         0.0600 
    162 H162        2.6861  -17.1970  -47.4374 H         1 UNK         0.0600 
    163 H163        3.1722  -16.0059  -46.2663 H         1 UNK         0.0600 
    164 H164        1.2063  -15.5799  -44.5604 H         1 UNK         0.3000 
    165 H165        0.3862  -16.5950  -41.2105 H         1 UNK         0.0600 
    166 H166        1.7034  -14.5410  -40.7983 H         1 UNK         0.0600 
    167 H167        2.7782  -15.8401  -41.2910 H         1 UNK         0.0600 
    168 H168        2.3465  -14.5782  -42.4385 H         1 UNK         0.0600 
    169 H169       -0.0816  -14.1633  -42.6179 H         1 UNK         0.3000 
    170 H170       -3.2929  -14.9199  -43.9260 H         1 UNK         0.0600 
    171 H171       -2.4754  -13.1879  -41.5337 H         1 UNK         0.0600 
    172 H172       -3.9467  -13.0176  -42.4903 H         1 UNK         0.0600 
    173 H173       -3.7034  -14.4489  -41.5014 H         1 UNK         0.0600 
    174 H174       -1.9077  -12.4672  -43.8679 H         1 UNK         0.3000 
    175 H175       -0.0244  -12.8742  -46.8745 H         1 UNK         0.0600 
    176 H176       -2.4320  -11.1883  -46.0138 H         1 UNK         0.0600 
    177 H177       -1.2989  -10.7931  -47.3056 H         1 UNK         0.0600 
    178 H178       -2.3283  -12.2108  -47.4378 H         1 UNK         0.0600 
    179 H179        1.2333  -11.8444  -45.4193 H         1 UNK         0.3000 
    180 H180        0.8820   -9.1695  -43.2480 H         1 UNK         0.0600 
    181 H181        2.5061  -10.4334  -41.8407 H         1 UNK         0.0600 
    182 H182        1.9947  -11.9509  -42.5774 H         1 UNK         0.0600 
    183 H183        0.8714  -11.0254  -41.5909 H         1 UNK         0.0600 
    184 H184        2.9874  -10.7907  -44.5100 H         1 UNK         0.3000 
    185 H185        3.2238   -8.7327  -47.4082 H         1 UNK         0.0600 
    186 H186        5.6116   -8.6559  -46.7369 H         1 UNK         0.0600 
    187 H187        4.6670   -7.5591  -45.7425 H         1 UNK         0.0600 
    188 H188        5.1909   -9.1040  -45.0835 H         1 UNK         0.0600 
    189 H189        4.6221  -11.0709  -46.4525 H         1 UNK         0.3000 
    190 H190       -2.3383  -22.3229  -46.1713 H         1 UNK         0.3000 
    191 H191       -4.1338  -24.2933  -46.9883 H         1 UNK         0.0600 
    192 H192       -4.8002  -22.2512  -45.7567 H         1 UNK         0.0600 
    193 H193       -3.9819  -22.8285  -44.3068 H         1 UNK         0.0600 
    194 H194       -5.3927  -23.6774  -44.9244 H         1 UNK         0.0600 
    195 H195       -1.6357  -24.5021  -44.4869 H         1 UNK         0.3000 
    196 H196       -2.4022  -26.9968  -43.3442 H         1 UNK         0.0600 
    197 H197       -0.8244  -25.4107  -42.2584 H         1 UNK         0.0600 
    198 H198        0.3564  -25.6758  -43.5397 H         1 UNK         0.0600 
    199 H199       -0.0776  -26.9894  -42.4540 H         1 UNK         0.0600 
    200 H200       -0.7836  -26.2411  -46.3825 H         1 UNK         0.3000 
    201 H201        0.0518  -29.0414  -46.8478 H         1 UNK         0.0600 
    202 H202        1.5553  -27.2112  -47.6194 H         1 UNK         0.0600 
    203 H203        0.2834  -26.5842  -48.6632 H         1 UNK         0.0600 
    204 H204        0.9570  -28.1776  -48.9595 H         1 UNK         0.0600 
    205 H205       -2.1598  -26.5466  -48.2908 H         1 UNK         0.3000 
    206 H206       -4.3170  -28.4076  -48.5902 H         1 UNK         0.0600 
    207 H207       -2.8603  -27.5064  -51.1505 H         1 UNK         0.0600 
    208 H208       -3.0409  -29.1706  -50.6012 H         1 UNK         0.0600 
    209 H209       -4.4486  -28.2636  -51.1190 H         1 UNK         0.0600 
    210 H210       -6.2278  -27.2625  -48.7236 H         1 UNK         0.3000 
    211 H211       -6.2920  -24.4519  -48.3561 H         1 UNK         0.0600 
    212 H212       -8.5101  -26.3835  -49.2223 H         1 UNK         0.0600 
    213 H213       -8.7585  -24.7467  -48.6258 H         1 UNK         0.0600 
    214 H214       -8.0825  -25.9691  -47.5614 H         1 UNK         0.0600 
    215 H215       -6.3955  -26.3985  -51.2894 H         1 UNK         0.3000 
    216 H216       -7.2465  -24.4144  -53.1453 H         1 UNK         0.0600 
    217 H217       -6.2439  -25.9728  -54.8248 H         1 UNK         0.0600 
    218 H218       -7.2337  -26.8408  -53.6625 H         1 UNK         0.0600 
    219 H219       -5.4747  -26.8883  -53.5338 H         1 UNK         0.0600 
    220 H220       -4.0822  -25.0420  -51.6411 H         1 UNK         0.3000 
    221 H221       -2.5756  -23.3664  -53.4855 H         1 UNK         0.0600 
    222 H222       -1.8030  -24.4513  -50.7227 H         1 UNK         0.0600 
    223 H223       -1.5048  -25.2654  -52.2568 H         1 UNK         0.0600 
    224 H224       -0.7226  -23.7320  -51.9033 H         1 UNK         0.0600 
    225 H225       -4.2123  -22.9813  -50.3472 H         1 UNK         0.3000 
    226 H226       -3.2853  -20.2877  -49.8450 H         1 UNK         0.0600 
    227 H227       -4.0346  -21.8030  -48.0316 H         1 UNK         0.0600 
    228 H228       -4.9847  -20.3296  -48.0445 H         1 UNK         0.0600 
    229 H229       -5.6709  -21.8200  -48.6826 H         1 UNK         0.0600 
    230 H230       -6.0932  -21.6976  -51.5071 H         1 UNK         0.3000 
    231 H231       -7.4997  -19.2366  -51.9592 H         1 UNK         0.0600 
    232 H232       -8.8142  -20.6217  -53.5542 H         1 UNK         0.0600 
    233 H233       -8.5863  -21.4781  -52.0363 H         1 UNK         0.0600 
    234 H234       -7.6248  -21.9133  -53.4484 H         1 UNK         0.0600 
    235 H235       -4.8265  -20.8113  -53.6177 H         1 UNK         0.3000 
    236 H236       -4.9866  -19.2832  -56.0793 H         1 UNK         0.0600 
    237 H237       -2.7089  -20.9664  -54.8963 H         1 UNK         0.0600 
    238 H238       -3.9787  -21.5799  -55.9535 H         1 UNK         0.0600 
    239 H239       -2.8222  -20.4052  -56.5561 H         1 UNK         0.0600 
    240 H240       -3.0870  -17.9912  -56.8031 H         1 UNK         0.3000 
    241 H241       -1.7084  -16.2971  -56.7783 H         1 UNK         0.0600 
    242 H242       -4.6429  -15.8762  -55.5765 H         1 UNK         0.3800 
    243 H243       -4.5307  -14.1985  -55.1117 H         1 UNK         0.3800 
    244 H244       -1.0322  -16.8357  -53.8490 H         1 UNK         0.0800 
    245 H245       -0.0953  -15.8861  -54.9712 H         1 UNK         0.0800 
    246 H246        2.4006  -18.8156  -54.8221 H         1 UNK         0.0800 
    247 H247        2.2243  -17.0904  -55.0304 H         1 UNK         0.0800 
@<TRIPOS>BOND
     1    1    2 1    
     2    1  127 1    
     3    1  128 1    
     4    1  129 1    
     5    2    3 2    
     6    2    4 am   BACKBONE|DICT|INTERRES
     7    4    5 1    
     8    4  130 1    
     9    5    6 1    
    10    5   65 1    
    11    5  131 1    
    12    6    7 1    
    13    6  132 1    
    14    6  133 1    
    15    7    8 1    
    16    8    9 1    
    17    8  134 1    
    18    8  135 1    
    19    9   10 ar   
    20    9   14 ar   
    21   10   11 ar   
    22   10  136 1    
    23   11   12 ar   
    24   11  126 1    
    25   12   13 ar   
    26   12  137 1    
    27   13   14 ar   
    28   13   15 1    
    29   14  138 1    
    30   15   16 1    
    31   15  139 1    
    32   15  140 1    
    33   16   17 1    
    34   17   18 1    
    35   17  141 1    
    36   17  142 1    
    37   18   19 1    
    38   18   67 1    
    39   18  143 1    
    40   19   20 am   BACKBONE|DICT|INTERRES
    41   19  144 1    
    42   20   21 2    
    43   20   22 1    
    44   22   23 1    
    45   22   24 1    
    46   22  145 1    
    47   23  146 1    
    48   23  147 1    
    49   23  148 1    
    50   24   25 am   BACKBONE|DICT|INTERRES
    51   24  149 1    
    52   25   26 2    
    53   25   27 1    
    54   27   28 1    
    55   27   29 1    
    56   27  150 1    
    57   28  151 1    
    58   28  152 1    
    59   28  153 1    
    60   29   30 am   BACKBONE|DICT|INTERRES
    61   29  154 1    
    62   30   31 2    
    63   30   32 1    
    64   32   33 1    
    65   32   34 1    
    66   32  155 1    
    67   33  156 1    
    68   33  157 1    
    69   33  158 1    
    70   34   35 am   BACKBONE|DICT|INTERRES
    71   34  159 1    
    72   35   36 2    
    73   35   37 1    
    74   37   38 1    
    75   37   39 1    
    76   37  160 1    
    77   38  161 1    
    78   38  162 1    
    79   38  163 1    
    80   39   40 am   BACKBONE|DICT|INTERRES
    81   39  164 1    
    82   40   41 2    
    83   40   42 1    
    84   42   43 1    
    85   42   44 1    
    86   42  165 1    
    87   43  166 1    
    88   43  167 1    
    89   43  168 1    
    90   44   45 am   BACKBONE|DICT|INTERRES
    91   44  169 1    
    92   45   46 2    
    93   45   47 1    
    94   47   48 1    
    95   47   49 1    
    96   47  170 1    
    97   48  171 1    
    98   48  172 1    
    99   48  173 1    
   100   49   50 am   BACKBONE|DICT|INTERRES
   101   49  174 1    
   102   50   51 2    
   103   50   52 1    
   104   52   53 1    
   105   52   54 1    
   106   52  175 1    
   107   53  176 1    
   108   53  177 1    
   109   53  178 1    
   110   54   55 am   BACKBONE|DICT|INTERRES
   111   54  179 1    
   112   55   56 2    
   113   55   57 1    
   114   57   58 1    
   115   57   59 1    
   116   57  180 1    
   117   58  181 1    
   118   58  182 1    
   119   58  183 1    
   120   59   60 am   BACKBONE|DICT|INTERRES
   121   59  184 1    
   122   60   61 2    
   123   60   62 1    
   124   62   63 1    
   125   62   64 1    
   126   62  185 1    
   127   63  186 1    
   128   63  187 1    
   129   63  188 1    
   130   64   65 am   BACKBONE|DICT|INTERRES
   131   64  189 1    
   132   65   66 2    
   133   67   68 2    
   134   67   69 am   BACKBONE|DICT|INTERRES
   135   69   70 1    
   136   69  190 1    
   137   70   71 1    
   138   70   72 1    
   139   70  191 1    
   140   71  192 1    
   141   71  193 1    
   142   71  194 1    
   143   72   73 2    
   144   72   74 am   BACKBONE|DICT|INTERRES
   145   74   75 1    
   146   74  195 1    
   147   75   76 1    
   148   75   77 1    
   149   75  196 1    
   150   76  197 1    
   151   76  198 1    
   152   76  199 1    
   153   77   78 2    
   154   77   79 am   BACKBONE|DICT|INTERRES
   155   79   80 1    
   156   79  200 1    
   157   80   81 1    
   158   80   82 1    
   159   80  201 1    
   160   81  202 1    
   161   81  203 1    
   162   81  204 1    
   163   82   83 2    
   164   82   84 am   BACKBONE|DICT|INTERRES
   165   84   85 1    
   166   84  205 1    
   167   85   86 1    
   168   85   87 1    
   169   85  206 1    
   170   86  207 1    
   171   86  208 1    
   172   86  209 1    
   173   87   88 2    
   174   87   89 am   BACKBONE|DICT|INTERRES
   175   89   90 1    
   176   89  210 1    
   177   90   91 1    
   178   90   92 1    
   179   90  211 1    
   180   91  212 1    
   181   91  213 1    
   182   91  214 1    
   183   92   93 2    
   184   92   94 am   BACKBONE|DICT|INTERRES
   185   94   95 1    
   186   94  215 1    
   187   95   96 1    
   188   95   97 1    
   189   95  216 1    
   190   96  217 1    
   191   96  218 1    
   192   96  219 1    
   193   97   98 2    
   194   97   99 am   BACKBONE|DICT|INTERRES
   195   99  100 1    
   196   99  220 1    
   197  100  101 1    
   198  100  102 1    
   199  100  221 1    
   200  101  222 1    
   201  101  223 1    
   202  101  224 1    
   203  102  103 2    
   204  102  104 am   BACKBONE|DICT|INTERRES
   205  104  105 1    
   206  104  225 1    
   207  105  106 1    
   208  105  107 1    
   209  105  226 1    
   210  106  227 1    
   211  106  228 1    
   212  106  229 1    
   213  107  108 2    
   214  107  109 am   BACKBONE|DICT|INTERRES
   215  109  110 1    
   216  109  230 1    
   217  110  111 1    
   218  110  112 1    
   219  110  231 1    
   220  111  232 1    
   221  111  233 1    
   222  111  234 1    
   223  112  113 2    
   224  112  114 am   BACKBONE|DICT|INTERRES
   225  114  115 1    
   226  114  235 1    
   227  115  116 1    
   228  115  117 1    
   229  115  236 1    
   230  116  237 1    
   231  116  238 1    
   232  116  239 1    
   233  117  118 2    
   234  117  119 am   BACKBONE|DICT|INTERRES
   235  119  120 1    
   236  119  240 1    
   237  120  121 1    
   238  120  124 1    
   239  120  241 1    
   240  121  122 am   BACKBONE|DICT|INTERRES
   241  121  123 2    
   242  122  242 1    
   243  122  243 1    
   244  124  125 1    
   245  124  244 1    
   246  124  245 1    
   247  125  126 1    
   248  126  246 1    
   249  126  247 1    
@<TRIPOS>SUBSTRUCTURE
     1 UNK         1 GROUP             0       ****    0 ROOT    
