@<TRIPOS>MOLECULE
3R540
247   249    1
SMALL
USER_CHARGES


@<TRIPOS>ATOM
      1 CA         -2.9843  -11.1340  -47.6171 C.3       0 UNK        -0.1800 
      2 C          -2.0951  -12.2452  -47.0790 C.2       0 UNK         0.5000 
      3 O          -1.9489  -12.3712  -45.8637 O.2       0 UNK        -0.5000 
      4 N          -1.5197  -13.0570  -47.9797 N.am      1 UNK        -0.5000 
      5 CA         -0.5991  -14.1733  -47.7075 C.3       1 UNK         0.1400 
      6 C6         -0.1912  -14.8728  -49.0328 C.3       23 UNK        -0.0398 
      7 S7          0.9866  -16.2561  -48.8457 S.3       23 UNK        -0.2404 
      8 C8          2.2364  -15.9424  -50.1350 C.3       23 UNK        -0.0205 
      9 C9          2.9608  -17.2240  -50.5399 C.ar      23 UNK        -0.0193 
     10 C10         3.0874  -17.5654  -51.8904 C.ar      23 UNK        -0.1150 
     11 C11         3.7040  -18.7630  -52.2685 C.ar      23 UNK        -0.0193 
     12 C12         4.2076  -19.6184  -51.2847 C.ar      23 UNK        -0.1150 
     13 C13         4.0813  -19.2952  -49.9314 C.ar      23 UNK        -0.0193 
     14 C14         3.4825  -18.0859  -49.5692 C.ar      23 UNK        -0.1150 
     15 C15         4.5332  -20.2756  -48.8557 C.3       23 UNK        -0.0205 
     16 S16         3.5792  -21.8338  -48.8825 S.3       23 UNK        -0.2404 
     17 C17         1.8652  -21.2300  -49.0582 C.3       23 UNK        -0.0398 
     18 CA          0.8219  -22.1370  -48.3652 C.3       11 UNK         0.1400 
     19 N           0.9625  -22.1520  -46.9116 N.am      11 UNK        -0.5000 
     20 C           0.8151  -23.2385  -46.1423 C.2       10 UNK         0.5000 
     21 O           0.6959  -24.3792  -46.5899 O.2       10 UNK        -0.5000 
     22 CA          0.7669  -23.0327  -44.6115 C.3       10 UNK         0.1400 
     23 CB          2.0846  -23.4805  -43.9614 C.3       10 UNK        -0.1800 
     24 N           0.4636  -21.6609  -44.1939 N.am      10 UNK        -0.5000 
     25 C          -0.6671  -21.0041  -44.4865 C.2       9 UNK         0.5000 
     26 O          -1.6019  -21.5080  -45.1074 O.2       9 UNK        -0.5000 
     27 CA         -0.7294  -19.5126  -44.1096 C.3       9 UNK         0.1400 
     28 CB         -1.2098  -19.3319  -42.6635 C.3       9 UNK        -0.1800 
     29 N           0.5510  -18.8284  -44.2921 N.am      9 UNK        -0.5000 
     30 C           1.2112  -18.7146  -45.4540 C.2       8 UNK         0.5000 
     31 O           0.7800  -19.1480  -46.5226 O.2       8 UNK        -0.5000 
     32 CA          2.6232  -18.1050  -45.3914 C.3       8 UNK         0.1400 
     33 CB          2.5931  -16.5731  -45.3159 C.3       8 UNK        -0.1800 
     34 N           3.3664  -18.6239  -44.2462 N.am      8 UNK        -0.5000 
     35 C           3.9618  -19.8229  -44.2117 C.2       7 UNK         0.5000 
     36 O           4.0052  -20.5914  -45.1711 O.2       7 UNK        -0.5000 
     37 CA          4.6092  -20.2385  -42.8765 C.3       7 UNK         0.1400 
     38 CB          6.0984  -19.8625  -42.8625 C.3       7 UNK        -0.1800 
     39 N           3.9542  -19.6395  -41.7111 N.am      7 UNK        -0.5000 
     40 C           2.7281  -19.9662  -41.2790 C.2       6 UNK         0.5000 
     41 O           2.0261  -20.8283  -41.8062 O.2       6 UNK        -0.5000 
     42 CA          2.1763  -19.1469  -40.0955 C.3       6 UNK         0.1400 
     43 CB          2.6825  -19.7130  -38.7605 C.3       6 UNK        -0.1800 
     44 N           2.5120  -17.7208  -40.1825 N.am      6 UNK        -0.5000 
     45 C           2.0964  -16.9136  -41.1665 C.2       5 UNK         0.5000 
     46 O           1.3759  -17.2897  -42.0936 O.2       5 UNK        -0.5000 
     47 CA          2.6141  -15.4706  -41.1560 C.3       5 UNK         0.1400 
     48 CB          4.0854  -15.4364  -41.6191 C.3       5 UNK        -0.1800 
     49 N           1.7736  -14.6898  -42.0590 N.am      5 UNK        -0.5000 
     50 C           1.7919  -13.3644  -42.2275 C.2       4 UNK         0.5000 
     51 O           2.5242  -12.6009  -41.5966 O.2       4 UNK        -0.5000 
     52 CA          0.8249  -12.7912  -43.2790 C.3       4 UNK         0.1400 
     53 CB          1.4790  -12.7840  -44.6689 C.3       4 UNK        -0.1800 
     54 N          -0.4562  -13.5003  -43.3467 N.am      4 UNK        -0.5000 
     55 C          -1.4238  -13.3840  -42.4245 C.2       3 UNK         0.5000 
     56 O          -1.2796  -12.7490  -41.3785 O.2       3 UNK        -0.5000 
     57 CA         -2.7850  -14.0527  -42.7059 C.3       3 UNK         0.1400 
     58 CB         -3.9399  -13.0471  -42.5536 C.3       3 UNK        -0.1800 
     59 N          -2.8573  -14.6316  -44.0475 N.am      3 UNK        -0.5000 
     60 C          -3.1721  -15.9053  -44.3198 C.2       2 UNK         0.5000 
     61 O          -3.4609  -16.7333  -43.4564 O.2       2 UNK        -0.5000 
     62 CA         -3.1698  -16.3491  -45.7999 C.3       2 UNK         0.1400 
     63 CB         -4.6052  -16.5410  -46.3159 C.3       2 UNK        -0.1800 
     64 N          -2.4555  -15.4573  -46.7185 N.am      2 UNK        -0.5000 
     65 C          -1.1487  -15.1641  -46.6522 C.2       1 UNK         0.5000 
     66 O          -0.4089  -15.5774  -45.7604 O.2       1 UNK        -0.5000 
     67 C          -0.6023  -21.6883  -48.7420 C.2       11 UNK         0.5000 
     68 O          -1.2933  -22.4116  -49.4597 O.2       11 UNK        -0.5000 
     69 N          -1.0035  -20.4892  -48.2975 N.am      12 UNK        -0.5000 
     70 CA         -2.1677  -19.7857  -48.8344 C.3       12 UNK         0.1400 
     71 CB         -1.9230  -18.2756  -48.7771 C.3       12 UNK        -0.1800 
     72 C          -3.4989  -20.1434  -48.1637 C.2       12 UNK         0.5000 
     73 O          -4.4935  -20.2925  -48.8720 O.2       12 UNK        -0.5000 
     74 N          -3.5152  -20.2792  -46.8320 N.am      13 UNK        -0.5000 
     75 CA         -4.7194  -20.6349  -46.0722 C.3       13 UNK         0.1400 
     76 CB         -4.5701  -20.2085  -44.6038 C.3       13 UNK        -0.1800 
     77 C          -5.0232  -22.1384  -46.1816 C.2       13 UNK         0.5000 
     78 O          -6.1909  -22.5261  -46.2132 O.2       13 UNK        -0.5000 
     79 N          -3.9655  -22.9533  -46.3093 N.am      14 UNK        -0.5000 
     80 CA         -4.0350  -24.3752  -46.6582 C.3       14 UNK         0.1400 
     81 CB         -2.6271  -24.9775  -46.5640 C.3       14 UNK        -0.1800 
     82 C          -4.6288  -24.6138  -48.0630 C.2       14 UNK         0.5000 
     83 O          -5.2802  -25.6331  -48.2891 O.2       14 UNK        -0.5000 
     84 N          -4.4306  -23.6394  -48.9590 N.am      15 UNK        -0.5000 
     85 CA         -4.9976  -23.5586  -50.3031 C.3       15 UNK         0.1400 
     86 CB         -3.9132  -22.9991  -51.2348 C.3       15 UNK        -0.1800 
     87 C          -6.2776  -22.6951  -50.3345 C.2       15 UNK         0.5000 
     88 O          -6.5769  -22.0886  -51.3669 O.2       15 UNK        -0.5000 
     89 N          -6.9886  -22.6268  -49.1986 N.am      16 UNK        -0.5000 
     90 CA         -8.2031  -21.8607  -48.8978 C.3       16 UNK         0.1400 
     91 CB         -9.3711  -22.2577  -49.8224 C.3       16 UNK        -0.1800 
     92 C          -7.9797  -20.3377  -48.8803 C.2       16 UNK         0.5000 
     93 O          -8.2007  -19.6982  -47.8512 O.2       16 UNK        -0.5000 
     94 N          -7.5423  -19.7944  -50.0169 N.am      17 UNK        -0.5000 
     95 CA         -7.2197  -18.3904  -50.2388 C.3       17 UNK         0.1400 
     96 CB         -8.5101  -17.5722  -50.4473 C.3       17 UNK        -0.1800 
     97 C          -6.2385  -18.2947  -51.4180 C.2       17 UNK         0.5000 
     98 O          -6.4781  -17.5435  -52.3646 O.2       17 UNK        -0.5000 
     99 N          -5.1658  -19.0976  -51.3481 N.am      18 UNK        -0.5000 
    100 CA        -4.0940  -19.2360  -52.3419 C.3       18 UNK         0.1400 
    101 CB        -3.2853  -17.9243  -52.4428 C.3       18 UNK        -0.1800 
    102 C         -4.5846  -19.7505  -53.7147 C.2       18 UNK         0.5000 
    103 O         -4.0132  -19.3874  -54.7436 O.2       18 UNK        -0.5000 
    104 N         -5.6426  -20.5755  -53.7137 N.am      19 UNK        -0.5000 
    105 CA        -6.3016  -21.0734  -54.9226 C.3       19 UNK         0.1400 
    106 CB        -7.7133  -21.5635  -54.5649 C.3       19 UNK        -0.1800 
    107 C         -5.4970  -22.1843  -55.6183 C.2       19 UNK         0.5000 
    108 O         -5.3903  -22.1887  -56.8455 O.2       19 UNK        -0.5000 
    109 N         -4.9349  -23.0990  -54.8191 N.am      20 UNK        -0.5000 
    110 CA        -4.0490  -24.1712  -55.2633 C.3       20 UNK         0.1400 
    111 CB        -4.1132  -25.3335  -54.2567 C.3       20 UNK        -0.1800 
    112 C         -2.6236  -23.6177  -55.4289 C.2       20 UNK         0.5000 
    113 O         -1.8450  -23.6318  -54.4709 O.2       20 UNK        -0.5000 
    114 N         -2.3410  -23.0954  -56.6311 N.am      21 UNK        -0.5000 
    115 CA        -1.1098  -22.4352  -57.0835 C.3       21 UNK         0.1400 
    116 CB         0.0935  -23.4004  -57.0597 C.3       21 UNK        -0.1800 
    117 C         -0.8233  -21.1237  -56.3284 C.2       21 UNK         0.5000 
    118 O         -0.9598  -20.0438  -56.9044 O.2       21 UNK        -0.5000 
    119 N         -0.4553  -21.2503  -55.0534 N.am      22 UNK        -0.5000 
    120 CA        -0.2569  -20.1614  -54.0936 C.3       22 UNK         0.1400 
    121 C         -0.4888  -20.5944  -52.6161 C.2       22 UNK         0.5000 
    122 N         -0.9988  -21.7904  -52.3339 N.am      22 UNK        -0.7600 
    123 O         -0.2373  -19.8170  -51.7023 O.2       22 UNK        -0.5000 
    124 C124        1.0625  -19.3749  -54.3238 C.3       23 UNK        -0.0398 
    125 S125        2.5757  -20.3938  -54.2138 S.3       23 UNK        -0.2404 
    126 C126        3.8171  -19.1477  -53.7363 C.3       23 UNK        -0.0205 
    127 H127       -2.6005  -10.1633  -47.3033 H         1 UNK         0.0600 
    128 H128       -3.9965  -11.2433  -47.2278 H         1 UNK         0.0600 
    129 H129       -3.0349  -11.1445  -48.7060 H         1 UNK         0.0600 
    130 H130       -1.7022  -12.8821  -48.9577 H         1 UNK         0.3000 
    131 H131        0.3035  -13.7327  -47.2812 H         1 UNK         0.0600 
    132 H132        0.2439  -14.1349  -49.7080 H         1 UNK         0.0800 
    133 H133       -1.0750  -15.2605  -49.5420 H         1 UNK         0.0800 
    134 H134        2.9608  -15.2136  -49.7698 H         1 UNK         0.0800 
    135 H135        1.7485  -15.4985  -51.0039 H         1 UNK         0.0800 
    136 H136        2.6889  -16.9069  -52.6492 H         1 UNK         0.1150 
    137 H137        4.6631  -20.5561  -51.5709 H         1 UNK         0.1150 
    138 H138        3.3778  -17.8317  -48.5252 H         1 UNK         0.1150 
    139 H139        5.5910  -20.5022  -48.9941 H         1 UNK         0.0800 
    140 H140        4.4420  -19.8306  -47.8639 H         1 UNK         0.0800 
    141 H141        1.6590  -21.1559  -50.1281 H         1 UNK         0.0800 
    142 H142        1.7995  -20.2138  -48.6689 H         1 UNK         0.0800 
    143 H143        0.9550  -23.1459  -48.7618 H         1 UNK         0.0600 
    144 H144        1.0510  -21.2471  -46.4672 H         1 UNK         0.3000 
    145 H145       -0.0322  -23.6715  -44.2299 H         1 UNK         0.0600 
    146 H146        2.0334  -23.4124  -42.8746 H         1 UNK         0.0600 
    147 H147        2.9246  -22.8734  -44.2976 H         1 UNK         0.0600 
    148 H148        2.3108  -24.5179  -44.2105 H         1 UNK         0.0600 
    149 H149        1.1597  -21.1958  -43.6208 H         1 UNK         0.3000 
    150 H150       -1.4529  -19.0337  -44.7701 H         1 UNK         0.0600 
    151 H151       -2.1895  -19.7871  -42.5159 H         1 UNK         0.0600 
    152 H152       -1.3021  -18.2757  -42.4093 H         1 UNK         0.0600 
    153 H153       -0.5238  -19.7886  -41.9505 H         1 UNK         0.0600 
    154 H154        0.9483  -18.3944  -43.4620 H         1 UNK         0.3000 
    155 H155        3.1499  -18.3849  -46.3045 H         1 UNK         0.0600 
    156 H156        2.1548  -16.1493  -46.2173 H         1 UNK         0.0600 
    157 H157        3.5970  -16.1591  -45.2232 H         1 UNK         0.0600 
    158 H158        2.0036  -16.2205  -44.4710 H         1 UNK         0.0600 
    159 H159        3.3386  -18.0751  -43.4008 H         1 UNK         0.3000 
    160 H160        4.5290  -21.3247  -42.7941 H         1 UNK         0.0600 
    161 H161        6.2423  -18.7831  -42.9246 H         1 UNK         0.0600 
    162 H162        6.6223  -20.3127  -43.7068 H         1 UNK         0.0600 
    163 H163        6.5860  -20.2156  -41.9537 H         1 UNK         0.0600 
    164 H164        4.4647  -18.9215  -41.2187 H         1 UNK         0.3000 
    165 H165        1.0882  -19.2363  -40.1110 H         1 UNK         0.0600 
    166 H166        2.2291  -19.1946  -37.9154 H         1 UNK         0.0600 
    167 H167        2.4303  -20.7701  -38.6647 H         1 UNK         0.0600 
    168 H168        3.7656  -19.6241  -38.6678 H         1 UNK         0.0600 
    169 H169        3.1057  -17.3493  -39.4547 H         1 UNK         0.3000 
    170 H170        2.5251  -15.0691  -40.1449 H         1 UNK         0.0600 
    171 H171        4.1926  -15.7969  -42.6428 H         1 UNK         0.0600 
    172 H172        4.4964  -14.4281  -41.5783 H         1 UNK         0.0600 
    173 H173        4.7158  -16.0591  -40.9834 H         1 UNK         0.0600 
    174 H174        1.1174  -15.2502  -42.5897 H         1 UNK         0.3000 
    175 H175        0.6237  -11.7535  -43.0043 H         1 UNK         0.0600 
    176 H176        1.6542  -13.7941  -45.0385 H         1 UNK         0.0600 
    177 H177        0.8522  -12.2635  -45.3927 H         1 UNK         0.0600 
    178 H178        2.4412  -12.2708  -44.6468 H         1 UNK         0.0600 
    179 H179       -0.6222  -14.0682  -44.1683 H         1 UNK         0.3000 
    180 H180       -2.9040  -14.8271  -41.9457 H         1 UNK         0.0600 
    181 H181       -4.9044  -13.5289  -42.7151 H         1 UNK         0.0600 
    182 H182       -3.8512  -12.2269  -43.2674 H         1 UNK         0.0600 
    183 H183       -3.9597  -12.6139  -41.5529 H         1 UNK         0.0600 
    184 H184       -2.6244  -14.0031  -44.8102 H         1 UNK         0.3000 
    185 H185       -2.6708  -17.3182  -45.8311 H         1 UNK         0.0600 
    186 H186       -5.1436  -15.5938  -46.3630 H         1 UNK         0.0600 
    187 H187       -4.6127  -16.9839  -47.3120 H         1 UNK         0.0600 
    188 H188       -5.1733  -17.2074  -45.6659 H         1 UNK         0.0600 
    189 H189       -3.0050  -15.0282  -47.4482 H         1 UNK         0.3000 
    190 H190       -0.3784  -19.9490  -47.7024 H         1 UNK         0.3000 
    191 H191       -2.2742  -20.0449  -49.8889 H         1 UNK         0.0600 
    192 H192       -1.1924  -17.9891  -49.5324 H         1 UNK         0.0600 
    193 H193       -1.5399  -17.9674  -47.8053 H         1 UNK         0.0600 
    194 H194       -2.8321  -17.7077  -48.9785 H         1 UNK         0.0600 
    195 H195       -2.6403  -20.2826  -46.3230 H         1 UNK         0.3000 
    196 H196       -5.5669  -20.0882  -46.4925 H         1 UNK         0.0600 
    197 H197       -4.2419  -19.1735  -44.5183 H         1 UNK         0.0600 
    198 H198       -3.8580  -20.8323  -44.0652 H         1 UNK         0.0600 
    199 H199       -5.5246  -20.2908  -44.0830 H         1 UNK         0.0600 
    200 H200       -3.0416  -22.5513  -46.1931 H         1 UNK         0.3000 
    201 H201       -4.6782  -24.8730  -45.9299 H         1 UNK         0.0600 
    202 H202       -2.2004  -24.8374  -45.5706 H         1 UNK         0.0600 
    203 H203       -1.9505  -24.5207  -47.2876 H         1 UNK         0.0600 
    204 H204       -2.6455  -26.0495  -46.7635 H         1 UNK         0.0600 
    205 H205       -3.8835  -22.8404  -48.6717 H         1 UNK         0.3000 
    206 H206       -5.2718  -24.5544  -50.6560 H         1 UNK         0.0600 
    207 H207       -3.5720  -22.0222  -50.8971 H         1 UNK         0.0600 
    208 H208       -3.0479  -23.6611  -51.2684 H         1 UNK         0.0600 
    209 H209       -4.2710  -22.8845  -52.2541 H         1 UNK         0.0600 
    210 H210       -6.6031  -23.1057  -48.3954 H         1 UNK         0.3000 
    211 H211       -8.4844  -22.1459  -47.8829 H         1 UNK         0.0600 
    212 H212       -9.1774  -22.0093  -50.8661 H         1 UNK         0.0600 
    213 H213      -10.2868  -21.7416  -49.5316 H         1 UNK         0.0600 
    214 H214       -9.5696  -23.3279  -49.7657 H         1 UNK         0.0600 
    215 H215       -7.3264  -20.4324  -50.7778 H         1 UNK         0.3000 
    216 H216       -6.6975  -18.0041  -49.3608 H         1 UNK         0.0600 
    217 H217       -8.2833  -16.5186  -50.6142 H         1 UNK         0.0600 
    218 H218       -9.1608  -17.6264  -49.5746 H         1 UNK         0.0600 
    219 H219       -9.0751  -17.9302  -51.3087 H         1 UNK         0.0600 
    220 H220       -5.0587  -19.6614  -50.5061 H         1 UNK         0.3000 
    221 H221       -3.4203  -20.0025  -51.9634 H         1 UNK         0.0600 
    222 H222       -3.8739  -17.1172  -52.8794 H         1 UNK         0.0600 
    223 H223       -2.9422  -17.5955  -51.4629 H         1 UNK         0.0600 
    224 H224       -2.3998  -18.0488  -53.0637 H         1 UNK         0.0600 
    225 H225       -6.0323  -20.8798  -52.8274 H         1 UNK         0.3000 
    226 H226       -6.4027  -20.2440  -55.6260 H         1 UNK         0.0600 
    227 H227       -8.3042  -20.7663  -54.1134 H         1 UNK         0.0600 
    228 H228       -8.2463  -21.8999  -55.4550 H         1 UNK         0.0600 
    229 H229       -7.6873  -22.3981  -53.8633 H         1 UNK         0.0600 
    230 H230       -5.0617  -23.0002  -53.8236 H         1 UNK         0.3000 
    231 H231       -4.3917  -24.5521  -56.2279 H         1 UNK         0.0600 
    232 H232       -3.4803  -26.1601  -54.5816 H         1 UNK         0.0600 
    233 H233       -5.1287  -25.7189  -54.1650 H         1 UNK         0.0600 
    234 H234       -3.7768  -25.0398  -53.2630 H         1 UNK         0.0600 
    235 H235       -3.0984  -23.0691  -57.3015 H         1 UNK         0.3000 
    236 H236       -1.2823  -22.1629  -58.1260 H         1 UNK         0.0600 
    237 H237        0.3169  -23.7655  -56.0572 H         1 UNK         0.0600 
    238 H238       -0.0889  -24.2673  -57.6947 H         1 UNK         0.0600 
    239 H239        0.9921  -22.9081  -57.4334 H         1 UNK         0.0600 
    240 H240       -0.4189  -22.1860  -54.6687 H         1 UNK         0.3000 
    241 H241       -1.0681  -19.4567  -54.2780 H         1 UNK         0.0600 
    242 H242       -1.1353  -22.0395  -51.3600 H         1 UNK         0.3800 
    243 H243       -1.2743  -22.4499  -53.0536 H         1 UNK         0.3800 
    244 H244        1.1235  -18.5465  -53.6183 H         1 UNK         0.0800 
    245 H245        1.0457  -18.9122  -55.3110 H         1 UNK         0.0800 
    246 H246        3.7215  -18.2699  -54.3774 H         1 UNK         0.0800 
    247 H247        4.8119  -19.5540  -53.9246 H         1 UNK         0.0800 
@<TRIPOS>BOND
     1    1    2 1    
     2    1  127 1    
     3    1  128 1    
     4    1  129 1    
     5    2    3 2    
     6    2    4 am   BACKBONE|DICT|INTERRES
     7    4    5 1    
     8    4  130 1    
     9    5    6 1    
    10    5   65 1    
    11    5  131 1    
    12    6    7 1    
    13    6  132 1    
    14    6  133 1    
    15    7    8 1    
    16    8    9 1    
    17    8  134 1    
    18    8  135 1    
    19    9   10 ar   
    20    9   14 ar   
    21   10   11 ar   
    22   10  136 1    
    23   11   12 ar   
    24   11  126 1    
    25   12   13 ar   
    26   12  137 1    
    27   13   14 ar   
    28   13   15 1    
    29   14  138 1    
    30   15   16 1    
    31   15  139 1    
    32   15  140 1    
    33   16   17 1    
    34   17   18 1    
    35   17  141 1    
    36   17  142 1    
    37   18   19 1    
    38   18   67 1    
    39   18  143 1    
    40   19   20 am   BACKBONE|DICT|INTERRES
    41   19  144 1    
    42   20   21 2    
    43   20   22 1    
    44   22   23 1    
    45   22   24 1    
    46   22  145 1    
    47   23  146 1    
    48   23  147 1    
    49   23  148 1    
    50   24   25 am   BACKBONE|DICT|INTERRES
    51   24  149 1    
    52   25   26 2    
    53   25   27 1    
    54   27   28 1    
    55   27   29 1    
    56   27  150 1    
    57   28  151 1    
    58   28  152 1    
    59   28  153 1    
    60   29   30 am   BACKBONE|DICT|INTERRES
    61   29  154 1    
    62   30   31 2    
    63   30   32 1    
    64   32   33 1    
    65   32   34 1    
    66   32  155 1    
    67   33  156 1    
    68   33  157 1    
    69   33  158 1    
    70   34   35 am   BACKBONE|DICT|INTERRES
    71   34  159 1    
    72   35   36 2    
    73   35   37 1    
    74   37   38 1    
    75   37   39 1    
    76   37  160 1    
    77   38  161 1    
    78   38  162 1    
    79   38  163 1    
    80   39   40 am   BACKBONE|DICT|INTERRES
    81   39  164 1    
    82   40   41 2    
    83   40   42 1    
    84   42   43 1    
    85   42   44 1    
    86   42  165 1    
    87   43  166 1    
    88   43  167 1    
    89   43  168 1    
    90   44   45 am   BACKBONE|DICT|INTERRES
    91   44  169 1    
    92   45   46 2    
    93   45   47 1    
    94   47   48 1    
    95   47   49 1    
    96   47  170 1    
    97   48  171 1    
    98   48  172 1    
    99   48  173 1    
   100   49   50 am   BACKBONE|DICT|INTERRES
   101   49  174 1    
   102   50   51 2    
   103   50   52 1    
   104   52   53 1    
   105   52   54 1    
   106   52  175 1    
   107   53  176 1    
   108   53  177 1    
   109   53  178 1    
   110   54   55 am   BACKBONE|DICT|INTERRES
   111   54  179 1    
   112   55   56 2    
   113   55   57 1    
   114   57   58 1    
   115   57   59 1    
   116   57  180 1    
   117   58  181 1    
   118   58  182 1    
   119   58  183 1    
   120   59   60 am   BACKBONE|DICT|INTERRES
   121   59  184 1    
   122   60   61 2    
   123   60   62 1    
   124   62   63 1    
   125   62   64 1    
   126   62  185 1    
   127   63  186 1    
   128   63  187 1    
   129   63  188 1    
   130   64   65 am   BACKBONE|DICT|INTERRES
   131   64  189 1    
   132   65   66 2    
   133   67   68 2    
   134   67   69 am   BACKBONE|DICT|INTERRES
   135   69   70 1    
   136   69  190 1    
   137   70   71 1    
   138   70   72 1    
   139   70  191 1    
   140   71  192 1    
   141   71  193 1    
   142   71  194 1    
   143   72   73 2    
   144   72   74 am   BACKBONE|DICT|INTERRES
   145   74   75 1    
   146   74  195 1    
   147   75   76 1    
   148   75   77 1    
   149   75  196 1    
   150   76  197 1    
   151   76  198 1    
   152   76  199 1    
   153   77   78 2    
   154   77   79 am   BACKBONE|DICT|INTERRES
   155   79   80 1    
   156   79  200 1    
   157   80   81 1    
   158   80   82 1    
   159   80  201 1    
   160   81  202 1    
   161   81  203 1    
   162   81  204 1    
   163   82   83 2    
   164   82   84 am   BACKBONE|DICT|INTERRES
   165   84   85 1    
   166   84  205 1    
   167   85   86 1    
   168   85   87 1    
   169   85  206 1    
   170   86  207 1    
   171   86  208 1    
   172   86  209 1    
   173   87   88 2    
   174   87   89 am   BACKBONE|DICT|INTERRES
   175   89   90 1    
   176   89  210 1    
   177   90   91 1    
   178   90   92 1    
   179   90  211 1    
   180   91  212 1    
   181   91  213 1    
   182   91  214 1    
   183   92   93 2    
   184   92   94 am   BACKBONE|DICT|INTERRES
   185   94   95 1    
   186   94  215 1    
   187   95   96 1    
   188   95   97 1    
   189   95  216 1    
   190   96  217 1    
   191   96  218 1    
   192   96  219 1    
   193   97   98 2    
   194   97   99 am   BACKBONE|DICT|INTERRES
   195   99  100 1    
   196   99  220 1    
   197  100  101 1    
   198  100  102 1    
   199  100  221 1    
   200  101  222 1    
   201  101  223 1    
   202  101  224 1    
   203  102  103 2    
   204  102  104 am   BACKBONE|DICT|INTERRES
   205  104  105 1    
   206  104  225 1    
   207  105  106 1    
   208  105  107 1    
   209  105  226 1    
   210  106  227 1    
   211  106  228 1    
   212  106  229 1    
   213  107  108 2    
   214  107  109 am   BACKBONE|DICT|INTERRES
   215  109  110 1    
   216  109  230 1    
   217  110  111 1    
   218  110  112 1    
   219  110  231 1    
   220  111  232 1    
   221  111  233 1    
   222  111  234 1    
   223  112  113 2    
   224  112  114 am   BACKBONE|DICT|INTERRES
   225  114  115 1    
   226  114  235 1    
   227  115  116 1    
   228  115  117 1    
   229  115  236 1    
   230  116  237 1    
   231  116  238 1    
   232  116  239 1    
   233  117  118 2    
   234  117  119 am   BACKBONE|DICT|INTERRES
   235  119  120 1    
   236  119  240 1    
   237  120  121 1    
   238  120  124 1    
   239  120  241 1    
   240  121  122 am   BACKBONE|DICT|INTERRES
   241  121  123 2    
   242  122  242 1    
   243  122  243 1    
   244  124  125 1    
   245  124  244 1    
   246  124  245 1    
   247  125  126 1    
   248  126  246 1    
   249  126  247 1    
@<TRIPOS>SUBSTRUCTURE
     1 UNK         1 GROUP             0       ****    0 ROOT    
