@<TRIPOS>MOLECULE
3R540
247   249    1
SMALL
USER_CHARGES


@<TRIPOS>ATOM
      1 CA          4.3174  -10.3089  -47.0586 C.3       0 UNK        -0.1800 
      2 C           3.1626  -11.2665  -46.8090 C.2       0 UNK         0.5000 
      3 O           2.2484  -10.9393  -46.0523 O.2       0 UNK        -0.5000 
      4 N           3.1853  -12.4387  -47.4574 N.am      1 UNK        -0.5000 
      5 CA          2.2125  -13.5330  -47.3004 C.3       1 UNK         0.1400 
      6 C6          2.6480  -14.8118  -48.0537 C.3       23 UNK        -0.0398 
      7 S7          4.3131  -15.3981  -47.5890 S.3       23 UNK        -0.2404 
      8 C8          5.0700  -15.7005  -49.2166 C.3       23 UNK        -0.0205 
      9 C9          4.4399  -16.8925  -49.9230 C.ar      23 UNK        -0.0193 
     10 C10         3.4383  -16.6984  -50.8768 C.ar      23 UNK        -0.1150 
     11 C11         2.8568  -17.7881  -51.5271 C.ar      23 UNK        -0.0193 
     12 C12         3.3010  -19.0805  -51.2368 C.ar      23 UNK        -0.1150 
     13 C13         4.3150  -19.2949  -50.2922 C.ar      23 UNK        -0.0193 
     14 C14         4.8714  -18.1909  -49.6372 C.ar      23 UNK        -0.1150 
     15 C15         4.8736  -20.6847  -49.9750 C.3       23 UNK        -0.0205 
     16 S16         3.8525  -22.0983  -50.5202 S.3       23 UNK        -0.2404 
     17 C17         2.4721  -22.0169  -49.3311 C.3       23 UNK        -0.0398 
     18 CA          2.4915  -23.1859  -48.3133 C.3       11 UNK         0.1400 
     19 N           1.9158  -22.7824  -47.0275 N.am      11 UNK        -0.5000 
     20 C           2.1091  -23.4255  -45.8668 C.2       10 UNK         0.5000 
     21 O           2.8564  -24.3980  -45.7531 O.2       10 UNK        -0.5000 
     22 CA          1.3533  -22.9172  -44.6202 C.3       10 UNK         0.1400 
     23 CB          2.3341  -22.2755  -43.6262 C.3       10 UNK        -0.1800 
     24 N           0.2781  -21.9636  -44.9017 N.am      10 UNK        -0.5000 
     25 C          -0.8476  -22.2360  -45.5752 C.2       9 UNK         0.5000 
     26 O          -1.1229  -23.3436  -46.0371 O.2       9 UNK        -0.5000 
     27 CA         -1.7909  -21.0487  -45.8384 C.3       9 UNK         0.1400 
     28 CB         -2.6655  -20.7572  -44.6115 C.3       9 UNK        -0.1800 
     29 N          -1.0957  -19.8257  -46.2442 N.am      9 UNK        -0.5000 
     30 C          -0.2731  -19.7143  -47.2988 C.2       8 UNK         0.5000 
     31 O           0.0304  -20.6518  -48.0329 O.2       8 UNK        -0.5000 
     32 CA          0.3751  -18.3395  -47.5274 C.3       8 UNK         0.1400 
     33 CB         -0.6458  -17.3361  -48.0882 C.3       8 UNK        -0.1800 
     34 N           0.9710  -17.8351  -46.2897 N.am      8 UNK        -0.5000 
     35 C           2.0508  -18.3801  -45.7072 C.2       7 UNK         0.5000 
     36 O           2.7320  -19.2681  -46.2201 O.2       7 UNK        -0.5000 
     37 CA          2.3992  -17.8938  -44.2893 C.3       7 UNK         0.1400 
     38 CB          3.3740  -16.7084  -44.3321 C.3       7 UNK        -0.1800 
     39 N           1.2081  -17.5251  -43.5232 N.am      7 UNK        -0.5000 
     40 C           0.3506  -18.4120  -42.9965 C.2       6 UNK         0.5000 
     41 O           0.4887  -19.6303  -43.0970 O.2       6 UNK        -0.5000 
     42 CA         -0.8861  -17.8531  -42.2638 C.3       6 UNK         0.1400 
     43 CB         -0.5642  -17.6005  -40.7838 C.3       6 UNK        -0.1800 
     44 N          -1.4032  -16.6217  -42.8598 N.am      6 UNK        -0.5000 
     45 C          -1.8791  -16.5187  -44.1080 C.2       5 UNK         0.5000 
     46 O          -2.0170  -17.4817  -44.8609 O.2       5 UNK        -0.5000 
     47 CA         -2.2072  -15.1035  -44.6234 C.3       5 UNK         0.1400 
     48 CB         -3.7117  -14.8231  -44.4994 C.3       5 UNK        -0.1800 
     49 N          -1.4618  -14.0161  -43.9767 N.am      5 UNK        -0.5000 
     50 C          -0.1279  -13.9123  -43.8990 C.2       4 UNK         0.5000 
     51 O           0.6479  -14.7880  -44.2834 O.2       4 UNK        -0.5000 
     52 CA          0.4193  -12.6012  -43.3070 C.3       4 UNK         0.1400 
     53 CB          1.9316  -12.6678  -43.0264 C.3       4 UNK        -0.1800 
     54 N           0.1586  -11.4903  -44.2176 N.am      4 UNK        -0.5000 
     55 C          -0.9979  -10.8227  -44.3214 C.2       3 UNK         0.5000 
     56 O          -1.9827  -11.0508  -43.6171 O.2       3 UNK        -0.5000 
     57 CA         -1.0736   -9.7544  -45.4225 C.3       3 UNK         0.1400 
     58 CB         -0.2324   -8.5218  -45.0533 C.3       3 UNK        -0.1800 
     59 N          -0.5978  -10.3074  -46.6888 N.am      3 UNK        -0.5000 
     60 C          -1.3870  -10.8318  -47.6369 C.2       2 UNK         0.5000 
     61 O          -2.6175  -10.8175  -47.5900 O.2       2 UNK        -0.5000 
     62 CA         -0.6862  -11.4942  -48.8411 C.3       2 UNK         0.1400 
     63 CB         -0.4871  -10.4778  -49.9756 C.3       2 UNK        -0.1800 
     64 N           0.6087  -12.0803  -48.4923 N.am      2 UNK        -0.5000 
     65 C           0.7686  -13.1537  -47.7047 C.2       1 UNK         0.5000 
     66 O          -0.1717  -13.8288  -47.2901 O.2       1 UNK        -0.5000 
     67 C           1.8231  -24.4586  -48.8888 C.2       11 UNK         0.5000 
     68 O           2.4127  -25.1089  -49.7533 O.2       11 UNK        -0.5000 
     69 N           0.6246  -24.8085  -48.4015 N.am      12 UNK        -0.5000 
     70 CA         -0.1094  -26.0129  -48.7791 C.3       12 UNK         0.1400 
     71 CB         -1.0398  -25.7070  -49.9727 C.3       12 UNK        -0.1800 
     72 C          -0.8372  -26.5772  -47.5454 C.2       12 UNK         0.5000 
     73 O          -0.3329  -26.4603  -46.4274 O.2       12 UNK        -0.5000 
     74 N          -2.0105  -27.1831  -47.7648 N.am      13 UNK        -0.5000 
     75 CA         -2.8634  -27.7924  -46.7396 C.3       13 UNK         0.1400 
     76 CB         -3.6473  -28.9451  -47.3920 C.3       13 UNK        -0.1800 
     77 C          -3.8182  -26.7873  -46.0564 C.2       13 UNK         0.5000 
     78 O          -4.7355  -27.2146  -45.3549 O.2       13 UNK        -0.5000 
     79 N          -3.6167  -25.4817  -46.2964 N.am      14 UNK        -0.5000 
     80 CA         -4.3990  -24.3421  -45.7977 C.3       14 UNK         0.1400 
     81 CB         -4.3531  -24.2647  -44.2574 C.3       14 UNK        -0.1800 
     82 C          -5.8395  -24.2616  -46.3483 C.2       14 UNK         0.5000 
     83 O          -6.6407  -23.4824  -45.8297 O.2       14 UNK        -0.5000 
     84 N          -6.1342  -25.0209  -47.4141 N.am      15 UNK        -0.5000 
     85 CA         -7.4222  -25.0839  -48.1079 C.3       15 UNK         0.1400 
     86 CB         -7.3456  -26.1673  -49.1958 C.3       15 UNK        -0.1800 
     87 C          -7.8032  -23.7180  -48.7054 C.2       15 UNK         0.5000 
     88 O          -7.1881  -23.2936  -49.6868 O.2       15 UNK        -0.5000 
     89 N          -8.7455  -23.0268  -48.0476 N.am      16 UNK        -0.5000 
     90 CA         -9.1609  -21.6419  -48.3067 C.3       16 UNK         0.1400 
     91 CB         -9.9440  -21.5509  -49.6326 C.3       16 UNK        -0.1800 
     92 C          -7.9805  -20.6472  -48.2144 C.2       16 UNK         0.5000 
     93 O          -7.8437  -19.7639  -49.0613 O.2       16 UNK        -0.5000 
     94 N          -7.1281  -20.8536  -47.1964 N.am      17 UNK        -0.5000 
     95 CA         -5.8469  -20.1773  -46.9553 C.3       17 UNK         0.1400 
     96 CB         -6.0379  -18.6721  -46.6746 C.3       17 UNK        -0.1800 
     97 C          -4.8107  -20.4684  -48.0619 C.2       17 UNK         0.5000 
     98 O          -4.0214  -19.5939  -48.4174 O.2       17 UNK        -0.5000 
     99 N          -4.8417  -21.7119  -48.5677 N.am      18 UNK        -0.5000 
    100 CA        -4.0492  -22.2581  -49.6713 C.3       18 UNK         0.1400 
    101 CB        -2.5532  -22.3238  -49.3183 C.3       18 UNK        -0.1800 
    102 C         -4.3159  -21.4942  -50.9765 C.2       18 UNK         0.5000 
    103 O         -3.4023  -20.8940  -51.5487 O.2       18 UNK        -0.5000 
    104 N         -5.5771  -21.5235  -51.4249 N.am      19 UNK        -0.5000 
    105 CA        -6.0520  -20.8477  -52.6385 C.3       19 UNK         0.1400 
    106 CB        -7.5744  -21.0106  -52.7442 C.3       19 UNK        -0.1800 
    107 C         -5.3588  -21.3204  -53.9332 C.2       19 UNK         0.5000 
    108 O         -5.2679  -20.5513  -54.8904 O.2       19 UNK        -0.5000 
    109 N         -4.8561  -22.5628  -53.9257 N.am      20 UNK        -0.5000 
    110 CA        -4.0371  -23.1438  -54.9889 C.3       20 UNK         0.1400 
    111 CB        -3.9577  -24.6637  -54.7772 C.3       20 UNK        -0.1800 
    112 C         -2.6198  -22.5387  -55.0688 C.2       20 UNK         0.5000 
    113 O         -2.0224  -22.5627  -56.1456 O.2       20 UNK        -0.5000 
    114 N         -2.1054  -22.0181  -53.9448 N.am      21 UNK        -0.5000 
    115 CA        -0.8156  -21.3365  -53.8657 C.3       21 UNK         0.1400 
    116 CB        -0.1657  -21.5901  -52.4922 C.3       21 UNK        -0.1800 
    117 C         -1.0007  -19.8364  -54.1388 C.2       21 UNK         0.5000 
    118 O         -0.4407  -19.3243  -55.1087 O.2       21 UNK        -0.5000 
    119 N         -1.7978  -19.1730  -53.2930 N.am      22 UNK        -0.5000 
    120 CA        -2.1040  -17.7329  -53.3546 C.3       22 UNK         0.1400 
    121 C         -3.2338  -17.2669  -52.3894 C.2       22 UNK         0.5000 
    122 N         -3.7871  -18.1055  -51.5234 N.am      22 UNK        -0.7600 
    123 O         -3.6407  -16.1092  -52.4416 O.2       22 UNK        -0.5000 
    124 C124       -0.8489  -16.8154  -53.2468 C.3       23 UNK        -0.0398 
    125 S125        0.1860  -17.1242  -51.7713 S.3       23 UNK        -0.2404 
    126 C126        1.7660  -17.5601  -52.5598 C.3       23 UNK        -0.0205 
    127 H127        4.8300  -10.0905  -46.1219 H         1 UNK         0.0600 
    128 H128        3.9442   -9.3715  -47.4708 H         1 UNK         0.0600 
    129 H129        5.0449  -10.7236  -47.7567 H         1 UNK         0.0600 
    130 H130        3.9692  -12.6477  -48.0591 H         1 UNK         0.3000 
    131 H131        2.1813  -13.7718  -46.2362 H         1 UNK         0.0600 
    132 H132        1.9557  -15.6291  -47.8521 H         1 UNK         0.0800 
    133 H133        2.6068  -14.6343  -49.1282 H         1 UNK         0.0800 
    134 H134        4.9941  -14.8025  -49.8316 H         1 UNK         0.0800 
    135 H135        6.1368  -15.8824  -49.0784 H         1 UNK         0.0800 
    136 H136        3.1041  -15.6991  -51.1164 H         1 UNK         0.1150 
    137 H137        2.8583  -19.9117  -51.7642 H         1 UNK         0.1150 
    138 H138        5.6537  -18.3405  -48.9059 H         1 UNK         0.1150 
    139 H139        5.8513  -20.7714  -50.4506 H         1 UNK         0.0800 
    140 H140        5.0453  -20.7747  -48.9009 H         1 UNK         0.0800 
    141 H141        1.5287  -21.9766  -49.8791 H         1 UNK         0.0800 
    142 H142        2.5411  -21.0628  -48.8058 H         1 UNK         0.0800 
    143 H143        3.5348  -23.4422  -48.1162 H         1 UNK         0.0600 
    144 H144        1.2763  -21.9955  -47.0576 H         1 UNK         0.3000 
    145 H145        0.9043  -23.7905  -44.1428 H         1 UNK         0.0600 
    146 H146        1.8347  -22.0126  -42.6936 H         1 UNK         0.0600 
    147 H147        3.1465  -22.9586  -43.3750 H         1 UNK         0.0600 
    148 H148        2.7806  -21.3684  -44.0356 H         1 UNK         0.0600 
    149 H149        0.3996  -21.0302  -44.5207 H         1 UNK         0.3000 
    150 H150       -2.4479  -21.3309  -46.6588 H         1 UNK         0.0600 
    151 H151       -3.2523  -21.6303  -44.3321 H         1 UNK         0.0600 
    152 H152       -3.3639  -19.9434  -44.8065 H         1 UNK         0.0600 
    153 H153       -2.0634  -20.4807  -43.7468 H         1 UNK         0.0600 
    154 H154       -1.3137  -18.9878  -45.7103 H         1 UNK         0.3000 
    155 H155        1.1685  -18.4602  -48.2691 H         1 UNK         0.0600 
    156 H156       -0.1704  -16.4002  -48.3771 H         1 UNK         0.0600 
    157 H157       -1.4330  -17.1042  -47.3723 H         1 UNK         0.0600 
    158 H158       -1.1305  -17.7368  -48.9798 H         1 UNK         0.0600 
    159 H159        0.4595  -17.1231  -45.7881 H         1 UNK         0.3000 
    160 H160        2.8982  -18.7156  -43.7711 H         1 UNK         0.0600 
    161 H161        2.9552  -15.8589  -44.8710 H         1 UNK         0.0600 
    162 H162        4.3010  -16.9876  -44.8343 H         1 UNK         0.0600 
    163 H163        3.6349  -16.3731  -43.3284 H         1 UNK         0.0600 
    164 H164        0.9900  -16.5339  -43.4841 H         1 UNK         0.3000 
    165 H165       -1.6744  -18.6061  -42.3172 H         1 UNK         0.0600 
    166 H166       -1.4509  -17.2816  -40.2356 H         1 UNK         0.0600 
    167 H167       -0.1963  -18.5087  -40.3043 H         1 UNK         0.0600 
    168 H168        0.2008  -16.8324  -40.6633 H         1 UNK         0.0600 
    169 H169       -1.3204  -15.7790  -42.3111 H         1 UNK         0.3000 
    170 H170       -1.9462  -15.0857  -45.6830 H         1 UNK         0.0600 
    171 H171       -4.2968  -15.5988  -44.9958 H         1 UNK         0.0600 
    172 H172       -4.0288  -14.7878  -43.4564 H         1 UNK         0.0600 
    173 H173       -3.9748  -13.8725  -44.9639 H         1 UNK         0.0600 
    174 H174       -2.0064  -13.2192  -43.6686 H         1 UNK         0.3000 
    175 H175       -0.0899  -12.4223  -42.3577 H         1 UNK         0.0600 
    176 H176        2.5069  -12.8335  -43.9379 H         1 UNK         0.0600 
    177 H177        2.2881  -11.7434  -42.5718 H         1 UNK         0.0600 
    178 H178        2.1661  -13.4809  -42.3382 H         1 UNK         0.0600 
    179 H179        0.9147  -11.2574  -44.8580 H         1 UNK         0.3000 
    180 H180       -2.1138   -9.4350  -45.5152 H         1 UNK         0.0600 
    181 H181        0.8261   -8.7648  -44.9527 H         1 UNK         0.0600 
    182 H182       -0.5631   -8.0939  -44.1062 H         1 UNK         0.0600 
    183 H183       -0.3246   -7.7439  -45.8114 H         1 UNK         0.0600 
    184 H184        0.4063  -10.4116  -46.7796 H         1 UNK         0.3000 
    185 H185       -1.3360  -12.2925  -49.2063 H         1 UNK         0.0600 
    186 H186       -1.4390  -10.0382  -50.2769 H         1 UNK         0.0600 
    187 H187        0.1708   -9.6615  -49.6747 H         1 UNK         0.0600 
    188 H188       -0.0553  -10.9507  -50.8579 H         1 UNK         0.0600 
    189 H189        1.4328  -11.5851  -48.7998 H         1 UNK         0.3000 
    190 H190        0.2283  -24.2760  -47.6348 H         1 UNK         0.3000 
    191 H191        0.5990  -26.7852  -49.0855 H         1 UNK         0.0600 
    192 H192       -1.8831  -25.0835  -49.6785 H         1 UNK         0.0600 
    193 H193       -0.5055  -25.1891  -50.7697 H         1 UNK         0.0600 
    194 H194       -1.4404  -26.6237  -50.4065 H         1 UNK         0.0600 
    195 H195       -2.3525  -27.2352  -48.7136 H         1 UNK         0.3000 
    196 H196       -2.2324  -28.2160  -45.9557 H         1 UNK         0.0600 
    197 H197       -2.9744  -29.6670  -47.8551 H         1 UNK         0.0600 
    198 H198       -4.3317  -28.5828  -48.1601 H         1 UNK         0.0600 
    199 H199       -4.2395  -29.4883  -46.6544 H         1 UNK         0.0600 
    200 H200       -2.8038  -25.2361  -46.8438 H         1 UNK         0.3000 
    201 H201       -3.8979  -23.4525  -46.1799 H         1 UNK         0.0600 
    202 H202       -4.8316  -23.3555  -43.8923 H         1 UNK         0.0600 
    203 H203       -3.3245  -24.2571  -43.8963 H         1 UNK         0.0600 
    204 H204       -4.8674  -25.1044  -43.7902 H         1 UNK         0.0600 
    205 H205       -5.4060  -25.6167  -47.7771 H         1 UNK         0.3000 
    206 H206       -8.1841  -25.3814  -47.3846 H         1 UNK         0.0600 
    207 H207       -7.1401  -27.1467  -48.7631 H         1 UNK         0.0600 
    208 H208       -6.5645  -25.9535  -49.9268 H         1 UNK         0.0600 
    209 H209       -8.2894  -26.2432  -49.7372 H         1 UNK         0.0600 
    210 H210       -9.1528  -23.4504  -47.2250 H         1 UNK         0.3000 
    211 H211       -9.8460  -21.3662  -47.5037 H         1 UNK         0.0600 
    212 H212      -10.8246  -22.1927  -49.6101 H         1 UNK         0.0600 
    213 H213      -10.2905  -20.5338  -49.8189 H         1 UNK         0.0600 
    214 H214       -9.3366  -21.8543  -50.4841 H         1 UNK         0.0600 
    215 H215       -7.3166  -21.6378  -46.5799 H         1 UNK         0.3000 
    216 H216       -5.4435  -20.6256  -46.0466 H         1 UNK         0.0600 
    217 H217       -5.1023  -18.2168  -46.3462 H         1 UNK         0.0600 
    218 H218       -6.3681  -18.1310  -47.5615 H         1 UNK         0.0600 
    219 H219       -6.7721  -18.5074  -45.8862 H         1 UNK         0.0600 
    220 H220       -5.6086  -22.2985  -48.2728 H         1 UNK         0.3000 
    221 H221       -4.3922  -23.2815  -49.8305 H         1 UNK         0.0600 
    222 H222       -1.9774  -22.7675  -50.1304 H         1 UNK         0.0600 
    223 H223       -2.1444  -21.3299  -49.1476 H         1 UNK         0.0600 
    224 H224       -2.3783  -22.9264  -48.4286 H         1 UNK         0.0600 
    225 H225       -6.2682  -22.0400  -50.8869 H         1 UNK         0.3000 
    226 H226       -5.8354  -19.7834  -52.5315 H         1 UNK         0.0600 
    227 H227       -8.0737  -20.5084  -51.9160 H         1 UNK         0.0600 
    228 H228       -7.9562  -20.5673  -53.6649 H         1 UNK         0.0600 
    229 H229       -7.8698  -22.0604  -52.7342 H         1 UNK         0.0600 
    230 H230       -5.0004  -23.1283  -53.1025 H         1 UNK         0.3000 
    231 H231       -4.5316  -22.9562  -55.9443 H         1 UNK         0.0600 
    232 H232       -3.3780  -25.1386  -55.5699 H         1 UNK         0.0600 
    233 H233       -4.9496  -25.1161  -54.7868 H         1 UNK         0.0600 
    234 H234       -3.4822  -24.9141  -53.8280 H         1 UNK         0.0600 
    235 H235       -2.6887  -21.9609  -53.1191 H         1 UNK         0.3000 
    236 H236       -0.1400  -21.7379  -54.6242 H         1 UNK         0.0600 
    237 H237       -0.0219  -22.6560  -52.3150 H         1 UNK         0.0600 
    238 H238        0.8154  -21.1176  -52.4366 H         1 UNK         0.0600 
    239 H239       -0.7605  -21.1942  -51.6692 H         1 UNK         0.0600 
    240 H240       -2.2474  -19.6929  -52.5485 H         1 UNK         0.3000 
    241 H241       -2.5281  -17.5712  -54.3470 H         1 UNK         0.0600 
    242 H242       -4.4995  -17.7537  -50.9050 H         1 UNK         0.3800 
    243 H243       -3.5145  -19.0791  -51.4457 H         1 UNK         0.3800 
    244 H244       -1.1362  -15.7627  -53.2438 H         1 UNK         0.0800 
    245 H245       -0.2394  -16.9261  -54.1434 H         1 UNK         0.0800 
    246 H246        1.6285  -18.4489  -53.1773 H         1 UNK         0.0800 
    247 H247        2.0704  -16.7577  -53.2335 H         1 UNK         0.0800 
@<TRIPOS>BOND
     1    1    2 1    
     2    1  127 1    
     3    1  128 1    
     4    1  129 1    
     5    2    3 2    
     6    2    4 am   BACKBONE|DICT|INTERRES
     7    4    5 1    
     8    4  130 1    
     9    5    6 1    
    10    5   65 1    
    11    5  131 1    
    12    6    7 1    
    13    6  132 1    
    14    6  133 1    
    15    7    8 1    
    16    8    9 1    
    17    8  134 1    
    18    8  135 1    
    19    9   10 ar   
    20    9   14 ar   
    21   10   11 ar   
    22   10  136 1    
    23   11   12 ar   
    24   11  126 1    
    25   12   13 ar   
    26   12  137 1    
    27   13   14 ar   
    28   13   15 1    
    29   14  138 1    
    30   15   16 1    
    31   15  139 1    
    32   15  140 1    
    33   16   17 1    
    34   17   18 1    
    35   17  141 1    
    36   17  142 1    
    37   18   19 1    
    38   18   67 1    
    39   18  143 1    
    40   19   20 am   BACKBONE|DICT|INTERRES
    41   19  144 1    
    42   20   21 2    
    43   20   22 1    
    44   22   23 1    
    45   22   24 1    
    46   22  145 1    
    47   23  146 1    
    48   23  147 1    
    49   23  148 1    
    50   24   25 am   BACKBONE|DICT|INTERRES
    51   24  149 1    
    52   25   26 2    
    53   25   27 1    
    54   27   28 1    
    55   27   29 1    
    56   27  150 1    
    57   28  151 1    
    58   28  152 1    
    59   28  153 1    
    60   29   30 am   BACKBONE|DICT|INTERRES
    61   29  154 1    
    62   30   31 2    
    63   30   32 1    
    64   32   33 1    
    65   32   34 1    
    66   32  155 1    
    67   33  156 1    
    68   33  157 1    
    69   33  158 1    
    70   34   35 am   BACKBONE|DICT|INTERRES
    71   34  159 1    
    72   35   36 2    
    73   35   37 1    
    74   37   38 1    
    75   37   39 1    
    76   37  160 1    
    77   38  161 1    
    78   38  162 1    
    79   38  163 1    
    80   39   40 am   BACKBONE|DICT|INTERRES
    81   39  164 1    
    82   40   41 2    
    83   40   42 1    
    84   42   43 1    
    85   42   44 1    
    86   42  165 1    
    87   43  166 1    
    88   43  167 1    
    89   43  168 1    
    90   44   45 am   BACKBONE|DICT|INTERRES
    91   44  169 1    
    92   45   46 2    
    93   45   47 1    
    94   47   48 1    
    95   47   49 1    
    96   47  170 1    
    97   48  171 1    
    98   48  172 1    
    99   48  173 1    
   100   49   50 am   BACKBONE|DICT|INTERRES
   101   49  174 1    
   102   50   51 2    
   103   50   52 1    
   104   52   53 1    
   105   52   54 1    
   106   52  175 1    
   107   53  176 1    
   108   53  177 1    
   109   53  178 1    
   110   54   55 am   BACKBONE|DICT|INTERRES
   111   54  179 1    
   112   55   56 2    
   113   55   57 1    
   114   57   58 1    
   115   57   59 1    
   116   57  180 1    
   117   58  181 1    
   118   58  182 1    
   119   58  183 1    
   120   59   60 am   BACKBONE|DICT|INTERRES
   121   59  184 1    
   122   60   61 2    
   123   60   62 1    
   124   62   63 1    
   125   62   64 1    
   126   62  185 1    
   127   63  186 1    
   128   63  187 1    
   129   63  188 1    
   130   64   65 am   BACKBONE|DICT|INTERRES
   131   64  189 1    
   132   65   66 2    
   133   67   68 2    
   134   67   69 am   BACKBONE|DICT|INTERRES
   135   69   70 1    
   136   69  190 1    
   137   70   71 1    
   138   70   72 1    
   139   70  191 1    
   140   71  192 1    
   141   71  193 1    
   142   71  194 1    
   143   72   73 2    
   144   72   74 am   BACKBONE|DICT|INTERRES
   145   74   75 1    
   146   74  195 1    
   147   75   76 1    
   148   75   77 1    
   149   75  196 1    
   150   76  197 1    
   151   76  198 1    
   152   76  199 1    
   153   77   78 2    
   154   77   79 am   BACKBONE|DICT|INTERRES
   155   79   80 1    
   156   79  200 1    
   157   80   81 1    
   158   80   82 1    
   159   80  201 1    
   160   81  202 1    
   161   81  203 1    
   162   81  204 1    
   163   82   83 2    
   164   82   84 am   BACKBONE|DICT|INTERRES
   165   84   85 1    
   166   84  205 1    
   167   85   86 1    
   168   85   87 1    
   169   85  206 1    
   170   86  207 1    
   171   86  208 1    
   172   86  209 1    
   173   87   88 2    
   174   87   89 am   BACKBONE|DICT|INTERRES
   175   89   90 1    
   176   89  210 1    
   177   90   91 1    
   178   90   92 1    
   179   90  211 1    
   180   91  212 1    
   181   91  213 1    
   182   91  214 1    
   183   92   93 2    
   184   92   94 am   BACKBONE|DICT|INTERRES
   185   94   95 1    
   186   94  215 1    
   187   95   96 1    
   188   95   97 1    
   189   95  216 1    
   190   96  217 1    
   191   96  218 1    
   192   96  219 1    
   193   97   98 2    
   194   97   99 am   BACKBONE|DICT|INTERRES
   195   99  100 1    
   196   99  220 1    
   197  100  101 1    
   198  100  102 1    
   199  100  221 1    
   200  101  222 1    
   201  101  223 1    
   202  101  224 1    
   203  102  103 2    
   204  102  104 am   BACKBONE|DICT|INTERRES
   205  104  105 1    
   206  104  225 1    
   207  105  106 1    
   208  105  107 1    
   209  105  226 1    
   210  106  227 1    
   211  106  228 1    
   212  106  229 1    
   213  107  108 2    
   214  107  109 am   BACKBONE|DICT|INTERRES
   215  109  110 1    
   216  109  230 1    
   217  110  111 1    
   218  110  112 1    
   219  110  231 1    
   220  111  232 1    
   221  111  233 1    
   222  111  234 1    
   223  112  113 2    
   224  112  114 am   BACKBONE|DICT|INTERRES
   225  114  115 1    
   226  114  235 1    
   227  115  116 1    
   228  115  117 1    
   229  115  236 1    
   230  116  237 1    
   231  116  238 1    
   232  116  239 1    
   233  117  118 2    
   234  117  119 am   BACKBONE|DICT|INTERRES
   235  119  120 1    
   236  119  240 1    
   237  120  121 1    
   238  120  124 1    
   239  120  241 1    
   240  121  122 am   BACKBONE|DICT|INTERRES
   241  121  123 2    
   242  122  242 1    
   243  122  243 1    
   244  124  125 1    
   245  124  244 1    
   246  124  245 1    
   247  125  126 1    
   248  126  246 1    
   249  126  247 1    
@<TRIPOS>SUBSTRUCTURE
     1 UNK         1 GROUP             0       ****    0 ROOT    
