@<TRIPOS>MOLECULE
3R540
247   249    1
SMALL
USER_CHARGES


@<TRIPOS>ATOM
      1 CA         -3.7175  -12.1419  -44.6315 C.3       0 UNK        -0.1800 
      2 C          -2.6928  -11.5598  -45.5945 C.2       0 UNK         0.5000 
      3 O          -2.7981  -10.3944  -45.9768 O.2       0 UNK        -0.5000 
      4 N          -1.6900  -12.3606  -45.9738 N.am      1 UNK        -0.5000 
      5 CA         -0.5909  -12.0270  -46.8911 C.3       1 UNK         0.1400 
      6 C6         -0.0118  -13.3288  -47.5051 C.3       23 UNK        -0.0398 
      7 S7          0.9531  -13.0894  -49.0313 S.3       23 UNK        -0.2404 
      8 C8          1.7875  -14.7137  -49.1604 C.3       23 UNK        -0.0205 
      9 C9          0.8954  -15.8853  -49.5796 C.ar      23 UNK        -0.0193 
     10 C10        -0.2518  -15.7029  -50.3622 C.ar      23 UNK        -0.1150 
     11 C11        -1.0251  -16.7943  -50.7652 C.ar      23 UNK        -0.0193 
     12 C12        -0.6340  -18.0835  -50.3990 C.ar      23 UNK        -0.1150 
     13 C13         0.5108  -18.2924  -49.6235 C.ar      23 UNK        -0.0193 
     14 C14         1.2651  -17.1861  -49.2146 C.ar      23 UNK        -0.1150 
     15 C15         0.9549  -19.7070  -49.2532 C.3       23 UNK        -0.0205 
     16 S16        -0.4110  -20.7419  -48.6277 S.3       23 UNK        -0.2404 
     17 C17         0.4354  -22.3221  -48.2852 C.3       23 UNK        -0.0398 
     18 CA         -0.1729  -23.1738  -47.1393 C.3       11 UNK         0.1400 
     19 N           0.0980  -22.6418  -45.7981 N.am      11 UNK        -0.5000 
     20 C          -0.0246  -23.3723  -44.6784 C.2       10 UNK         0.5000 
     21 O          -0.3913  -24.5462  -44.6747 O.2       10 UNK        -0.5000 
     22 CA          0.2713  -22.6882  -43.3333 C.3       10 UNK         0.1400 
     23 CB          1.7824  -22.5212  -43.1179 C.3       10 UNK        -0.1800 
     24 N          -0.4080  -21.4030  -43.1872 N.am      10 UNK        -0.5000 
     25 C          -1.7400  -21.2507  -43.1550 C.2       9 UNK         0.5000 
     26 O          -2.5387  -22.1855  -43.2279 O.2       9 UNK        -0.5000 
     27 CA         -2.2691  -19.8070  -43.0690 C.3       9 UNK         0.1400 
     28 CB         -2.2158  -19.2851  -41.6256 C.3       9 UNK        -0.1800 
     29 N          -1.5391  -18.8949  -43.9490 N.am      9 UNK        -0.5000 
     30 C          -1.5171  -18.9982  -45.2850 C.2       8 UNK         0.5000 
     31 O          -2.1740  -19.8266  -45.9135 O.2       8 UNK        -0.5000 
     32 CA         -0.5604  -18.0573  -46.0361 C.3       8 UNK         0.1400 
     33 CB         -1.1677  -16.6616  -46.2102 C.3       8 UNK        -0.1800 
     34 N           0.7515  -17.9604  -45.3953 N.am      8 UNK        -0.5000 
     35 C           1.6022  -18.9866  -45.2486 C.2       7 UNK         0.5000 
     36 O           1.4039  -20.1140  -45.6983 O.2       7 UNK        -0.5000 
     37 CA          2.8650  -18.7253  -44.4117 C.3       7 UNK         0.1400 
     38 CB          3.9912  -18.1429  -45.2795 C.3       7 UNK        -0.1800 
     39 N           2.5895  -17.8405  -43.2791 N.am      7 UNK        -0.5000 
     40 C           1.8810  -18.2012  -42.1987 C.2       6 UNK         0.5000 
     41 O           1.4340  -19.3347  -42.0254 O.2       6 UNK        -0.5000 
     42 CA          1.5846  -17.1013  -41.1610 C.3       6 UNK         0.1400 
     43 CB          2.7649  -16.9377  -40.1921 C.3       6 UNK        -0.1800 
     44 N           1.2842  -15.8103  -41.7825 N.am      6 UNK        -0.5000 
     45 C           0.1962  -15.5659  -42.5268 C.2       5 UNK         0.5000 
     46 O          -0.7074  -16.3832  -42.6974 O.2       5 UNK        -0.5000 
     47 CA          0.1342  -14.2071  -43.2538 C.3       5 UNK         0.1400 
     48 CB         -0.6311  -13.1731  -42.4174 C.3       5 UNK        -0.1800 
     49 N           1.4492  -13.6720  -43.6232 N.am      5 UNK        -0.5000 
     50 C           2.3192  -14.2903  -44.4376 C.2       4 UNK         0.5000 
     51 O           2.0661  -15.3668  -44.9781 O.2       4 UNK        -0.5000 
     52 CA          3.6908  -13.6288  -44.6766 C.3       4 UNK         0.1400 
     53 CB          4.1450  -13.7660  -46.1402 C.3       4 UNK        -0.1800 
     54 N           3.6883  -12.2135  -44.3110 N.am      4 UNK        -0.5000 
     55 C           4.1371  -11.7064  -43.1550 C.2       3 UNK         0.5000 
     56 O           4.6232  -12.3926  -42.2557 O.2       3 UNK        -0.5000 
     57 CA          4.0138  -10.1807  -42.9554 C.3       3 UNK         0.1400 
     58 CB          5.3742   -9.5004  -43.1722 C.3       3 UNK        -0.1800 
     59 N           3.0258   -9.5493  -43.8338 N.am      3 UNK        -0.5000 
     60 C           1.7004   -9.7213  -43.7459 C.2       2 UNK         0.5000 
     61 O           1.1659  -10.4083  -42.8744 O.2       2 UNK        -0.5000 
     62 CA          0.8203   -9.0523  -44.8253 C.3       2 UNK         0.1400 
     63 CB          1.5984   -8.1494  -45.8090 C.3       2 UNK        -0.1800 
     64 N           0.0292  -10.0389  -45.5679 N.am      2 UNK        -0.5000 
     65 C           0.4771  -11.1209  -46.2215 C.2       1 UNK         0.5000 
     66 O           1.6713  -11.4138  -46.2865 O.2       1 UNK        -0.5000 
     67 C          -1.6662  -23.5093  -47.3484 C.2       11 UNK         0.5000 
     68 O          -1.9723  -24.5036  -48.0114 O.2       11 UNK        -0.5000 
     69 N          -2.5664  -22.7125  -46.7509 N.am      12 UNK        -0.5000 
     70 CA         -4.0073  -22.9634  -46.7219 C.3       12 UNK         0.1400 
     71 CB         -4.7453  -21.7540  -46.1315 C.3       12 UNK        -0.1800 
     72 C          -4.3624  -24.2516  -45.9608 C.2       12 UNK         0.5000 
     73 O          -5.1716  -25.0390  -46.4502 O.2       12 UNK        -0.5000 
     74 N          -3.7285  -24.4633  -44.8005 N.am      13 UNK        -0.5000 
     75 CA         -3.8859  -25.6727  -43.9948 C.3       13 UNK         0.1400 
     76 CB         -3.2679  -25.4451  -42.6065 C.3       13 UNK        -0.1800 
     77 C          -3.2787  -26.9194  -44.6656 C.2       13 UNK         0.5000 
     78 O          -3.8986  -27.9835  -44.6408 O.2       13 UNK        -0.5000 
     79 N          -2.0763  -26.7702  -45.2362 N.am      14 UNK        -0.5000 
     80 CA         -1.2954  -27.8655  -45.8057 C.3       14 UNK         0.1400 
     81 CB          0.1772  -27.4406  -45.9168 C.3       14 UNK        -0.1800 
     82 C          -1.8071  -28.3580  -47.1691 C.2       14 UNK         0.5000 
     83 O          -1.8402  -29.5703  -47.3874 O.2       14 UNK        -0.5000 
     84 N          -2.1473  -27.4307  -48.0752 N.am      15 UNK        -0.5000 
     85 CA         -2.3624  -27.7401  -49.4919 C.3       15 UNK         0.1400 
     86 CB         -1.0075  -27.6876  -50.2274 C.3       15 UNK        -0.1800 
     87 C          -3.4128  -26.8364  -50.1590 C.2       15 UNK         0.5000 
     88 O          -3.3843  -26.6883  -51.3822 O.2       15 UNK        -0.5000 
     89 N          -4.3068  -26.2227  -49.3671 N.am      16 UNK        -0.5000 
     90 CA         -5.3800  -25.3161  -49.8096 C.3       16 UNK         0.1400 
     91 CB         -6.4613  -26.1006  -50.5823 C.3       16 UNK        -0.1800 
     92 C          -4.8658  -24.0862  -50.5933 C.2       16 UNK         0.5000 
     93 O          -5.5688  -23.5726  -51.4643 O.2       16 UNK        -0.5000 
     94 N          -3.6295  -23.6647  -50.2821 N.am      17 UNK        -0.5000 
     95 CA         -2.8475  -22.6080  -50.9311 C.3       17 UNK         0.1400 
     96 CB         -3.5222  -21.2334  -50.7474 C.3       17 UNK        -0.1800 
     97 C          -2.4910  -22.9106  -52.4030 C.2       17 UNK         0.5000 
     98 O          -2.1784  -21.9861  -53.1528 O.2       17 UNK        -0.5000 
     99 N          -2.5497  -24.1938  -52.7956 N.am      18 UNK        -0.5000 
    100 CA        -2.3560  -24.7713  -54.1332 C.3       18 UNK         0.1400 
    101 CB        -0.9673  -24.4341  -54.7091 C.3       18 UNK        -0.1800 
    102 C         -3.4790  -24.4363  -55.1367 C.2       18 UNK         0.5000 
    103 O         -3.8682  -25.3056  -55.9177 O.2       18 UNK        -0.5000 
    104 N         -3.9963  -23.2072  -55.0884 N.am      19 UNK        -0.5000 
    105 CA        -5.1182  -22.6959  -55.8628 C.3       19 UNK         0.1400 
    106 CB        -4.6420  -22.2997  -57.2726 C.3       19 UNK        -0.1800 
    107 C         -5.6903  -21.4810  -55.1212 C.2       19 UNK         0.5000 
    108 O         -4.9896  -20.8803  -54.3038 O.2       19 UNK        -0.5000 
    109 N         -6.9269  -21.0921  -55.4569 N.am      20 UNK        -0.5000 
    110 CA        -7.6057  -19.9178  -54.8925 C.3       20 UNK         0.1400 
    111 CB        -9.0601  -19.8901  -55.3867 C.3       20 UNK        -0.1800 
    112 C         -6.8997  -18.5827  -55.2120 C.2       20 UNK         0.5000 
    113 O         -6.9660  -17.6503  -54.4107 O.2       20 UNK        -0.5000 
    114 N         -6.2179  -18.5305  -56.3642 N.am      21 UNK        -0.5000 
    115 CA        -5.3839  -17.4088  -56.7995 C.3       21 UNK         0.1400 
    116 CB        -5.3923  -17.3706  -58.3368 C.3       21 UNK        -0.1800 
    117 C         -3.9351  -17.4885  -56.2701 C.2       21 UNK         0.5000 
    118 O         -3.1874  -16.5291  -56.4572 O.2       21 UNK        -0.5000 
    119 N         -3.5654  -18.6266  -55.6612 N.am      22 UNK        -0.5000 
    120 CA        -2.2548  -18.9929  -55.0873 C.3       22 UNK         0.1400 
    121 C         -0.9945  -18.8272  -55.9937 C.2       22 UNK         0.5000 
    122 N         -1.1354  -18.7329  -57.3101 N.am      22 UNK        -0.7600 
    123 O          0.1345  -18.8331  -55.5104 O.2       22 UNK        -0.5000 
    124 C124       -2.0646  -18.5155  -53.6192 C.3       23 UNK        -0.0398 
    125 S125       -1.9670  -16.7082  -53.3744 S.3       23 UNK        -0.2404 
    126 C126       -2.2865  -16.5741  -51.5875 C.3       23 UNK        -0.0205 
    127 H127       -3.4963  -13.1799  -44.3812 H         1 UNK         0.0600 
    128 H128       -4.7128  -12.1031  -45.0741 H         1 UNK         0.0600 
    129 H129       -3.7312  -11.5656  -43.7064 H         1 UNK         0.0600 
    130 H130       -1.6714  -13.3010  -45.6108 H         1 UNK         0.3000 
    131 H131       -1.0182  -11.4429  -47.7090 H         1 UNK         0.0600 
    132 H132        0.5920  -13.8651  -46.7733 H         1 UNK         0.0800 
    133 H133       -0.8315  -13.9956  -47.7748 H         1 UNK         0.0800 
    134 H134        2.5922  -14.6254  -49.8909 H         1 UNK         0.0800 
    135 H135        2.2644  -14.9380  -48.2052 H         1 UNK         0.0800 
    136 H136       -0.5480  -14.7110  -50.6709 H         1 UNK         0.1150 
    137 H137       -1.2214  -18.9294  -50.7213 H         1 UNK         0.1150 
    138 H138        2.1558  -17.3389  -48.6211 H         1 UNK         0.1150 
    139 H139        1.3890  -20.1804  -50.1346 H         1 UNK         0.0800 
    140 H140        1.7386  -19.6715  -48.4949 H         1 UNK         0.0800 
    141 H141        1.4841  -22.1206  -48.0624 H         1 UNK         0.0800 
    142 H142        0.4380  -22.9013  -49.2098 H         1 UNK         0.0800 
    143 H143        0.3475  -24.1329  -47.1862 H         1 UNK         0.0600 
    144 H144        0.4235  -21.6781  -45.7411 H         1 UNK         0.3000 
    145 H145       -0.1036  -23.3436  -42.5443 H         1 UNK         0.0600 
    146 H146        1.9969  -22.0899  -42.1401 H         1 UNK         0.0600 
    147 H147        2.2899  -23.4854  -43.1661 H         1 UNK         0.0600 
    148 H148        2.2317  -21.8790  -43.8740 H         1 UNK         0.0600 
    149 H149        0.1819  -20.5853  -43.0786 H         1 UNK         0.3000 
    150 H150       -3.3132  -19.8158  -43.3887 H         1 UNK         0.0600 
    151 H151       -2.7751  -19.9376  -40.9540 H         1 UNK         0.0600 
    152 H152       -2.6525  -18.2889  -41.5512 H         1 UNK         0.0600 
    153 H153       -1.1928  -19.2288  -41.2533 H         1 UNK         0.0600 
    154 H154       -1.0198  -18.1437  -43.5050 H         1 UNK         0.3000 
    155 H155       -0.4056  -18.4662  -47.0304 H         1 UNK         0.0600 
    156 H156       -1.4287  -16.2064  -45.2564 H         1 UNK         0.0600 
    157 H157       -0.4662  -16.0086  -46.7240 H         1 UNK         0.0600 
    158 H158       -2.0753  -16.7070  -46.8132 H         1 UNK         0.0600 
    159 H159        1.0351  -17.0490  -45.0511 H         1 UNK         0.3000 
    160 H160        3.2110  -19.6825  -44.0170 H         1 UNK         0.0600 
    161 H161        3.7000  -17.2082  -45.7571 H         1 UNK         0.0600 
    162 H162        4.2640  -18.8391  -46.0735 H         1 UNK         0.0600 
    163 H163        4.8884  -17.9549  -44.6899 H         1 UNK         0.0600 
    164 H164        2.8577  -16.8736  -43.3880 H         1 UNK         0.3000 
    165 H165        0.7107  -17.4138  -40.5854 H         1 UNK         0.0600 
    166 H166        2.5343  -16.2156  -39.4086 H         1 UNK         0.0600 
    167 H167        3.0005  -17.8834  -39.7020 H         1 UNK         0.0600 
    168 H168        3.6661  -16.6003  -40.7056 H         1 UNK         0.0600 
    169 H169        1.9762  -15.0819  -41.6866 H         1 UNK         0.3000 
    170 H170       -0.4208  -14.3654  -44.1787 H         1 UNK         0.0600 
    171 H171       -1.6081  -13.5548  -42.1180 H         1 UNK         0.0600 
    172 H172       -0.0875  -12.9076  -41.5099 H         1 UNK         0.0600 
    173 H173       -0.8035  -12.2585  -42.9847 H         1 UNK         0.0600 
    174 H174        1.7016  -12.7734  -43.2340 H         1 UNK         0.3000 
    175 H175        4.4092  -14.1712  -44.0592 H         1 UNK         0.0600 
    176 H176        5.1276  -13.3185  -46.2893 H         1 UNK         0.0600 
    177 H177        3.4510  -13.2807  -46.8260 H         1 UNK         0.0600 
    178 H178        4.2209  -14.8130  -46.4353 H         1 UNK         0.0600 
    179 H179        3.2296  -11.5987  -44.9763 H         1 UNK         0.3000 
    180 H180        3.7074  -10.0107  -41.9211 H         1 UNK         0.0600 
    181 H181        5.7271   -9.6247  -44.1968 H         1 UNK         0.0600 
    182 H182        6.1324   -9.9215  -42.5105 H         1 UNK         0.0600 
    183 H183        5.3196   -8.4320  -42.9620 H         1 UNK         0.0600 
    184 H184        3.3882   -8.9880  -44.5908 H         1 UNK         0.3000 
    185 H185        0.1084   -8.4233  -44.2893 H         1 UNK         0.0600 
    186 H186        2.1322   -7.3571  -45.2825 H         1 UNK         0.0600 
    187 H187        2.3238   -8.7104  -46.3995 H         1 UNK         0.0600 
    188 H188        0.9173   -7.6622  -46.5069 H         1 UNK         0.0600 
    189 H189       -0.9773   -9.9009  -45.5566 H         1 UNK         0.3000 
    190 H190       -2.2426  -21.8746  -46.2777 H         1 UNK         0.3000 
    191 H191       -4.3486  -23.0823  -47.7493 H         1 UNK         0.0600 
    192 H192       -4.5829  -20.8626  -46.7377 H         1 UNK         0.0600 
    193 H193       -5.8210  -21.9304  -46.0966 H         1 UNK         0.0600 
    194 H194       -4.4145  -21.5336  -45.1166 H         1 UNK         0.0600 
    195 H195       -3.1026  -23.7502  -44.4400 H         1 UNK         0.3000 
    196 H196       -4.9544  -25.8543  -43.8613 H         1 UNK         0.0600 
    197 H197       -3.3825  -26.3286  -41.9773 H         1 UNK         0.0600 
    198 H198       -3.7513  -24.6141  -42.0927 H         1 UNK         0.0600 
    199 H199       -2.2024  -25.2218  -42.6704 H         1 UNK         0.0600 
    200 H200       -1.6055  -25.8715  -45.1581 H         1 UNK         0.3000 
    201 H201       -1.3425  -28.7089  -45.1133 H         1 UNK         0.0600 
    202 H202        0.5868  -27.1802  -44.9407 H         1 UNK         0.0600 
    203 H203        0.2986  -26.5775  -46.5721 H         1 UNK         0.0600 
    204 H204        0.7892  -28.2483  -46.3204 H         1 UNK         0.0600 
    205 H205       -2.0889  -26.4441  -47.8364 H         1 UNK         0.3000 
    206 H206       -2.7614  -28.7518  -49.5886 H         1 UNK         0.0600 
    207 H207       -0.2871  -28.3743  -49.7826 H         1 UNK         0.0600 
    208 H208       -1.1107  -27.9707  -51.2757 H         1 UNK         0.0600 
    209 H209       -0.5779  -26.6855  -50.1961 H         1 UNK         0.0600 
    210 H210       -4.2535  -26.3804  -48.3694 H         1 UNK         0.3000 
    211 H211       -5.8520  -24.9200  -48.9116 H         1 UNK         0.0600 
    212 H212       -6.0896  -26.4691  -51.5389 H         1 UNK         0.0600 
    213 H213       -7.3286  -25.4728  -50.7893 H         1 UNK         0.0600 
    214 H214       -6.8136  -26.9565  -50.0066 H         1 UNK         0.0600 
    215 H215       -3.1373  -24.1653  -49.5475 H         1 UNK         0.3000 
    216 H216       -1.8949  -22.5798  -50.4037 H         1 UNK         0.0600 
    217 H217       -2.8755  -20.4325  -51.1012 H         1 UNK         0.0600 
    218 H218       -3.7341  -21.0357  -49.6964 H         1 UNK         0.0600 
    219 H219       -4.4571  -21.1606  -51.3036 H         1 UNK         0.0600 
    220 H220       -2.8570  -24.8733  -52.1067 H         1 UNK         0.3000 
    221 H221       -2.3899  -25.8516  -53.9834 H         1 UNK         0.0600 
    222 H222       -0.8657  -23.3740  -54.9423 H         1 UNK         0.0600 
    223 H223       -0.1746  -24.7034  -54.0112 H         1 UNK         0.0600 
    224 H224       -0.7890  -24.9855  -55.6330 H         1 UNK         0.0600 
    225 H225       -3.6253  -22.5505  -54.4051 H         1 UNK         0.3000 
    226 H226       -5.8928  -23.4626  -55.9288 H         1 UNK         0.0600 
    227 H227       -4.2376  -23.1575  -57.8101 H         1 UNK         0.0600 
    228 H228       -5.4638  -21.9047  -57.8707 H         1 UNK         0.0600 
    229 H229       -3.8648  -21.5350  -57.2331 H         1 UNK         0.0600 
    230 H230       -7.4436  -21.6254  -56.1418 H         1 UNK         0.3000 
    231 H231       -7.6161  -20.0293  -53.8061 H         1 UNK         0.0600 
    232 H232       -9.1150  -19.8069  -56.4729 H         1 UNK         0.0600 
    233 H233       -9.5998  -19.0411  -54.9648 H         1 UNK         0.0600 
    234 H234       -9.5952  -20.7925  -55.0904 H         1 UNK         0.0600 
    235 H235       -6.2369  -19.3400  -56.9667 H         1 UNK         0.3000 
    236 H236       -5.8141  -16.4739  -56.4343 H         1 UNK         0.0600 
    237 H237       -6.4063  -17.2634  -58.7226 H         1 UNK         0.0600 
    238 H238       -4.8140  -16.5253  -58.7121 H         1 UNK         0.0600 
    239 H239       -4.9640  -18.2777  -58.7651 H         1 UNK         0.0600 
    240 H240       -4.2822  -19.3241  -55.5083 H         1 UNK         0.3000 
    241 H241       -2.3275  -20.0781  -55.0147 H         1 UNK         0.0600 
    242 H242       -0.3167  -18.6405  -57.8905 H         1 UNK         0.3800 
    243 H243       -2.0515  -18.7106  -57.7270 H         1 UNK         0.3800 
    244 H244       -2.8975  -18.8962  -53.0269 H         1 UNK         0.0800 
    245 H245       -1.1718  -18.9719  -53.1893 H         1 UNK         0.0800 
    246 H246       -3.0630  -17.2793  -51.2874 H         1 UNK         0.0800 
    247 H247       -2.6901  -15.5814  -51.3824 H         1 UNK         0.0800 
@<TRIPOS>BOND
     1    1    2 1    
     2    1  127 1    
     3    1  128 1    
     4    1  129 1    
     5    2    3 2    
     6    2    4 am   BACKBONE|DICT|INTERRES
     7    4    5 1    
     8    4  130 1    
     9    5    6 1    
    10    5   65 1    
    11    5  131 1    
    12    6    7 1    
    13    6  132 1    
    14    6  133 1    
    15    7    8 1    
    16    8    9 1    
    17    8  134 1    
    18    8  135 1    
    19    9   10 ar   
    20    9   14 ar   
    21   10   11 ar   
    22   10  136 1    
    23   11   12 ar   
    24   11  126 1    
    25   12   13 ar   
    26   12  137 1    
    27   13   14 ar   
    28   13   15 1    
    29   14  138 1    
    30   15   16 1    
    31   15  139 1    
    32   15  140 1    
    33   16   17 1    
    34   17   18 1    
    35   17  141 1    
    36   17  142 1    
    37   18   19 1    
    38   18   67 1    
    39   18  143 1    
    40   19   20 am   BACKBONE|DICT|INTERRES
    41   19  144 1    
    42   20   21 2    
    43   20   22 1    
    44   22   23 1    
    45   22   24 1    
    46   22  145 1    
    47   23  146 1    
    48   23  147 1    
    49   23  148 1    
    50   24   25 am   BACKBONE|DICT|INTERRES
    51   24  149 1    
    52   25   26 2    
    53   25   27 1    
    54   27   28 1    
    55   27   29 1    
    56   27  150 1    
    57   28  151 1    
    58   28  152 1    
    59   28  153 1    
    60   29   30 am   BACKBONE|DICT|INTERRES
    61   29  154 1    
    62   30   31 2    
    63   30   32 1    
    64   32   33 1    
    65   32   34 1    
    66   32  155 1    
    67   33  156 1    
    68   33  157 1    
    69   33  158 1    
    70   34   35 am   BACKBONE|DICT|INTERRES
    71   34  159 1    
    72   35   36 2    
    73   35   37 1    
    74   37   38 1    
    75   37   39 1    
    76   37  160 1    
    77   38  161 1    
    78   38  162 1    
    79   38  163 1    
    80   39   40 am   BACKBONE|DICT|INTERRES
    81   39  164 1    
    82   40   41 2    
    83   40   42 1    
    84   42   43 1    
    85   42   44 1    
    86   42  165 1    
    87   43  166 1    
    88   43  167 1    
    89   43  168 1    
    90   44   45 am   BACKBONE|DICT|INTERRES
    91   44  169 1    
    92   45   46 2    
    93   45   47 1    
    94   47   48 1    
    95   47   49 1    
    96   47  170 1    
    97   48  171 1    
    98   48  172 1    
    99   48  173 1    
   100   49   50 am   BACKBONE|DICT|INTERRES
   101   49  174 1    
   102   50   51 2    
   103   50   52 1    
   104   52   53 1    
   105   52   54 1    
   106   52  175 1    
   107   53  176 1    
   108   53  177 1    
   109   53  178 1    
   110   54   55 am   BACKBONE|DICT|INTERRES
   111   54  179 1    
   112   55   56 2    
   113   55   57 1    
   114   57   58 1    
   115   57   59 1    
   116   57  180 1    
   117   58  181 1    
   118   58  182 1    
   119   58  183 1    
   120   59   60 am   BACKBONE|DICT|INTERRES
   121   59  184 1    
   122   60   61 2    
   123   60   62 1    
   124   62   63 1    
   125   62   64 1    
   126   62  185 1    
   127   63  186 1    
   128   63  187 1    
   129   63  188 1    
   130   64   65 am   BACKBONE|DICT|INTERRES
   131   64  189 1    
   132   65   66 2    
   133   67   68 2    
   134   67   69 am   BACKBONE|DICT|INTERRES
   135   69   70 1    
   136   69  190 1    
   137   70   71 1    
   138   70   72 1    
   139   70  191 1    
   140   71  192 1    
   141   71  193 1    
   142   71  194 1    
   143   72   73 2    
   144   72   74 am   BACKBONE|DICT|INTERRES
   145   74   75 1    
   146   74  195 1    
   147   75   76 1    
   148   75   77 1    
   149   75  196 1    
   150   76  197 1    
   151   76  198 1    
   152   76  199 1    
   153   77   78 2    
   154   77   79 am   BACKBONE|DICT|INTERRES
   155   79   80 1    
   156   79  200 1    
   157   80   81 1    
   158   80   82 1    
   159   80  201 1    
   160   81  202 1    
   161   81  203 1    
   162   81  204 1    
   163   82   83 2    
   164   82   84 am   BACKBONE|DICT|INTERRES
   165   84   85 1    
   166   84  205 1    
   167   85   86 1    
   168   85   87 1    
   169   85  206 1    
   170   86  207 1    
   171   86  208 1    
   172   86  209 1    
   173   87   88 2    
   174   87   89 am   BACKBONE|DICT|INTERRES
   175   89   90 1    
   176   89  210 1    
   177   90   91 1    
   178   90   92 1    
   179   90  211 1    
   180   91  212 1    
   181   91  213 1    
   182   91  214 1    
   183   92   93 2    
   184   92   94 am   BACKBONE|DICT|INTERRES
   185   94   95 1    
   186   94  215 1    
   187   95   96 1    
   188   95   97 1    
   189   95  216 1    
   190   96  217 1    
   191   96  218 1    
   192   96  219 1    
   193   97   98 2    
   194   97   99 am   BACKBONE|DICT|INTERRES
   195   99  100 1    
   196   99  220 1    
   197  100  101 1    
   198  100  102 1    
   199  100  221 1    
   200  101  222 1    
   201  101  223 1    
   202  101  224 1    
   203  102  103 2    
   204  102  104 am   BACKBONE|DICT|INTERRES
   205  104  105 1    
   206  104  225 1    
   207  105  106 1    
   208  105  107 1    
   209  105  226 1    
   210  106  227 1    
   211  106  228 1    
   212  106  229 1    
   213  107  108 2    
   214  107  109 am   BACKBONE|DICT|INTERRES
   215  109  110 1    
   216  109  230 1    
   217  110  111 1    
   218  110  112 1    
   219  110  231 1    
   220  111  232 1    
   221  111  233 1    
   222  111  234 1    
   223  112  113 2    
   224  112  114 am   BACKBONE|DICT|INTERRES
   225  114  115 1    
   226  114  235 1    
   227  115  116 1    
   228  115  117 1    
   229  115  236 1    
   230  116  237 1    
   231  116  238 1    
   232  116  239 1    
   233  117  118 2    
   234  117  119 am   BACKBONE|DICT|INTERRES
   235  119  120 1    
   236  119  240 1    
   237  120  121 1    
   238  120  124 1    
   239  120  241 1    
   240  121  122 am   BACKBONE|DICT|INTERRES
   241  121  123 2    
   242  122  242 1    
   243  122  243 1    
   244  124  125 1    
   245  124  244 1    
   246  124  245 1    
   247  125  126 1    
   248  126  246 1    
   249  126  247 1    
@<TRIPOS>SUBSTRUCTURE
     1 UNK         1 GROUP             0       ****    0 ROOT    
