@<TRIPOS>MOLECULE
3R540
247   249    1
SMALL
USER_CHARGES


@<TRIPOS>ATOM
      1 CA          5.9441  -13.0748  -50.5948 C.3       0 UNK        -0.1800 
      2 C           4.4899  -13.2050  -51.0466 C.2       0 UNK         0.5000 
      3 O           3.8792  -12.1970  -51.3970 O.2       0 UNK        -0.5000 
      4 N           3.8951  -14.4060  -51.0781 N.am      1 UNK        -0.5000 
      5 CA          4.4406  -15.6995  -50.6429 C.3       1 UNK         0.1400 
      6 C6          3.4972  -16.8707  -51.0270 C.3       23 UNK        -0.0398 
      7 S7          3.0898  -16.9122  -52.8076 S.3       23 UNK        -0.2404 
      8 C8          1.6003  -17.9675  -52.8431 C.3       23 UNK        -0.0205 
      9 C9          0.4443  -17.3822  -52.0430 C.ar      23 UNK        -0.0193 
     10 C10        -0.1630  -16.1885  -52.4465 C.ar      23 UNK        -0.1150 
     11 C11        -1.1972  -15.6275  -51.6912 C.ar      23 UNK        -0.0193 
     12 C12        -1.6373  -16.2808  -50.5378 C.ar      23 UNK        -0.1150 
     13 C13        -1.0399  -17.4746  -50.1254 C.ar      23 UNK        -0.0193 
     14 C14        -0.0042  -18.0248  -50.8847 C.ar      23 UNK        -0.1150 
     15 C15        -1.4609  -18.1284  -48.8223 C.3       23 UNK        -0.0205 
     16 S16        -2.5981  -19.5215  -49.0775 S.3       23 UNK        -0.2404 
     17 C17        -2.8401  -19.9960  -47.3361 C.3       23 UNK        -0.0398 
     18 CA         -1.8753  -21.1237  -46.8891 C.3       11 UNK         0.1400 
     19 N          -1.4028  -20.9322  -45.5141 N.am      11 UNK        -0.5000 
     20 C          -0.4806  -21.6873  -44.9004 C.2       10 UNK         0.5000 
     21 O           0.1539  -22.5786  -45.4590 O.2       10 UNK        -0.5000 
     22 CA         -0.2770  -21.4527  -43.3953 C.3       10 UNK         0.1400 
     23 CB          0.7625  -20.3529  -43.1474 C.3       10 UNK        -0.1800 
     24 N          -1.5377  -21.1172  -42.7324 N.am      10 UNK        -0.5000 
     25 C          -2.5237  -22.0005  -42.5157 C.2       9 UNK         0.5000 
     26 O          -2.4322  -23.1987  -42.7824 O.2       9 UNK        -0.5000 
     27 CA         -3.8474  -21.4453  -41.9553 C.3       9 UNK         0.1400 
     28 CB         -3.7909  -21.3601  -40.4230 C.3       9 UNK        -0.1800 
     29 N          -4.1848  -20.1285  -42.5002 N.am      9 UNK        -0.5000 
     30 C          -4.4894  -19.8882  -43.7841 C.2       8 UNK         0.5000 
     31 O          -4.5843  -20.7706  -44.6364 O.2       8 UNK        -0.5000 
     32 CA         -4.6484  -18.4094  -44.1984 C.3       8 UNK         0.1400 
     33 CB         -6.1128  -17.9661  -44.0733 C.3       8 UNK        -0.1800 
     34 N          -3.7928  -17.4969  -43.4299 N.am      8 UNK        -0.5000 
     35 C          -2.4538  -17.5528  -43.4036 C.2       7 UNK         0.5000 
     36 O          -1.7996  -18.3548  -44.0716 O.2       7 UNK        -0.5000 
     37 CA         -1.7538  -16.6440  -42.3833 C.3       7 UNK         0.1400 
     38 CB         -1.9755  -17.2209  -40.9661 C.3       7 UNK        -0.1800 
     39 N          -0.3208  -16.5450  -42.6734 N.am      7 UNK        -0.5000 
     40 C           0.5323  -15.7305  -42.0342 C.2       6 UNK         0.5000 
     41 O           0.1755  -14.8977  -41.1991 O.2       6 UNK        -0.5000 
     42 CA          2.0352  -15.8696  -42.3454 C.3       6 UNK         0.1400 
     43 CB          2.4990  -17.3316  -42.4505 C.3       6 UNK        -0.1800 
     44 N           2.4038  -15.1506  -43.5588 N.am      6 UNK        -0.5000 
     45 C           2.5666  -13.8240  -43.6536 C.2       5 UNK         0.5000 
     46 O           2.4866  -13.0509  -42.6983 O.2       5 UNK        -0.5000 
     47 CA          2.8732  -13.2596  -45.0553 C.3       5 UNK         0.1400 
     48 CB          4.3884  -13.1167  -45.2658 C.3       5 UNK        -0.1800 
     49 N           2.3226  -14.0785  -46.1337 N.am      5 UNK        -0.5000 
     50 C           1.0165  -14.2481  -46.3809 C.2       4 UNK         0.5000 
     51 O           0.1152  -13.6755  -45.7682 O.2       4 UNK        -0.5000 
     52 CA          0.6711  -15.2545  -47.4891 C.3       4 UNK         0.1400 
     53 CB          0.8102  -14.5867  -48.8680 C.3       4 UNK        -0.1800 
     54 N           1.5239  -16.4455  -47.4232 N.am      4 UNK        -0.5000 
     55 C           1.4713  -17.3706  -46.4524 C.2       3 UNK         0.5000 
     56 O           0.6797  -17.3286  -45.5136 O.2       3 UNK        -0.5000 
     57 CA          2.4945  -18.5211  -46.5233 C.3       3 UNK         0.1400 
     58 CB          1.9534  -19.6788  -47.3738 C.3       3 UNK        -0.1800 
     59 N           3.7862  -18.0970  -47.0612 N.am      3 UNK        -0.5000 
     60 C           4.6400  -17.2786  -46.4301 C.2       2 UNK         0.5000 
     61 O           4.4561  -16.8413  -45.2949 O.2       2 UNK        -0.5000 
     62 CA          5.8742  -16.8258  -47.2367 C.3       2 UNK         0.1400 
     63 CB          7.0187  -17.8396  -47.0913 C.3       2 UNK        -0.1800 
     64 N           5.5837  -16.6162  -48.6618 N.am      2 UNK        -0.5000 
     65 C           4.6965  -15.7222  -49.1195 C.2       1 UNK         0.5000 
     66 O           4.0538  -14.9769  -48.3767 O.2       1 UNK        -0.5000 
     67 C          -2.5012  -22.5178  -47.0906 C.2       11 UNK         0.5000 
     68 O          -2.1706  -23.2024  -48.0576 O.2       11 UNK        -0.5000 
     69 N          -3.3558  -22.9356  -46.1482 N.am      12 UNK        -0.5000 
     70 CA         -3.9665  -24.2640  -46.1197 C.3       12 UNK         0.1400 
     71 CB         -5.0502  -24.3059  -45.0328 C.3       12 UNK        -0.1800 
     72 C          -2.9470  -25.4027  -45.9318 C.2       12 UNK         0.5000 
     73 O          -3.1211  -26.4688  -46.5215 O.2       12 UNK        -0.5000 
     74 N          -1.9054  -25.1575  -45.1281 N.am      13 UNK        -0.5000 
     75 CA         -0.8431  -26.1171  -44.8427 C.3       13 UNK         0.1400 
     76 CB         -0.1533  -25.7346  -43.5229 C.3       13 UNK        -0.1800 
     77 C           0.1797  -26.2345  -45.9878 C.2       13 UNK         0.5000 
     78 O           0.3916  -27.3327  -46.5030 O.2       13 UNK        -0.5000 
     79 N           0.8243  -25.1144  -46.3376 N.am      14 UNK        -0.5000 
     80 CA          1.9998  -25.0795  -47.2078 C.3       14 UNK         0.1400 
     81 CB          2.9063  -23.9132  -46.7829 C.3       14 UNK        -0.1800 
     82 C           1.6452  -24.9604  -48.6965 C.2       14 UNK         0.5000 
     83 O           2.2964  -25.6022  -49.5215 O.2       14 UNK        -0.5000 
     84 N           0.6319  -24.1456  -49.0178 N.am      15 UNK        -0.5000 
     85 CA          0.1865  -23.8883  -50.3914 C.3       15 UNK         0.1400 
     86 CB         -0.0954  -22.3830  -50.5611 C.3       15 UNK        -0.1800 
     87 C          -1.0374  -24.7414  -50.7768 C.2       15 UNK         0.5000 
     88 O          -1.5750  -24.5597  -51.8691 O.2       15 UNK        -0.5000 
     89 N          -1.4821  -25.6298  -49.8726 N.am      16 UNK        -0.5000 
     90 CA         -2.6371  -26.5308  -49.9952 C.3       16 UNK         0.1400 
     91 CB         -2.3594  -27.6090  -51.0633 C.3       16 UNK        -0.1800 
     92 C          -3.9769  -25.7967  -50.2357 C.2       16 UNK         0.5000 
     93 O          -4.9000  -26.3792  -50.8066 O.2       16 UNK        -0.5000 
     94 N          -4.0404  -24.5191  -49.8284 N.am      17 UNK        -0.5000 
     95 CA         -5.1035  -23.5420  -50.0829 C.3       17 UNK         0.1400 
     96 CB         -6.4225  -23.9531  -49.3930 C.3       17 UNK        -0.1800 
     97 C          -5.3148  -23.2154  -51.5788 C.2       17 UNK         0.5000 
     98 O          -6.3519  -22.6478  -51.9224 O.2       17 UNK        -0.5000 
     99 N          -4.3433  -23.5385  -52.4488 N.am      18 UNK        -0.5000 
    100 CA        -4.4453  -23.3759  -53.9045 C.3       18 UNK         0.1400 
    101 CB        -3.2572  -24.0728  -54.5833 C.3       18 UNK        -0.1800 
    102 C         -4.5401  -21.9071  -54.3579 C.2       18 UNK         0.5000 
    103 O         -5.1792  -21.6226  -55.3714 O.2       18 UNK        -0.5000 
    104 N         -3.9295  -21.0019  -53.5825 N.am      19 UNK        -0.5000 
    105 CA        -4.0169  -19.5538  -53.7706 C.3       19 UNK         0.1400 
    106 CB        -2.7837  -18.8997  -53.1278 C.3       19 UNK        -0.1800 
    107 C         -5.3085  -18.9480  -53.1848 C.2       19 UNK         0.5000 
    108 O         -5.5867  -17.7785  -53.4469 O.2       19 UNK        -0.5000 
    109 N         -6.0503  -19.7202  -52.3710 N.am      20 UNK        -0.5000 
    110 CA        -7.2651  -19.3368  -51.6352 C.3       20 UNK         0.1400 
    111 CB        -8.4423  -19.1430  -52.6124 C.3       20 UNK        -0.1800 
    112 C         -7.0544  -18.1192  -50.7065 C.2       20 UNK         0.5000 
    113 O         -7.9565  -17.2934  -50.5475 O.2       20 UNK        -0.5000 
    114 N         -5.8282  -17.9947  -50.1716 N.am      21 UNK        -0.5000 
    115 CA        -5.2923  -16.8520  -49.4193 C.3       21 UNK         0.1400 
    116 CB        -5.9706  -16.7470  -48.0381 C.3       21 UNK        -0.1800 
    117 C         -5.3161  -15.5156  -50.2021 C.2       21 UNK         0.5000 
    118 O         -5.2126  -14.4513  -49.5910 O.2       21 UNK        -0.5000 
    119 N         -5.4617  -15.5945  -51.5329 N.am      22 UNK        -0.5000 
    120 CA        -5.7194  -14.4866  -52.4649 C.3       22 UNK         0.1400 
    121 C         -7.0535  -13.7230  -52.1936 C.2       22 UNK         0.5000 
    122 N         -8.0415  -14.3364  -51.5491 N.am      22 UNK        -0.7600 
    123 O         -7.2151  -12.5733  -52.5945 O.2       22 UNK        -0.5000 
    124 C124       -4.4914  -13.5587  -52.6682 C.3       23 UNK        -0.0398 
    125 S125       -3.0669  -14.4681  -53.3700 S.3       23 UNK        -0.2404 
    126 C126       -1.7963  -14.2860  -52.0812 C.3       23 UNK        -0.0205 
    127 H127        6.5645  -13.8838  -50.9782 H         1 UNK         0.0600 
    128 H128        6.0051  -13.0680  -49.5065 H         1 UNK         0.0600 
    129 H129        6.3699  -12.1392  -50.9579 H         1 UNK         0.0600 
    130 H130        2.9390  -14.4472  -51.3980 H         1 UNK         0.3000 
    131 H131        5.3933  -15.8528  -51.1525 H         1 UNK         0.0600 
    132 H132        3.9480  -17.8309  -50.7705 H         1 UNK         0.0800 
    133 H133        2.5709  -16.8058  -50.4561 H         1 UNK         0.0800 
    134 H134        1.2832  -18.0953  -53.8789 H         1 UNK         0.0800 
    135 H135        1.8607  -18.9625  -52.4787 H         1 UNK         0.0800 
    136 H136        0.1881  -15.6826  -53.3349 H         1 UNK         0.1150 
    137 H137       -2.4127  -15.8307  -49.9370 H         1 UNK         0.1150 
    138 H138        0.4635  -18.9437  -50.5608 H         1 UNK         0.1150 
    139 H139       -0.5776  -18.4855  -48.2944 H         1 UNK         0.0800 
    140 H140       -1.9282  -17.3908  -48.1681 H         1 UNK         0.0800 
    141 H141       -2.6902  -19.1077  -46.7216 H         1 UNK         0.0800 
    142 H142       -3.8878  -20.2665  -47.1914 H         1 UNK         0.0800 
    143 H143       -0.9837  -21.0899  -47.5176 H         1 UNK         0.0600 
    144 H144       -1.8145  -20.1695  -44.9875 H         1 UNK         0.3000 
    145 H145        0.1046  -22.3776  -42.9583 H         1 UNK         0.0600 
    146 H146        0.8987  -20.1683  -42.0819 H         1 UNK         0.0600 
    147 H147        1.7327  -20.6370  -43.5568 H         1 UNK         0.0600 
    148 H148        0.4750  -19.4152  -43.6190 H         1 UNK         0.0600 
    149 H149       -1.7054  -20.1388  -42.5499 H         1 UNK         0.3000 
    150 H150       -4.6428  -22.1409  -42.2315 H         1 UNK         0.0600 
    151 H151       -3.5574  -22.3324  -39.9868 H         1 UNK         0.0600 
    152 H152       -4.7485  -21.0419  -40.0103 H         1 UNK         0.0600 
    153 H153       -3.0287  -20.6568  -40.0850 H         1 UNK         0.0600 
    154 H154       -4.1402  -19.3474  -41.8634 H         1 UNK         0.3000 
    155 H155       -4.3627  -18.3278  -45.2481 H         1 UNK         0.0600 
    156 H156       -6.2508  -16.9515  -44.4477 H         1 UNK         0.0600 
    157 H157       -6.4561  -17.9935  -43.0384 H         1 UNK         0.0600 
    158 H158       -6.7680  -18.6163  -44.6547 H         1 UNK         0.0600 
    159 H159       -4.2671  -16.8218  -42.8472 H         1 UNK         0.3000 
    160 H160       -2.1952  -15.6479  -42.4531 H         1 UNK         0.0600 
    161 H161       -1.4932  -18.1925  -40.8506 H         1 UNK         0.0600 
    162 H162       -3.0356  -17.3529  -40.7476 H         1 UNK         0.0600 
    163 H163       -1.5822  -16.5627  -40.1921 H         1 UNK         0.0600 
    164 H164        0.0025  -17.1377  -43.4333 H         1 UNK         0.3000 
    165 H165        2.5755  -15.4267  -41.5058 H         1 UNK         0.0600 
    166 H166        2.1375  -17.8092  -43.3581 H         1 UNK         0.0600 
    167 H167        3.5874  -17.3928  -42.4642 H         1 UNK         0.0600 
    168 H168        2.1511  -17.9188  -41.5998 H         1 UNK         0.0600 
    169 H169        2.5132  -15.7049  -44.3966 H         1 UNK         0.3000 
    170 H170        2.4219  -12.2675  -45.1202 H         1 UNK         0.0600 
    171 H171        4.8303  -12.4750  -44.5026 H         1 UNK         0.0600 
    172 H172        4.8935  -14.0819  -45.2167 H         1 UNK         0.0600 
    173 H173        4.6120  -12.6720  -46.2358 H         1 UNK         0.0600 
    174 H174        2.9901  -14.5435  -46.7414 H         1 UNK         0.3000 
    175 H175       -0.3649  -15.5738  -47.3597 H         1 UNK         0.0600 
    176 H176       -0.0239  -13.9090  -49.0523 H         1 UNK         0.0600 
    177 H177        1.7243  -13.9995  -48.9546 H         1 UNK         0.0600 
    178 H178        0.8214  -15.3192  -49.6715 H         1 UNK         0.0600 
    179 H179        2.2592  -16.5062  -48.1092 H         1 UNK         0.3000 
    180 H180        2.6518  -18.8913  -45.5082 H         1 UNK         0.0600 
    181 H181        1.7851  -19.3804  -48.4090 H         1 UNK         0.0600 
    182 H182        1.0068  -20.0379  -46.9740 H         1 UNK         0.0600 
    183 H183        2.6430  -20.5227  -47.3754 H         1 UNK         0.0600 
    184 H184        4.0293  -18.4278  -47.9825 H         1 UNK         0.3000 
    185 H185        6.2069  -15.8728  -46.8196 H         1 UNK         0.0600 
    186 H186        7.9235  -17.4866  -47.5864 H         1 UNK         0.0600 
    187 H187        7.2663  -18.0000  -46.0410 H         1 UNK         0.0600 
    188 H188        6.7573  -18.8085  -47.5186 H         1 UNK         0.0600 
    189 H189        6.0896  -17.1986  -49.3141 H         1 UNK         0.3000 
    190 H190       -3.6286  -22.2883  -45.4145 H         1 UNK         0.3000 
    191 H191       -4.4491  -24.4266  -47.0817 H         1 UNK         0.0600 
    192 H192       -5.5549  -25.2727  -45.0224 H         1 UNK         0.0600 
    193 H193       -5.8100  -23.5433  -45.2050 H         1 UNK         0.0600 
    194 H194       -4.6322  -24.1430  -44.0394 H         1 UNK         0.0600 
    195 H195       -1.8638  -24.2689  -44.6450 H         1 UNK         0.3000 
    196 H196       -1.2959  -27.1010  -44.7012 H         1 UNK         0.0600 
    197 H197        0.6350  -26.4460  -43.2736 H         1 UNK         0.0600 
    198 H198       -0.8631  -25.7321  -42.6954 H         1 UNK         0.0600 
    199 H199        0.3013  -24.7451  -43.5727 H         1 UNK         0.0600 
    200 H200        0.5591  -24.2291  -45.9065 H         1 UNK         0.3000 
    201 H201        2.5682  -26.0028  -47.0744 H         1 UNK         0.0600 
    202 H202        3.2025  -24.0044  -45.7378 H         1 UNK         0.0600 
    203 H203        2.4097  -22.9504  -46.9063 H         1 UNK         0.0600 
    204 H204        3.8190  -23.8898  -47.3796 H         1 UNK         0.0600 
    205 H205        0.1079  -23.6889  -48.2824 H         1 UNK         0.3000 
    206 H206        0.9798  -24.1476  -51.0951 H         1 UNK         0.0600 
    207 H207        0.7684  -21.7843  -50.2721 H         1 UNK         0.0600 
    208 H208       -0.3199  -22.1430  -51.6010 H         1 UNK         0.0600 
    209 H209       -0.9442  -22.0516  -49.9657 H         1 UNK         0.0600 
    210 H210       -0.9935  -25.6655  -48.9896 H         1 UNK         0.3000 
    211 H211       -2.7347  -27.0394  -49.0366 H         1 UNK         0.0600 
    212 H212       -2.3199  -27.1837  -52.0667 H         1 UNK         0.0600 
    213 H213       -3.1381  -28.3725  -51.0624 H         1 UNK         0.0600 
    214 H214       -1.4124  -28.1149  -50.8756 H         1 UNK         0.0600 
    215 H215       -3.2250  -24.1453  -49.3482 H         1 UNK         0.3000 
    216 H216       -4.7672  -22.6130  -49.6201 H         1 UNK         0.0600 
    217 H217       -6.2803  -24.1633  -48.3349 H         1 UNK         0.0600 
    218 H218       -7.1631  -23.1553  -49.4586 H         1 UNK         0.0600 
    219 H219       -6.8612  -24.8388  -49.8530 H         1 UNK         0.0600 
    220 H220       -3.4948  -23.9788  -52.1058 H         1 UNK         0.3000 
    221 H221       -5.3599  -23.8772  -54.2277 H         1 UNK         0.0600 
    222 H222       -2.3099  -23.6034  -54.3156 H         1 UNK         0.0600 
    223 H223       -3.2019  -25.1245  -54.3010 H         1 UNK         0.0600 
    224 H224       -3.3483  -24.0311  -55.6694 H         1 UNK         0.0600 
    225 H225       -3.4137  -21.3292  -52.7788 H         1 UNK         0.3000 
    226 H226       -4.0033  -19.3280  -54.8389 H         1 UNK         0.0600 
    227 H227       -1.8597  -19.2696  -53.5724 H         1 UNK         0.0600 
    228 H228       -2.7953  -17.8172  -53.2639 H         1 UNK         0.0600 
    229 H229       -2.7384  -19.0914  -52.0561 H         1 UNK         0.0600 
    230 H230       -5.7843  -20.6921  -52.2649 H         1 UNK         0.3000 
    231 H231       -7.5096  -20.1770  -50.9839 H         1 UNK         0.0600 
    232 H232       -9.3779  -18.9870  -52.0742 H         1 UNK         0.0600 
    233 H233       -8.5758  -20.0209  -53.2446 H         1 UNK         0.0600 
    234 H234       -8.2905  -18.2809  -53.2628 H         1 UNK         0.0600 
    235 H235       -5.1579  -18.7210  -50.3807 H         1 UNK         0.3000 
    236 H236       -4.2416  -17.0744  -49.2446 H         1 UNK         0.0600 
    237 H237       -5.9195  -17.6945  -47.5015 H         1 UNK         0.0600 
    238 H238       -5.4803  -15.9980  -47.4152 H         1 UNK         0.0600 
    239 H239       -7.0203  -16.4649  -48.1235 H         1 UNK         0.0600 
    240 H240       -5.5133  -16.5113  -51.9650 H         1 UNK         0.3000 
    241 H241       -5.9009  -14.9705  -53.4251 H         1 UNK         0.0600 
    242 H242       -7.9387  -15.2909  -51.2232 H         1 UNK         0.3800 
    243 H243       -8.9052  -13.8442  -51.3846 H         1 UNK         0.3800 
    244 H244       -4.7294  -12.7609  -53.3732 H         1 UNK         0.0800 
    245 H245       -4.2273  -13.0616  -51.7350 H         1 UNK         0.0800 
    246 H246       -2.2032  -13.7961  -51.1961 H         1 UNK         0.0800 
    247 H247       -1.0102  -13.6268  -52.4522 H         1 UNK         0.0800 
@<TRIPOS>BOND
     1    1    2 1    
     2    1  127 1    
     3    1  128 1    
     4    1  129 1    
     5    2    3 2    
     6    2    4 am   BACKBONE|DICT|INTERRES
     7    4    5 1    
     8    4  130 1    
     9    5    6 1    
    10    5   65 1    
    11    5  131 1    
    12    6    7 1    
    13    6  132 1    
    14    6  133 1    
    15    7    8 1    
    16    8    9 1    
    17    8  134 1    
    18    8  135 1    
    19    9   10 ar   
    20    9   14 ar   
    21   10   11 ar   
    22   10  136 1    
    23   11   12 ar   
    24   11  126 1    
    25   12   13 ar   
    26   12  137 1    
    27   13   14 ar   
    28   13   15 1    
    29   14  138 1    
    30   15   16 1    
    31   15  139 1    
    32   15  140 1    
    33   16   17 1    
    34   17   18 1    
    35   17  141 1    
    36   17  142 1    
    37   18   19 1    
    38   18   67 1    
    39   18  143 1    
    40   19   20 am   BACKBONE|DICT|INTERRES
    41   19  144 1    
    42   20   21 2    
    43   20   22 1    
    44   22   23 1    
    45   22   24 1    
    46   22  145 1    
    47   23  146 1    
    48   23  147 1    
    49   23  148 1    
    50   24   25 am   BACKBONE|DICT|INTERRES
    51   24  149 1    
    52   25   26 2    
    53   25   27 1    
    54   27   28 1    
    55   27   29 1    
    56   27  150 1    
    57   28  151 1    
    58   28  152 1    
    59   28  153 1    
    60   29   30 am   BACKBONE|DICT|INTERRES
    61   29  154 1    
    62   30   31 2    
    63   30   32 1    
    64   32   33 1    
    65   32   34 1    
    66   32  155 1    
    67   33  156 1    
    68   33  157 1    
    69   33  158 1    
    70   34   35 am   BACKBONE|DICT|INTERRES
    71   34  159 1    
    72   35   36 2    
    73   35   37 1    
    74   37   38 1    
    75   37   39 1    
    76   37  160 1    
    77   38  161 1    
    78   38  162 1    
    79   38  163 1    
    80   39   40 am   BACKBONE|DICT|INTERRES
    81   39  164 1    
    82   40   41 2    
    83   40   42 1    
    84   42   43 1    
    85   42   44 1    
    86   42  165 1    
    87   43  166 1    
    88   43  167 1    
    89   43  168 1    
    90   44   45 am   BACKBONE|DICT|INTERRES
    91   44  169 1    
    92   45   46 2    
    93   45   47 1    
    94   47   48 1    
    95   47   49 1    
    96   47  170 1    
    97   48  171 1    
    98   48  172 1    
    99   48  173 1    
   100   49   50 am   BACKBONE|DICT|INTERRES
   101   49  174 1    
   102   50   51 2    
   103   50   52 1    
   104   52   53 1    
   105   52   54 1    
   106   52  175 1    
   107   53  176 1    
   108   53  177 1    
   109   53  178 1    
   110   54   55 am   BACKBONE|DICT|INTERRES
   111   54  179 1    
   112   55   56 2    
   113   55   57 1    
   114   57   58 1    
   115   57   59 1    
   116   57  180 1    
   117   58  181 1    
   118   58  182 1    
   119   58  183 1    
   120   59   60 am   BACKBONE|DICT|INTERRES
   121   59  184 1    
   122   60   61 2    
   123   60   62 1    
   124   62   63 1    
   125   62   64 1    
   126   62  185 1    
   127   63  186 1    
   128   63  187 1    
   129   63  188 1    
   130   64   65 am   BACKBONE|DICT|INTERRES
   131   64  189 1    
   132   65   66 2    
   133   67   68 2    
   134   67   69 am   BACKBONE|DICT|INTERRES
   135   69   70 1    
   136   69  190 1    
   137   70   71 1    
   138   70   72 1    
   139   70  191 1    
   140   71  192 1    
   141   71  193 1    
   142   71  194 1    
   143   72   73 2    
   144   72   74 am   BACKBONE|DICT|INTERRES
   145   74   75 1    
   146   74  195 1    
   147   75   76 1    
   148   75   77 1    
   149   75  196 1    
   150   76  197 1    
   151   76  198 1    
   152   76  199 1    
   153   77   78 2    
   154   77   79 am   BACKBONE|DICT|INTERRES
   155   79   80 1    
   156   79  200 1    
   157   80   81 1    
   158   80   82 1    
   159   80  201 1    
   160   81  202 1    
   161   81  203 1    
   162   81  204 1    
   163   82   83 2    
   164   82   84 am   BACKBONE|DICT|INTERRES
   165   84   85 1    
   166   84  205 1    
   167   85   86 1    
   168   85   87 1    
   169   85  206 1    
   170   86  207 1    
   171   86  208 1    
   172   86  209 1    
   173   87   88 2    
   174   87   89 am   BACKBONE|DICT|INTERRES
   175   89   90 1    
   176   89  210 1    
   177   90   91 1    
   178   90   92 1    
   179   90  211 1    
   180   91  212 1    
   181   91  213 1    
   182   91  214 1    
   183   92   93 2    
   184   92   94 am   BACKBONE|DICT|INTERRES
   185   94   95 1    
   186   94  215 1    
   187   95   96 1    
   188   95   97 1    
   189   95  216 1    
   190   96  217 1    
   191   96  218 1    
   192   96  219 1    
   193   97   98 2    
   194   97   99 am   BACKBONE|DICT|INTERRES
   195   99  100 1    
   196   99  220 1    
   197  100  101 1    
   198  100  102 1    
   199  100  221 1    
   200  101  222 1    
   201  101  223 1    
   202  101  224 1    
   203  102  103 2    
   204  102  104 am   BACKBONE|DICT|INTERRES
   205  104  105 1    
   206  104  225 1    
   207  105  106 1    
   208  105  107 1    
   209  105  226 1    
   210  106  227 1    
   211  106  228 1    
   212  106  229 1    
   213  107  108 2    
   214  107  109 am   BACKBONE|DICT|INTERRES
   215  109  110 1    
   216  109  230 1    
   217  110  111 1    
   218  110  112 1    
   219  110  231 1    
   220  111  232 1    
   221  111  233 1    
   222  111  234 1    
   223  112  113 2    
   224  112  114 am   BACKBONE|DICT|INTERRES
   225  114  115 1    
   226  114  235 1    
   227  115  116 1    
   228  115  117 1    
   229  115  236 1    
   230  116  237 1    
   231  116  238 1    
   232  116  239 1    
   233  117  118 2    
   234  117  119 am   BACKBONE|DICT|INTERRES
   235  119  120 1    
   236  119  240 1    
   237  120  121 1    
   238  120  124 1    
   239  120  241 1    
   240  121  122 am   BACKBONE|DICT|INTERRES
   241  121  123 2    
   242  122  242 1    
   243  122  243 1    
   244  124  125 1    
   245  124  244 1    
   246  124  245 1    
   247  125  126 1    
   248  126  246 1    
   249  126  247 1    
@<TRIPOS>SUBSTRUCTURE
     1 UNK         1 GROUP             0       ****    0 ROOT    
