@<TRIPOS>MOLECULE
3R540
247   249    1
SMALL
USER_CHARGES


@<TRIPOS>ATOM
      1 CA         -0.3160  -14.0791  -52.7907 C.3       0 UNK        -0.1800 
      2 C          -0.8482  -13.4407  -51.5156 C.2       0 UNK         0.5000 
      3 O          -1.4058  -12.3437  -51.5611 O.2       0 UNK        -0.5000 
      4 N          -0.6906  -14.1218  -50.3764 N.am      1 UNK        -0.5000 
      5 CA         -1.1554  -13.6994  -49.0515 C.3       1 UNK         0.1400 
      6 C6         -0.1819  -14.1121  -47.9124 C.3       23 UNK        -0.0398 
      7 S7          0.3681  -15.8516  -47.9714 S.3       23 UNK        -0.2404 
      8 C8          2.0411  -15.6799  -48.6606 C.3       23 UNK        -0.0205 
      9 C9          2.5055  -16.9849  -49.2856 C.ar      23 UNK        -0.0193 
     10 C10         2.4361  -17.1608  -50.6697 C.ar      23 UNK        -0.1150 
     11 C11         2.8425  -18.3634  -51.2587 C.ar      23 UNK        -0.0193 
     12 C12         3.3398  -19.3842  -50.4423 C.ar      23 UNK        -0.1150 
     13 C13         3.4137  -19.2250  -49.0549 C.ar      23 UNK        -0.0193 
     14 C14         3.0013  -18.0169  -48.4847 C.ar      23 UNK        -0.1150 
     15 C15         3.9619  -20.3419  -48.1718 C.3       23 UNK        -0.0205 
     16 S16         3.1525  -21.9537  -48.4528 S.3       23 UNK        -0.2404 
     17 C17         1.4205  -21.5725  -48.0336 C.3       23 UNK        -0.0398 
     18 CA          0.6584  -22.7907  -47.4617 C.3       11 UNK         0.1400 
     19 N           1.2857  -23.3171  -46.2446 N.am      11 UNK        -0.5000 
     20 C           0.9955  -24.5049  -45.6982 C.2       10 UNK         0.5000 
     21 O           0.1617  -25.2823  -46.1589 O.2       10 UNK        -0.5000 
     22 CA          1.7245  -24.8615  -44.3906 C.3       10 UNK         0.1400 
     23 CB          3.1097  -25.4528  -44.6906 C.3       10 UNK        -0.1800 
     24 N           1.8735  -23.7329  -43.4690 N.am      10 UNK        -0.5000 
     25 C           0.8824  -22.9892  -42.9629 C.2       9 UNK         0.5000 
     26 O          -0.2984  -23.1348  -43.2776 O.2       9 UNK        -0.5000 
     27 CA          1.2590  -21.8774  -41.9636 C.3       9 UNK         0.1400 
     28 CB          1.3053  -22.4225  -40.5246 C.3       9 UNK        -0.1800 
     29 N           2.4801  -21.1283  -42.2940 N.am      9 UNK        -0.5000 
     30 C           3.7565  -21.5460  -42.3273 C.2       8 UNK         0.5000 
     31 O           4.1030  -22.7023  -42.0845 O.2       8 UNK        -0.5000 
     32 CA          4.8305  -20.5209  -42.7468 C.3       8 UNK         0.1400 
     33 CB          5.3336  -20.8389  -44.1642 C.3       8 UNK        -0.1800 
     34 N           4.3558  -19.1369  -42.7220 N.am      8 UNK        -0.5000 
     35 C           4.1472  -18.4094  -41.6156 C.2       7 UNK         0.5000 
     36 O           4.4110  -18.8009  -40.4785 O.2       7 UNK        -0.5000 
     37 CA          3.5060  -17.0209  -41.8168 C.3       7 UNK         0.1400 
     38 CB          4.5854  -15.9281  -41.8448 C.3       7 UNK        -0.1800 
     39 N           2.6946  -16.9248  -43.0365 N.am      7 UNK        -0.5000 
     40 C           1.5593  -17.6027  -43.2506 C.2       6 UNK         0.5000 
     41 O           1.0716  -18.3972  -42.4440 O.2       6 UNK        -0.5000 
     42 CA          0.8962  -17.4238  -44.6259 C.3       6 UNK         0.1400 
     43 CB          1.0899  -18.6963  -45.4644 C.3       6 UNK        -0.1800 
     44 N          -0.5336  -17.1501  -44.5067 N.am      6 UNK        -0.5000 
     45 C          -1.0558  -16.0381  -43.9776 C.2       5 UNK         0.5000 
     46 O          -0.3850  -15.0769  -43.5883 O.2       5 UNK        -0.5000 
     47 CA         -2.5850  -16.0081  -43.8470 C.3       5 UNK         0.1400 
     48 CB         -3.0678  -16.9661  -42.7403 C.3       5 UNK        -0.1800 
     49 N          -3.0019  -14.6440  -43.5434 N.am      5 UNK        -0.5000 
     50 C          -4.2189  -14.1342  -43.7520 C.2       4 UNK         0.5000 
     51 O          -5.1677  -14.7944  -44.1805 O.2       4 UNK        -0.5000 
     52 CA         -4.4384  -12.6390  -43.4296 C.3       4 UNK         0.1400 
     53 CB         -3.2008  -11.9110  -42.8543 C.3       4 UNK        -0.1800 
     54 N          -4.9803  -11.9293  -44.5932 N.am      4 UNK        -0.5000 
     55 C          -4.3849  -11.7870  -45.7849 C.2       3 UNK         0.5000 
     56 O          -3.2199  -12.1156  -46.0249 O.2       3 UNK        -0.5000 
     57 CA         -5.2337  -11.1624  -46.9050 C.3       3 UNK         0.1400 
     58 CB         -4.8623   -9.6862  -47.1134 C.3       3 UNK        -0.1800 
     59 N          -4.9949  -11.8971  -48.1433 N.am      3 UNK        -0.5000 
     60 C          -5.5798  -13.0606  -48.4590 C.2       2 UNK         0.5000 
     61 O          -6.5450  -13.5302  -47.8557 O.2       2 UNK        -0.5000 
     62 CA         -4.9559  -13.8452  -49.6286 C.3       2 UNK         0.1400 
     63 CB         -5.5975  -13.4394  -50.9637 C.3       2 UNK        -0.1800 
     64 N          -3.5070  -13.6505  -49.7107 N.am      2 UNK        -0.5000 
     65 C          -2.6170  -14.1490  -48.8396 C.2       1 UNK         0.5000 
     66 O          -2.9173  -14.9249  -47.9314 O.2       1 UNK        -0.5000 
     67 C          -0.8304  -22.4448  -47.2421 C.2       11 UNK         0.5000 
     68 O          -1.6311  -22.5959  -48.1631 O.2       11 UNK        -0.5000 
     69 N          -1.1828  -21.9980  -46.0275 N.am      12 UNK        -0.5000 
     70 CA         -2.5647  -21.7189  -45.6389 C.3       12 UNK         0.1400 
     71 CB         -2.5855  -20.7773  -44.4252 C.3       12 UNK        -0.1800 
     72 C          -3.3364  -23.0200  -45.3578 C.2       12 UNK         0.5000 
     73 O          -4.4835  -23.1516  -45.7852 O.2       12 UNK        -0.5000 
     74 N          -2.6764  -23.9731  -44.6833 N.am      13 UNK        -0.5000 
     75 CA         -3.1956  -25.3105  -44.3896 C.3       13 UNK         0.1400 
     76 CB         -2.2159  -26.0436  -43.4618 C.3       13 UNK        -0.1800 
     77 C          -3.4765  -26.1440  -45.6550 C.2       13 UNK         0.5000 
     78 O          -4.4418  -26.9093  -45.6756 O.2       13 UNK        -0.5000 
     79 N          -2.6638  -25.9504  -46.7028 N.am      14 UNK        -0.5000 
     80 CA         -2.8104  -26.5336  -48.0379 C.3       14 UNK         0.1400 
     81 CB         -1.4556  -26.4535  -48.7622 C.3       14 UNK        -0.1800 
     82 C          -3.9632  -25.8926  -48.8453 C.2       14 UNK         0.5000 
     83 O          -3.7433  -25.3511  -49.9309 O.2       14 UNK        -0.5000 
     84 N          -5.1785  -25.9760  -48.2852 N.am      15 UNK        -0.5000 
     85 CA         -6.4712  -25.5700  -48.8484 C.3       15 UNK         0.1400 
     86 CB         -6.8445  -26.4887  -50.0307 C.3       15 UNK        -0.1800 
     87 C          -6.5717  -24.0730  -49.2125 C.2       15 UNK         0.5000 
     88 O          -7.3311  -23.7187  -50.1160 O.2       15 UNK        -0.5000 
     89 N          -5.8003  -23.2225  -48.5188 N.am      16 UNK        -0.5000 
     90 CA         -5.6634  -21.7649  -48.6547 C.3       16 UNK         0.1400 
     91 CB         -6.9864  -21.0484  -48.3297 C.3       16 UNK        -0.1800 
     92 C          -5.0874  -21.2670  -49.9957 C.2       16 UNK         0.5000 
     93 O          -4.3358  -20.2929  -49.9957 O.2       16 UNK        -0.5000 
     94 N          -5.4274  -21.9254  -51.1099 N.am      17 UNK        -0.5000 
     95 CA         -5.0429  -21.5764  -52.4784 C.3       17 UNK         0.1400 
     96 CB         -5.6772  -22.5795  -53.4519 C.3       17 UNK        -0.1800 
     97 C          -3.5237  -21.4967  -52.7021 C.2       17 UNK         0.5000 
     98 O          -3.0696  -20.6277  -53.4462 O.2       17 UNK        -0.5000 
     99 N          -2.7585  -22.3576  -52.0189 N.am      18 UNK        -0.5000 
    100 CA        -1.2953  -22.3617  -52.0588 C.3       18 UNK         0.1400 
    101 CB        -0.7747  -23.6524  -51.4117 C.3       18 UNK        -0.1800 
    102 C         -0.6476  -21.1144  -51.4209 C.2       18 UNK         0.5000 
    103 O          0.5047  -20.8279  -51.7360 O.2       18 UNK        -0.5000 
    104 N         -1.3876  -20.3992  -50.5631 N.am      19 UNK        -0.5000 
    105 CA        -1.0027  -19.1111  -49.9895 C.3       19 UNK         0.1400 
    106 CB        -1.4383  -19.0668  -48.5135 C.3       19 UNK        -0.1800 
    107 C         -1.6470  -17.9480  -50.7597 C.2       19 UNK         0.5000 
    108 O         -0.9776  -16.9549  -51.0372 O.2       19 UNK        -0.5000 
    109 N         -2.9479  -18.0728  -51.0538 N.am      20 UNK        -0.5000 
    110 CA        -3.7705  -17.0020  -51.6104 C.3       20 UNK         0.1400 
    111 CB        -5.2504  -17.3178  -51.3441 C.3       20 UNK        -0.1800 
    112 C         -3.5350  -16.7399  -53.1066 C.2       20 UNK         0.5000 
    113 O         -3.5640  -15.5804  -53.5197 O.2       20 UNK        -0.5000 
    114 N         -3.3390  -17.8068  -53.8904 N.am      21 UNK        -0.5000 
    115 CA        -3.1673  -17.7487  -55.3435 C.3       21 UNK         0.1400 
    116 CB        -4.2477  -18.6147  -56.0120 C.3       21 UNK        -0.1800 
    117 C         -1.7661  -18.2096  -55.7734 C.2       21 UNK         0.5000 
    118 O         -1.2455  -17.6925  -56.7624 O.2       21 UNK        -0.5000 
    119 N         -1.1854  -19.1632  -55.0319 N.am      22 UNK        -0.5000 
    120 CA         0.1519  -19.7473  -55.2505 C.3       22 UNK         0.1400 
    121 C          0.2584  -20.6615  -56.5097 C.2       22 UNK         0.5000 
    122 N         -0.8449  -21.1206  -57.0886 N.am      22 UNK        -0.7600 
    123 O          1.3545  -20.9916  -56.9546 O.2       22 UNK        -0.5000 
    124 C124        1.3052  -18.7046  -55.1666 C.3       23 UNK        -0.0398 
    125 S125        1.3247  -17.8215  -53.5701 S.3       23 UNK        -0.2404 
    126 C126        2.7765  -18.5831  -52.7684 C.3       23 UNK        -0.0205 
    127 H127       -1.1323  -14.2624  -53.4889 H         1 UNK         0.0600 
    128 H128        0.1787  -15.0297  -52.5909 H         1 UNK         0.0600 
    129 H129        0.4039  -13.4169  -53.2711 H         1 UNK         0.0600 
    130 H130       -0.3612  -15.0818  -50.4251 H         1 UNK         0.3000 
    131 H131       -1.1851  -12.6078  -49.0274 H         1 UNK         0.0600 
    132 H132       -0.6323  -13.9254  -46.9355 H         1 UNK         0.0800 
    133 H133        0.6978  -13.4684  -47.9448 H         1 UNK         0.0800 
    134 H134        2.7298  -15.3741  -47.8718 H         1 UNK         0.0800 
    135 H135        2.0526  -14.8854  -49.4084 H         1 UNK         0.0800 
    136 H136        2.0519  -16.3615  -51.2869 H         1 UNK         0.1150 
    137 H137        3.6620  -20.3152  -50.8870 H         1 UNK         0.1150 
    138 H138        3.0644  -17.8726  -47.4165 H         1 UNK         0.1150 
    139 H139        5.0296  -20.4479  -48.3674 H         1 UNK         0.0800 
    140 H140        3.8682  -20.0810  -47.1174 H         1 UNK         0.0800 
    141 H141        0.9408  -21.2098  -48.9427 H         1 UNK         0.0800 
    142 H142        1.4013  -20.7459  -47.3248 H         1 UNK         0.0800 
    143 H143        0.6883  -23.5815  -48.2149 H         1 UNK         0.0600 
    144 H144        1.9984  -22.7474  -45.8142 H         1 UNK         0.3000 
    145 H145        1.1320  -25.6229  -43.8803 H         1 UNK         0.0600 
    146 H146        3.5966  -25.7978  -43.7782 H         1 UNK         0.0600 
    147 H147        3.0327  -26.3096  -45.3614 H         1 UNK         0.0600 
    148 H148        3.7658  -24.7213  -45.1640 H         1 UNK         0.0600 
    149 H149        2.8090  -23.5458  -43.1173 H         1 UNK         0.3000 
    150 H150        0.4515  -21.1446  -42.0053 H         1 UNK         0.0600 
    151 H151        0.3528  -22.8787  -40.2519 H         1 UNK         0.0600 
    152 H152        1.5001  -21.6242  -39.8083 H         1 UNK         0.0600 
    153 H153        2.0768  -23.1825  -40.3988 H         1 UNK         0.0600 
    154 H154        2.3103  -20.1509  -42.4984 H         1 UNK         0.3000 
    155 H155        5.6680  -20.6159  -42.0525 H         1 UNK         0.0600 
    156 H156        4.5289  -20.7829  -44.8976 H         1 UNK         0.0600 
    157 H157        5.7522  -21.8450  -44.2149 H         1 UNK         0.0600 
    158 H158        6.1186  -20.1473  -44.4708 H         1 UNK         0.0600 
    159 H159        4.1322  -18.7192  -43.6126 H         1 UNK         0.3000 
    160 H160        2.8523  -16.8353  -40.9619 H         1 UNK         0.0600 
    161 H161        5.2597  -16.0492  -42.6936 H         1 UNK         0.0600 
    162 H162        5.1912  -15.9541  -40.9380 H         1 UNK         0.0600 
    163 H163        4.1401  -14.9350  -41.9074 H         1 UNK         0.0600 
    164 H164        3.0291  -16.2891  -43.7465 H         1 UNK         0.3000 
    165 H165        1.3667  -16.5864  -45.1453 H         1 UNK         0.0600 
    166 H166        0.7371  -18.5446  -46.4835 H         1 UNK         0.0600 
    167 H167        2.1425  -18.9743  -45.5217 H         1 UNK         0.0600 
    168 H168        0.5516  -19.5460  -45.0427 H         1 UNK         0.0600 
    169 H169       -1.1536  -17.8945  -44.7841 H         1 UNK         0.3000 
    170 H170       -3.0110  -16.3066  -44.8076 H         1 UNK         0.0600 
    171 H171       -2.7561  -17.9919  -42.9386 H         1 UNK         0.0600 
    172 H172       -2.6663  -16.6847  -41.7661 H         1 UNK         0.0600 
    173 H173       -4.1551  -16.9713  -42.6647 H         1 UNK         0.0600 
    174 H174       -2.2449  -14.0404  -43.2461 H         1 UNK         0.3000 
    175 H175       -5.2158  -12.6091  -42.6647 H         1 UNK         0.0600 
    176 H176       -2.3537  -11.9214  -43.5406 H         1 UNK         0.0600 
    177 H177       -3.4317  -10.8689  -42.6332 H         1 UNK         0.0600 
    178 H178       -2.8756  -12.3700  -41.9198 H         1 UNK         0.0600 
    179 H179       -5.9453  -11.6423  -44.5061 H         1 UNK         0.3000 
    180 H180       -6.2921  -11.2224  -46.6422 H         1 UNK         0.0600 
    181 H181       -5.4575   -9.2388  -47.9097 H         1 UNK         0.0600 
    182 H182       -3.8097   -9.5668  -47.3734 H         1 UNK         0.0600 
    183 H183       -5.0441   -9.1078  -46.2068 H         1 UNK         0.0600 
    184 H184       -4.1814  -11.6199  -48.6716 H         1 UNK         0.3000 
    185 H185       -5.1524  -14.9059  -49.4601 H         1 UNK         0.0600 
    186 H186       -5.1883  -14.0183  -51.7916 H         1 UNK         0.0600 
    187 H187       -6.6742  -13.6128  -50.9469 H         1 UNK         0.0600 
    188 H188       -5.4375  -12.3832  -51.1835 H         1 UNK         0.0600 
    189 H189       -3.1615  -13.0525  -50.4523 H         1 UNK         0.3000 
    190 H190       -0.4915  -21.9779  -45.2917 H         1 UNK         0.3000 
    191 H191       -3.0603  -21.2036  -46.4639 H         1 UNK         0.0600 
    192 H192       -3.6096  -20.5212  -44.1509 H         1 UNK         0.0600 
    193 H193       -2.0654  -19.8457  -44.6440 H         1 UNK         0.0600 
    194 H194       -2.1159  -21.2256  -43.5498 H         1 UNK         0.0600 
    195 H195       -1.7518  -23.7564  -44.3207 H         1 UNK         0.3000 
    196 H196       -4.1417  -25.1877  -43.8586 H         1 UNK         0.0600 
    197 H197       -1.2516  -26.2048  -43.9433 H         1 UNK         0.0600 
    198 H198       -2.0423  -25.4800  -42.5448 H         1 UNK         0.0600 
    199 H199       -2.6068  -27.0207  -43.1755 H         1 UNK         0.0600 
    200 H200       -1.8572  -25.3504  -46.5701 H         1 UNK         0.3000 
    201 H201       -3.0571  -27.5912  -47.9251 H         1 UNK         0.0600 
    202 H202       -1.0989  -25.4262  -48.8251 H         1 UNK         0.0600 
    203 H203       -1.5211  -26.8478  -49.7770 H         1 UNK         0.0600 
    204 H204       -0.6968  -27.0345  -48.2378 H         1 UNK         0.0600 
    205 H205       -5.2176  -26.4004  -47.3622 H         1 UNK         0.3000 
    206 H206       -7.2070  -25.7334  -48.0600 H         1 UNK         0.0600 
    207 H207       -6.7877  -27.5396  -49.7471 H         1 UNK         0.0600 
    208 H208       -7.8645  -26.3022  -50.3688 H         1 UNK         0.0600 
    209 H209       -6.1833  -26.3353  -50.8843 H         1 UNK         0.0600 
    210 H210       -5.2193  -23.6204  -47.7899 H         1 UNK         0.3000 
    211 H211       -4.9418  -21.4695  -47.8934 H         1 UNK         0.0600 
    212 H212       -6.8532  -19.9657  -48.3352 H         1 UNK         0.0600 
    213 H213       -7.3505  -21.3256  -47.3404 H         1 UNK         0.0600 
    214 H214       -7.7669  -21.2831  -49.0538 H         1 UNK         0.0600 
    215 H215       -6.0853  -22.6928  -50.9998 H         1 UNK         0.3000 
    216 H216       -5.4550  -20.5883  -52.6908 H         1 UNK         0.0600 
    217 H217       -5.3334  -23.5968  -53.2601 H         1 UNK         0.0600 
    218 H218       -5.4263  -22.3350  -54.4851 H         1 UNK         0.0600 
    219 H219       -6.7644  -22.5729  -53.3715 H         1 UNK         0.0600 
    220 H220       -3.2025  -23.0295  -51.4070 H         1 UNK         0.3000 
    221 H221       -0.9921  -22.3718  -53.1079 H         1 UNK         0.0600 
    222 H222       -1.1165  -24.5326  -51.9563 H         1 UNK         0.0600 
    223 H223       -1.1189  -23.7451  -50.3844 H         1 UNK         0.0600 
    224 H224        0.3157  -23.6778  -51.3992 H         1 UNK         0.0600 
    225 H225       -2.3295  -20.7117  -50.3606 H         1 UNK         0.3000 
    226 H226        0.0805  -18.9782  -50.0311 H         1 UNK         0.0600 
    227 H227       -2.4633  -19.4098  -48.3765 H         1 UNK         0.0600 
    228 H228       -0.7957  -19.6887  -47.8971 H         1 UNK         0.0600 
    229 H229       -1.3867  -18.0573  -48.1089 H         1 UNK         0.0600 
    230 H230       -3.4403  -18.9067  -50.7418 H         1 UNK         0.3000 
    231 H231       -3.5237  -16.0819  -51.0793 H         1 UNK         0.0600 
    232 H232       -5.5564  -18.2468  -51.8259 H         1 UNK         0.0600 
    233 H233       -5.8958  -16.5237  -51.7213 H         1 UNK         0.0600 
    234 H234       -5.4456  -17.4164  -50.2760 H         1 UNK         0.0600 
    235 H235       -3.3045  -18.7311  -53.4729 H         1 UNK         0.3000 
    236 H236       -3.2916  -16.7260  -55.7051 H         1 UNK         0.0600 
    237 H237       -5.2467  -18.2599  -55.7581 H         1 UNK         0.0600 
    238 H238       -4.1575  -18.5812  -57.0985 H         1 UNK         0.0600 
    239 H239       -4.1779  -19.6596  -55.7089 H         1 UNK         0.0600 
    240 H240       -1.7292  -19.5854  -54.2864 H         1 UNK         0.3000 
    241 H241        0.2952  -20.4370  -54.4193 H         1 UNK         0.0600 
    242 H242       -1.7523  -20.8728  -56.7289 H         1 UNK         0.3800 
    243 H243       -0.7698  -21.7193  -57.8960 H         1 UNK         0.3800 
    244 H244        1.2240  -17.9698  -55.9677 H         1 UNK         0.0800 
    245 H245        2.2732  -19.1870  -55.3096 H         1 UNK         0.0800 
    246 H246        2.7568  -19.6544  -52.9753 H         1 UNK         0.0800 
    247 H247        3.6856  -18.1900  -53.2248 H         1 UNK         0.0800 
@<TRIPOS>BOND
     1    1    2 1    
     2    1  127 1    
     3    1  128 1    
     4    1  129 1    
     5    2    3 2    
     6    2    4 am   BACKBONE|DICT|INTERRES
     7    4    5 1    
     8    4  130 1    
     9    5    6 1    
    10    5   65 1    
    11    5  131 1    
    12    6    7 1    
    13    6  132 1    
    14    6  133 1    
    15    7    8 1    
    16    8    9 1    
    17    8  134 1    
    18    8  135 1    
    19    9   10 ar   
    20    9   14 ar   
    21   10   11 ar   
    22   10  136 1    
    23   11   12 ar   
    24   11  126 1    
    25   12   13 ar   
    26   12  137 1    
    27   13   14 ar   
    28   13   15 1    
    29   14  138 1    
    30   15   16 1    
    31   15  139 1    
    32   15  140 1    
    33   16   17 1    
    34   17   18 1    
    35   17  141 1    
    36   17  142 1    
    37   18   19 1    
    38   18   67 1    
    39   18  143 1    
    40   19   20 am   BACKBONE|DICT|INTERRES
    41   19  144 1    
    42   20   21 2    
    43   20   22 1    
    44   22   23 1    
    45   22   24 1    
    46   22  145 1    
    47   23  146 1    
    48   23  147 1    
    49   23  148 1    
    50   24   25 am   BACKBONE|DICT|INTERRES
    51   24  149 1    
    52   25   26 2    
    53   25   27 1    
    54   27   28 1    
    55   27   29 1    
    56   27  150 1    
    57   28  151 1    
    58   28  152 1    
    59   28  153 1    
    60   29   30 am   BACKBONE|DICT|INTERRES
    61   29  154 1    
    62   30   31 2    
    63   30   32 1    
    64   32   33 1    
    65   32   34 1    
    66   32  155 1    
    67   33  156 1    
    68   33  157 1    
    69   33  158 1    
    70   34   35 am   BACKBONE|DICT|INTERRES
    71   34  159 1    
    72   35   36 2    
    73   35   37 1    
    74   37   38 1    
    75   37   39 1    
    76   37  160 1    
    77   38  161 1    
    78   38  162 1    
    79   38  163 1    
    80   39   40 am   BACKBONE|DICT|INTERRES
    81   39  164 1    
    82   40   41 2    
    83   40   42 1    
    84   42   43 1    
    85   42   44 1    
    86   42  165 1    
    87   43  166 1    
    88   43  167 1    
    89   43  168 1    
    90   44   45 am   BACKBONE|DICT|INTERRES
    91   44  169 1    
    92   45   46 2    
    93   45   47 1    
    94   47   48 1    
    95   47   49 1    
    96   47  170 1    
    97   48  171 1    
    98   48  172 1    
    99   48  173 1    
   100   49   50 am   BACKBONE|DICT|INTERRES
   101   49  174 1    
   102   50   51 2    
   103   50   52 1    
   104   52   53 1    
   105   52   54 1    
   106   52  175 1    
   107   53  176 1    
   108   53  177 1    
   109   53  178 1    
   110   54   55 am   BACKBONE|DICT|INTERRES
   111   54  179 1    
   112   55   56 2    
   113   55   57 1    
   114   57   58 1    
   115   57   59 1    
   116   57  180 1    
   117   58  181 1    
   118   58  182 1    
   119   58  183 1    
   120   59   60 am   BACKBONE|DICT|INTERRES
   121   59  184 1    
   122   60   61 2    
   123   60   62 1    
   124   62   63 1    
   125   62   64 1    
   126   62  185 1    
   127   63  186 1    
   128   63  187 1    
   129   63  188 1    
   130   64   65 am   BACKBONE|DICT|INTERRES
   131   64  189 1    
   132   65   66 2    
   133   67   68 2    
   134   67   69 am   BACKBONE|DICT|INTERRES
   135   69   70 1    
   136   69  190 1    
   137   70   71 1    
   138   70   72 1    
   139   70  191 1    
   140   71  192 1    
   141   71  193 1    
   142   71  194 1    
   143   72   73 2    
   144   72   74 am   BACKBONE|DICT|INTERRES
   145   74   75 1    
   146   74  195 1    
   147   75   76 1    
   148   75   77 1    
   149   75  196 1    
   150   76  197 1    
   151   76  198 1    
   152   76  199 1    
   153   77   78 2    
   154   77   79 am   BACKBONE|DICT|INTERRES
   155   79   80 1    
   156   79  200 1    
   157   80   81 1    
   158   80   82 1    
   159   80  201 1    
   160   81  202 1    
   161   81  203 1    
   162   81  204 1    
   163   82   83 2    
   164   82   84 am   BACKBONE|DICT|INTERRES
   165   84   85 1    
   166   84  205 1    
   167   85   86 1    
   168   85   87 1    
   169   85  206 1    
   170   86  207 1    
   171   86  208 1    
   172   86  209 1    
   173   87   88 2    
   174   87   89 am   BACKBONE|DICT|INTERRES
   175   89   90 1    
   176   89  210 1    
   177   90   91 1    
   178   90   92 1    
   179   90  211 1    
   180   91  212 1    
   181   91  213 1    
   182   91  214 1    
   183   92   93 2    
   184   92   94 am   BACKBONE|DICT|INTERRES
   185   94   95 1    
   186   94  215 1    
   187   95   96 1    
   188   95   97 1    
   189   95  216 1    
   190   96  217 1    
   191   96  218 1    
   192   96  219 1    
   193   97   98 2    
   194   97   99 am   BACKBONE|DICT|INTERRES
   195   99  100 1    
   196   99  220 1    
   197  100  101 1    
   198  100  102 1    
   199  100  221 1    
   200  101  222 1    
   201  101  223 1    
   202  101  224 1    
   203  102  103 2    
   204  102  104 am   BACKBONE|DICT|INTERRES
   205  104  105 1    
   206  104  225 1    
   207  105  106 1    
   208  105  107 1    
   209  105  226 1    
   210  106  227 1    
   211  106  228 1    
   212  106  229 1    
   213  107  108 2    
   214  107  109 am   BACKBONE|DICT|INTERRES
   215  109  110 1    
   216  109  230 1    
   217  110  111 1    
   218  110  112 1    
   219  110  231 1    
   220  111  232 1    
   221  111  233 1    
   222  111  234 1    
   223  112  113 2    
   224  112  114 am   BACKBONE|DICT|INTERRES
   225  114  115 1    
   226  114  235 1    
   227  115  116 1    
   228  115  117 1    
   229  115  236 1    
   230  116  237 1    
   231  116  238 1    
   232  116  239 1    
   233  117  118 2    
   234  117  119 am   BACKBONE|DICT|INTERRES
   235  119  120 1    
   236  119  240 1    
   237  120  121 1    
   238  120  124 1    
   239  120  241 1    
   240  121  122 am   BACKBONE|DICT|INTERRES
   241  121  123 2    
   242  122  242 1    
   243  122  243 1    
   244  124  125 1    
   245  124  244 1    
   246  124  245 1    
   247  125  126 1    
   248  126  246 1    
   249  126  247 1    
@<TRIPOS>SUBSTRUCTURE
     1 UNK         1 GROUP             0       ****    0 ROOT    
