@<TRIPOS>MOLECULE
3R540
247   249    1
SMALL
USER_CHARGES


@<TRIPOS>ATOM
      1 CA          3.8398  -11.6871  -49.9617 C.3       0 UNK        -0.1800 
      2 C           2.7359  -12.1938  -49.0452 C.2       0 UNK         0.5000 
      3 O           2.6989  -11.8296  -47.8702 O.2       0 UNK        -0.5000 
      4 N           1.8258  -13.0176  -49.5791 N.am      1 UNK        -0.5000 
      5 CA          0.7049  -13.6698  -48.8835 C.3       1 UNK         0.1400 
      6 C6          0.2190  -14.9219  -49.6622 C.3       23 UNK        -0.0398 
      7 S7          1.5368  -16.1662  -49.8666 S.3       23 UNK        -0.2404 
      8 C8          0.5521  -17.6596  -50.1929 C.3       23 UNK        -0.0205 
      9 C9          1.4464  -18.8488  -50.4990 C.ar      23 UNK        -0.0193 
     10 C10         1.5935  -19.2912  -51.8150 C.ar      23 UNK        -0.1150 
     11 C11         2.4053  -20.3894  -52.1059 C.ar      23 UNK        -0.0193 
     12 C12         3.0774  -21.0407  -51.0685 C.ar      23 UNK        -0.1150 
     13 C13         2.9467  -20.6109  -49.7442 C.ar      23 UNK        -0.0193 
     14 C14         2.1267  -19.5066  -49.4691 C.ar      23 UNK        -0.1150 
     15 C15         3.7307  -21.3588  -48.6619 C.3       23 UNK        -0.0205 
     16 S16         3.1538  -21.1279  -46.9449 S.3       23 UNK        -0.2404 
     17 C17         1.4818  -21.8510  -47.0218 C.3       23 UNK        -0.0398 
     18 CA          1.3432  -23.2262  -46.3167 C.3       11 UNK         0.1400 
     19 N           1.8329  -23.1715  -44.9370 N.am      11 UNK        -0.5000 
     20 C           2.2680  -24.1904  -44.1850 C.2       10 UNK         0.5000 
     21 O           2.2455  -25.3620  -44.5645 O.2       10 UNK        -0.5000 
     22 CA          2.7594  -23.8531  -42.7584 C.3       10 UNK         0.1400 
     23 CB          4.0967  -24.5423  -42.4192 C.3       10 UNK        -0.1800 
     24 N           2.7959  -22.4090  -42.4815 N.am      10 UNK        -0.5000 
     25 C           3.6259  -21.4814  -42.9808 C.2       9 UNK         0.5000 
     26 O           4.6198  -21.7410  -43.6590 O.2       9 UNK        -0.5000 
     27 CA          3.2062  -20.0139  -42.7413 C.3       9 UNK         0.1400 
     28 CB          4.2448  -19.0121  -43.2743 C.3       9 UNK        -0.1800 
     29 N           1.9113  -19.7182  -43.3659 N.am      9 UNK        -0.5000 
     30 C           0.7108  -20.1019  -42.9049 C.2       8 UNK         0.5000 
     31 O           0.5652  -20.7445  -41.8636 O.2       8 UNK        -0.5000 
     32 CA         -0.5143  -19.7482  -43.7656 C.3       8 UNK         0.1400 
     33 CB         -1.8190  -19.6692  -42.9519 C.3       8 UNK        -0.1800 
     34 N          -0.3018  -18.4850  -44.4649 N.am      8 UNK        -0.5000 
     35 C          -0.4989  -18.2831  -45.7725 C.2       7 UNK         0.5000 
     36 O          -0.9038  -19.1480  -46.5477 O.2       7 UNK        -0.5000 
     37 CA         -0.2056  -16.8761  -46.3193 C.3       7 UNK         0.1400 
     38 CB         -1.5161  -16.0954  -46.5051 C.3       7 UNK        -0.1800 
     39 N           0.7198  -16.0836  -45.5083 N.am      7 UNK        -0.5000 
     40 C           2.0293  -16.3402  -45.3721 C.2       6 UNK         0.5000 
     41 O           2.5740  -17.3499  -45.8164 O.2       6 UNK        -0.5000 
     42 CA          2.8658  -15.3031  -44.6055 C.3       6 UNK         0.1400 
     43 CB          3.1508  -14.0829  -45.4933 C.3       6 UNK        -0.1800 
     44 N           2.1674  -14.8628  -43.4007 N.am      6 UNK        -0.5000 
     45 C           2.5649  -15.1075  -42.1449 C.2       5 UNK         0.5000 
     46 O           3.6379  -15.6362  -41.8538 O.2       5 UNK        -0.5000 
     47 CA          1.5973  -14.7067  -41.0103 C.3       5 UNK         0.1400 
     48 CB          2.0133  -13.3580  -40.4034 C.3       5 UNK        -0.1800 
     49 N           0.1933  -14.6248  -41.4215 N.am      5 UNK        -0.5000 
     50 C          -0.5299  -15.6363  -41.9218 C.2       4 UNK         0.5000 
     51 O          -0.1036  -16.7831  -42.0505 O.2       4 UNK        -0.5000 
     52 CA         -1.9451  -15.2985  -42.4282 C.3       4 UNK         0.1400 
     53 CB         -2.9866  -15.6046  -41.3423 C.3       4 UNK        -0.1800 
     54 N          -2.1226  -13.9148  -42.8908 N.am      4 UNK        -0.5000 
     55 C          -1.4043  -13.2995  -43.8407 C.2       3 UNK         0.5000 
     56 O          -0.4310  -13.8066  -44.4073 O.2       3 UNK        -0.5000 
     57 CA         -1.8176  -11.8644  -44.1851 C.3       3 UNK         0.1400 
     58 CB         -1.2977  -10.8761  -43.1267 C.3       3 UNK        -0.1800 
     59 N          -1.2652  -11.5184  -45.4895 N.am      3 UNK        -0.5000 
     60 C          -1.7936  -10.6486  -46.3566 C.2       2 UNK         0.5000 
     61 O          -2.8284  -10.0159  -46.1410 O.2       2 UNK        -0.5000 
     62 CA         -1.0426  -10.4332  -47.6846 C.3       2 UNK         0.1400 
     63 CB         -0.2520   -9.1161  -47.6435 C.3       2 UNK        -0.1800 
     64 N          -0.1173  -11.5194  -48.0113 N.am      2 UNK        -0.5000 
     65 C          -0.4524  -12.6839  -48.5785 C.2       1 UNK         0.5000 
     66 O          -1.6125  -12.9774  -48.8707 O.2       1 UNK        -0.5000 
     67 C          -0.1180  -23.7291  -46.3737 C.2       11 UNK         0.5000 
     68 O          -0.9614  -23.0810  -46.9933 O.2       11 UNK        -0.5000 
     69 N          -0.4121  -24.8533  -45.7067 N.am      12 UNK        -0.5000 
     70 CA         -1.7610  -25.3875  -45.4869 C.3       12 UNK         0.1400 
     71 CB         -1.6650  -26.6858  -44.6724 C.3       12 UNK        -0.1800 
     72 C          -2.5766  -25.6116  -46.7744 C.2       12 UNK         0.5000 
     73 O          -3.7599  -25.2737  -46.8105 O.2       12 UNK        -0.5000 
     74 N          -1.9148  -26.1313  -47.8174 N.am      13 UNK        -0.5000 
     75 CA         -2.5039  -26.3802  -49.1350 C.3       13 UNK         0.1400 
     76 CB         -1.5277  -27.2211  -49.9712 C.3       13 UNK        -0.1800 
     77 C          -2.8885  -25.0927  -49.8893 C.2       13 UNK         0.5000 
     78 O          -3.8523  -25.1081  -50.6552 O.2       13 UNK        -0.5000 
     79 N          -2.1425  -24.0044  -49.6533 N.am      14 UNK        -0.5000 
     80 CA         -2.4433  -22.6792  -50.1874 C.3       14 UNK         0.1400 
     81 CB         -1.1636  -21.8259  -50.2304 C.3       14 UNK        -0.1800 
     82 C          -3.5329  -22.0039  -49.3421 C.2       14 UNK         0.5000 
     83 O          -4.5189  -21.5215  -49.8979 O.2       14 UNK        -0.5000 
     84 N          -3.3513  -22.0092  -48.0144 N.am      15 UNK        -0.5000 
     85 CA         -4.2247  -21.3751  -47.0259 C.3       15 UNK         0.1400 
     86 CB         -3.6318  -21.5733  -45.6244 C.3       15 UNK        -0.1800 
     87 C          -5.6780  -21.8754  -47.0730 C.2       15 UNK         0.5000 
     88 O          -6.5986  -21.0612  -46.9975 O.2       15 UNK        -0.5000 
     89 N          -5.8603  -23.1901  -47.2645 N.am      16 UNK        -0.5000 
     90 CA         -7.1642  -23.8430  -47.4210 C.3       16 UNK         0.1400 
     91 CB         -6.9591  -25.3650  -47.4601 C.3       16 UNK        -0.1800 
     92 C          -7.9586  -23.3806  -48.6608 C.2       16 UNK         0.5000 
     93 O          -9.1841  -23.5016  -48.6706 O.2       16 UNK        -0.5000 
     94 N          -7.2548  -22.8537  -49.6701 N.am      17 UNK        -0.5000 
     95 CA         -7.8147  -22.3154  -50.9078 C.3       17 UNK         0.1400 
     96 CB         -7.0154  -22.9018  -52.0816 C.3       17 UNK        -0.1800 
     97 C          -7.7742  -20.7751  -50.9425 C.2       17 UNK         0.5000 
     98 O          -8.0556  -20.1980  -51.9923 O.2       17 UNK        -0.5000 
     99 N          -7.3863  -20.1288  -49.8304 N.am      18 UNK        -0.5000 
    100 CA        -7.1567  -18.6841  -49.6922 C.3       18 UNK         0.1400 
    101 CB        -8.4890  -17.9096  -49.7646 C.3       18 UNK        -0.1800 
    102 C         -6.0915  -18.1559  -50.6811 C.2       18 UNK         0.5000 
    103 O         -6.2580  -17.0852  -51.2662 O.2       18 UNK        -0.5000 
    104 N         -5.0320  -18.9566  -50.8638 N.am      19 UNK        -0.5000 
    105 CA        -3.8821  -18.7962  -51.7582 C.3       19 UNK         0.1400 
    106 CB        -3.1560  -17.4544  -51.5369 C.3       19 UNK        -0.1800 
    107 C         -4.1741  -19.0573  -53.2485 C.2       19 UNK         0.5000 
    108 O         -3.2235  -19.1087  -54.0300 O.2       19 UNK        -0.5000 
    109 N         -5.4406  -19.2714  -53.6363 N.am      20 UNK        -0.5000 
    110 CA        -5.8615  -19.4486  -55.0329 C.3       20 UNK         0.1400 
    111 CB        -7.3951  -19.4410  -55.1094 C.3       20 UNK        -0.1800 
    112 C         -5.2986  -20.7134  -55.7127 C.2       20 UNK         0.5000 
    113 O         -5.1760  -20.7386  -56.9376 O.2       20 UNK        -0.5000 
    114 N         -4.9515  -21.7285  -54.9109 N.am      21 UNK        -0.5000 
    115 CA        -4.3404  -22.9788  -55.3650 C.3       21 UNK         0.1400 
    116 CB        -4.6364  -24.0799  -54.3336 C.3       21 UNK        -0.1800 
    117 C         -2.8214  -22.8736  -55.6114 C.2       21 UNK         0.5000 
    118 O         -2.2491  -23.8182  -56.1574 O.2       21 UNK        -0.5000 
    119 N         -2.1898  -21.7679  -55.1934 N.am      22 UNK        -0.5000 
    120 CA        -0.7329  -21.5690  -55.2514 C.3       22 UNK         0.1400 
    121 C         -0.3174  -20.2256  -55.9129 C.2       22 UNK         0.5000 
    122 N         -1.0925  -19.1552  -55.7972 N.am      22 UNK        -0.7600 
    123 O          0.7174  -20.1558  -56.5698 O.2       22 UNK        -0.5000 
    124 C124       -0.1052  -21.7453  -53.8443 C.3       23 UNK        -0.0398 
    125 S125        1.6096  -22.3684  -53.8868 S.3       23 UNK        -0.2404 
    126 C126        2.5730  -20.8624  -53.5419 C.3       23 UNK        -0.0205 
    127 H127        3.7460  -12.0895  -50.9706 H         1 UNK         0.0600 
    128 H128        3.8055  -10.5995  -50.0238 H         1 UNK         0.0600 
    129 H129        4.8143  -11.9771  -49.5690 H         1 UNK         0.0600 
    130 H130        1.9124  -13.2598  -50.5557 H         1 UNK         0.3000 
    131 H131        1.0689  -14.0139  -47.9132 H         1 UNK         0.0600 
    132 H132       -0.1500  -14.6417  -50.6504 H         1 UNK         0.0800 
    133 H133       -0.6185  -15.3955  -49.1491 H         1 UNK         0.0800 
    134 H134       -0.1160  -17.4644  -51.0320 H         1 UNK         0.0800 
    135 H135       -0.0863  -17.8950  -49.3414 H         1 UNK         0.0800 
    136 H136        1.0765  -18.7793  -52.6147 H         1 UNK         0.1150 
    137 H137        3.7096  -21.8874  -51.2977 H         1 UNK         0.1150 
    138 H138        2.0164  -19.1423  -48.4576 H         1 UNK         0.1150 
    139 H139        3.7249  -22.4281  -48.8795 H         1 UNK         0.0800 
    140 H140        4.7722  -21.0398  -48.7154 H         1 UNK         0.0800 
    141 H141        1.1818  -21.9373  -48.0662 H         1 UNK         0.0800 
    142 H142        0.8022  -21.1250  -46.5752 H         1 UNK         0.0800 
    143 H143        1.9505  -23.9468  -46.8681 H         1 UNK         0.0600 
    144 H144        1.9073  -22.2478  -44.5411 H         1 UNK         0.3000 
    145 H145        2.0056  -24.2602  -42.0831 H         1 UNK         0.0600 
    146 H146        4.4367  -24.2755  -41.4186 H         1 UNK         0.0600 
    147 H147        3.9915  -25.6274  -42.4468 H         1 UNK         0.0600 
    148 H148        4.8841  -24.2783  -43.1253 H         1 UNK         0.0600 
    149 H149        1.9904  -22.0525  -41.9726 H         1 UNK         0.3000 
    150 H150        3.1206  -19.8658  -41.6628 H         1 UNK         0.0600 
    151 H151        5.2193  -19.1722  -42.8117 H         1 UNK         0.0600 
    152 H152        3.9475  -17.9875  -43.0574 H         1 UNK         0.0600 
    153 H153        4.3719  -19.0995  -44.3544 H         1 UNK         0.0600 
    154 H154        1.9495  -19.2083  -44.2392 H         1 UNK         0.3000 
    155 H155       -0.6118  -20.5639  -44.4840 H         1 UNK         0.0600 
    156 H156       -1.7482  -18.9357  -42.1485 H         1 UNK         0.0600 
    157 H157       -2.0580  -20.6321  -42.4993 H         1 UNK         0.0600 
    158 H158       -2.6619  -19.3906  -43.5842 H         1 UNK         0.0600 
    159 H159        0.0187  -17.7183  -43.8823 H         1 UNK         0.3000 
    160 H160        0.2596  -17.0026  -47.2955 H         1 UNK         0.0600 
    161 H161       -1.3339  -15.0836  -46.8646 H         1 UNK         0.0600 
    162 H162       -2.0751  -16.0168  -45.5738 H         1 UNK         0.0600 
    163 H163       -2.1627  -16.5889  -47.2319 H         1 UNK         0.0600 
    164 H164        0.3376  -15.2305  -45.1062 H         1 UNK         0.3000 
    165 H165        3.8202  -15.7706  -44.3545 H         1 UNK         0.0600 
    166 H166        3.8285  -13.3875  -44.9985 H         1 UNK         0.0600 
    167 H167        3.6172  -14.3789  -46.4340 H         1 UNK         0.0600 
    168 H168        2.2371  -13.5389  -45.7352 H         1 UNK         0.0600 
    169 H169        1.2657  -14.4216  -43.5419 H         1 UNK         0.3000 
    170 H170        1.6711  -15.4718  -40.2349 H         1 UNK         0.0600 
    171 H171        3.0479  -13.3865  -40.0587 H         1 UNK         0.0600 
    172 H172        1.9315  -12.5485  -41.1301 H         1 UNK         0.0600 
    173 H173        1.3933  -13.1031  -39.5438 H         1 UNK         0.0600 
    174 H174       -0.2411  -13.7160  -41.3620 H         1 UNK         0.3000 
    175 H175       -2.1437  -15.9562  -43.2752 H         1 UNK         0.0600 
    176 H176       -4.0011  -15.4788  -41.7211 H         1 UNK         0.0600 
    177 H177       -2.8981  -16.6349  -40.9944 H         1 UNK         0.0600 
    178 H178       -2.8672  -14.9536  -40.4754 H         1 UNK         0.0600 
    179 H179       -2.8884  -13.4093  -42.4686 H         1 UNK         0.3000 
    180 H180       -2.9082  -11.8244  -44.2251 H         1 UNK         0.0600 
    181 H181       -0.2094  -10.9002  -43.0560 H         1 UNK         0.0600 
    182 H182       -1.6978  -11.1075  -42.1389 H         1 UNK         0.0600 
    183 H183       -1.5938   -9.8538  -43.3627 H         1 UNK         0.0600 
    184 H184       -0.4423  -12.0449  -45.7513 H         1 UNK         0.3000 
    185 H185       -1.7904  -10.3566  -48.4768 H         1 UNK         0.0600 
    186 H186        0.5207   -9.1354  -46.8738 H         1 UNK         0.0600 
    187 H187        0.2322   -8.9172  -48.5998 H         1 UNK         0.0600 
    188 H188       -0.9081   -8.2711  -47.4303 H         1 UNK         0.0600 
    189 H189        0.8674  -11.3666  -47.8080 H         1 UNK         0.3000 
    190 H190        0.3518  -25.3266  -45.2351 H         1 UNK         0.3000 
    191 H191       -2.3018  -24.6541  -44.8862 H         1 UNK         0.0600 
    192 H192       -1.1894  -26.5111  -43.7071 H         1 UNK         0.0600 
    193 H193       -1.0884  -27.4486  -45.1969 H         1 UNK         0.0600 
    194 H194       -2.6554  -27.0987  -44.4756 H         1 UNK         0.0600 
    195 H195       -0.9405  -26.3674  -47.6991 H         1 UNK         0.3000 
    196 H196       -3.4179  -26.9604  -48.9907 H         1 UNK         0.0600 
    197 H197       -1.9477  -27.4456  -50.9527 H         1 UNK         0.0600 
    198 H198       -1.3114  -28.1733  -49.4865 H         1 UNK         0.0600 
    199 H199       -0.5820  -26.7012  -50.1300 H         1 UNK         0.0600 
    200 H200       -1.4171  -24.0559  -48.9513 H         1 UNK         0.3000 
    201 H201       -2.8136  -22.7807  -51.2101 H         1 UNK         0.0600 
    202 H202       -0.3554  -22.3426  -50.7484 H         1 UNK         0.0600 
    203 H203       -0.8090  -21.5705  -49.2322 H         1 UNK         0.0600 
    204 H204       -1.3355  -20.8875  -50.7571 H         1 UNK         0.0600 
    205 H205       -2.4991  -22.4292  -47.6474 H         1 UNK         0.3000 
    206 H206       -4.2350  -20.3050  -47.2430 H         1 UNK         0.0600 
    207 H207       -2.6241  -21.1645  -45.5686 H         1 UNK         0.0600 
    208 H208       -4.2330  -21.0680  -44.8678 H         1 UNK         0.0600 
    209 H209       -3.5796  -22.6285  -45.3559 H         1 UNK         0.0600 
    210 H210       -5.0469  -23.7986  -47.2858 H         1 UNK         0.3000 
    211 H211       -7.7648  -23.6007  -46.5421 H         1 UNK         0.0600 
    212 H212       -6.3159  -25.6607  -48.2903 H         1 UNK         0.0600 
    213 H213       -7.9091  -25.8883  -47.5754 H         1 UNK         0.0600 
    214 H214       -6.5021  -25.7243  -46.5380 H         1 UNK         0.0600 
    215 H215       -6.2513  -22.7593  -49.5669 H         1 UNK         0.3000 
    216 H216       -8.8585  -22.6141  -51.0209 H         1 UNK         0.0600 
    217 H217       -7.4195  -22.5763  -53.0410 H         1 UNK         0.0600 
    218 H218       -7.0454  -23.9914  -52.0709 H         1 UNK         0.0600 
    219 H219       -5.9694  -22.5968  -52.0403 H         1 UNK         0.0600 
    220 H220       -7.1732  -20.6809  -49.0076 H         1 UNK         0.3000 
    221 H221       -6.7432  -18.5358  -48.6936 H         1 UNK         0.0600 
    222 H222       -8.9398  -17.9674  -50.7557 H         1 UNK         0.0600 
    223 H223       -9.2096  -18.2985  -49.0452 H         1 UNK         0.0600 
    224 H224       -8.3399  -16.8540  -49.5350 H         1 UNK         0.0600 
    225 H225       -5.0331  -19.8462  -50.3672 H         1 UNK         0.3000 
    226 H226       -3.1859  -19.5817  -51.4658 H         1 UNK         0.0600 
    227 H227       -2.8794  -17.3220  -50.4908 H         1 UNK         0.0600 
    228 H228       -3.7668  -16.6029  -51.8358 H         1 UNK         0.0600 
    229 H229       -2.2388  -17.4087  -52.1246 H         1 UNK         0.0600 
    230 H230       -6.1773  -19.2478  -52.9422 H         1 UNK         0.3000 
    231 H231       -5.4922  -18.5882  -55.5949 H         1 UNK         0.0600 
    232 H232       -7.8130  -18.5531  -54.6346 H         1 UNK         0.0600 
    233 H233       -7.8255  -20.3172  -54.6238 H         1 UNK         0.0600 
    234 H234       -7.7330  -19.4456  -56.1464 H         1 UNK         0.0600 
    235 H235       -5.0882  -21.6192  -53.9177 H         1 UNK         0.3000 
    236 H236       -4.7999  -23.2734  -56.3109 H         1 UNK         0.0600 
    237 H237       -4.1949  -25.0310  -54.6341 H         1 UNK         0.0600 
    238 H238       -4.2366  -23.8325  -53.3494 H         1 UNK         0.0600 
    239 H239       -5.7086  -24.2465  -54.2350 H         1 UNK         0.0600 
    240 H240       -2.7302  -21.0061  -54.8035 H         1 UNK         0.3000 
    241 H241       -0.3083  -22.3387  -55.8989 H         1 UNK         0.0600 
    242 H242       -0.8115  -18.3010  -56.2509 H         1 UNK         0.3800 
    243 H243       -1.9232  -19.1514  -55.2077 H         1 UNK         0.3800 
    244 H244       -0.1822  -20.8291  -53.2592 H         1 UNK         0.0800 
    245 H245       -0.6705  -22.4901  -53.2823 H         1 UNK         0.0800 
    246 H246        2.2913  -20.0768  -54.2444 H         1 UNK         0.0800 
    247 H247        3.6272  -21.0706  -53.7297 H         1 UNK         0.0800 
@<TRIPOS>BOND
     1    1    2 1    
     2    1  127 1    
     3    1  128 1    
     4    1  129 1    
     5    2    3 2    
     6    2    4 am   BACKBONE|DICT|INTERRES
     7    4    5 1    
     8    4  130 1    
     9    5    6 1    
    10    5   65 1    
    11    5  131 1    
    12    6    7 1    
    13    6  132 1    
    14    6  133 1    
    15    7    8 1    
    16    8    9 1    
    17    8  134 1    
    18    8  135 1    
    19    9   10 ar   
    20    9   14 ar   
    21   10   11 ar   
    22   10  136 1    
    23   11   12 ar   
    24   11  126 1    
    25   12   13 ar   
    26   12  137 1    
    27   13   14 ar   
    28   13   15 1    
    29   14  138 1    
    30   15   16 1    
    31   15  139 1    
    32   15  140 1    
    33   16   17 1    
    34   17   18 1    
    35   17  141 1    
    36   17  142 1    
    37   18   19 1    
    38   18   67 1    
    39   18  143 1    
    40   19   20 am   BACKBONE|DICT|INTERRES
    41   19  144 1    
    42   20   21 2    
    43   20   22 1    
    44   22   23 1    
    45   22   24 1    
    46   22  145 1    
    47   23  146 1    
    48   23  147 1    
    49   23  148 1    
    50   24   25 am   BACKBONE|DICT|INTERRES
    51   24  149 1    
    52   25   26 2    
    53   25   27 1    
    54   27   28 1    
    55   27   29 1    
    56   27  150 1    
    57   28  151 1    
    58   28  152 1    
    59   28  153 1    
    60   29   30 am   BACKBONE|DICT|INTERRES
    61   29  154 1    
    62   30   31 2    
    63   30   32 1    
    64   32   33 1    
    65   32   34 1    
    66   32  155 1    
    67   33  156 1    
    68   33  157 1    
    69   33  158 1    
    70   34   35 am   BACKBONE|DICT|INTERRES
    71   34  159 1    
    72   35   36 2    
    73   35   37 1    
    74   37   38 1    
    75   37   39 1    
    76   37  160 1    
    77   38  161 1    
    78   38  162 1    
    79   38  163 1    
    80   39   40 am   BACKBONE|DICT|INTERRES
    81   39  164 1    
    82   40   41 2    
    83   40   42 1    
    84   42   43 1    
    85   42   44 1    
    86   42  165 1    
    87   43  166 1    
    88   43  167 1    
    89   43  168 1    
    90   44   45 am   BACKBONE|DICT|INTERRES
    91   44  169 1    
    92   45   46 2    
    93   45   47 1    
    94   47   48 1    
    95   47   49 1    
    96   47  170 1    
    97   48  171 1    
    98   48  172 1    
    99   48  173 1    
   100   49   50 am   BACKBONE|DICT|INTERRES
   101   49  174 1    
   102   50   51 2    
   103   50   52 1    
   104   52   53 1    
   105   52   54 1    
   106   52  175 1    
   107   53  176 1    
   108   53  177 1    
   109   53  178 1    
   110   54   55 am   BACKBONE|DICT|INTERRES
   111   54  179 1    
   112   55   56 2    
   113   55   57 1    
   114   57   58 1    
   115   57   59 1    
   116   57  180 1    
   117   58  181 1    
   118   58  182 1    
   119   58  183 1    
   120   59   60 am   BACKBONE|DICT|INTERRES
   121   59  184 1    
   122   60   61 2    
   123   60   62 1    
   124   62   63 1    
   125   62   64 1    
   126   62  185 1    
   127   63  186 1    
   128   63  187 1    
   129   63  188 1    
   130   64   65 am   BACKBONE|DICT|INTERRES
   131   64  189 1    
   132   65   66 2    
   133   67   68 2    
   134   67   69 am   BACKBONE|DICT|INTERRES
   135   69   70 1    
   136   69  190 1    
   137   70   71 1    
   138   70   72 1    
   139   70  191 1    
   140   71  192 1    
   141   71  193 1    
   142   71  194 1    
   143   72   73 2    
   144   72   74 am   BACKBONE|DICT|INTERRES
   145   74   75 1    
   146   74  195 1    
   147   75   76 1    
   148   75   77 1    
   149   75  196 1    
   150   76  197 1    
   151   76  198 1    
   152   76  199 1    
   153   77   78 2    
   154   77   79 am   BACKBONE|DICT|INTERRES
   155   79   80 1    
   156   79  200 1    
   157   80   81 1    
   158   80   82 1    
   159   80  201 1    
   160   81  202 1    
   161   81  203 1    
   162   81  204 1    
   163   82   83 2    
   164   82   84 am   BACKBONE|DICT|INTERRES
   165   84   85 1    
   166   84  205 1    
   167   85   86 1    
   168   85   87 1    
   169   85  206 1    
   170   86  207 1    
   171   86  208 1    
   172   86  209 1    
   173   87   88 2    
   174   87   89 am   BACKBONE|DICT|INTERRES
   175   89   90 1    
   176   89  210 1    
   177   90   91 1    
   178   90   92 1    
   179   90  211 1    
   180   91  212 1    
   181   91  213 1    
   182   91  214 1    
   183   92   93 2    
   184   92   94 am   BACKBONE|DICT|INTERRES
   185   94   95 1    
   186   94  215 1    
   187   95   96 1    
   188   95   97 1    
   189   95  216 1    
   190   96  217 1    
   191   96  218 1    
   192   96  219 1    
   193   97   98 2    
   194   97   99 am   BACKBONE|DICT|INTERRES
   195   99  100 1    
   196   99  220 1    
   197  100  101 1    
   198  100  102 1    
   199  100  221 1    
   200  101  222 1    
   201  101  223 1    
   202  101  224 1    
   203  102  103 2    
   204  102  104 am   BACKBONE|DICT|INTERRES
   205  104  105 1    
   206  104  225 1    
   207  105  106 1    
   208  105  107 1    
   209  105  226 1    
   210  106  227 1    
   211  106  228 1    
   212  106  229 1    
   213  107  108 2    
   214  107  109 am   BACKBONE|DICT|INTERRES
   215  109  110 1    
   216  109  230 1    
   217  110  111 1    
   218  110  112 1    
   219  110  231 1    
   220  111  232 1    
   221  111  233 1    
   222  111  234 1    
   223  112  113 2    
   224  112  114 am   BACKBONE|DICT|INTERRES
   225  114  115 1    
   226  114  235 1    
   227  115  116 1    
   228  115  117 1    
   229  115  236 1    
   230  116  237 1    
   231  116  238 1    
   232  116  239 1    
   233  117  118 2    
   234  117  119 am   BACKBONE|DICT|INTERRES
   235  119  120 1    
   236  119  240 1    
   237  120  121 1    
   238  120  124 1    
   239  120  241 1    
   240  121  122 am   BACKBONE|DICT|INTERRES
   241  121  123 2    
   242  122  242 1    
   243  122  243 1    
   244  124  125 1    
   245  124  244 1    
   246  124  245 1    
   247  125  126 1    
   248  126  246 1    
   249  126  247 1    
@<TRIPOS>SUBSTRUCTURE
     1 UNK         1 GROUP             0       ****    0 ROOT    
