@<TRIPOS>MOLECULE
3R540
247   249    1
SMALL
USER_CHARGES


@<TRIPOS>ATOM
      1 CA          2.8995  -10.2629  -49.9735 C.3       0 UNK        -0.1800 
      2 C           1.9664  -11.3772  -49.5222 C.2       0 UNK         0.5000 
      3 O           0.8425  -11.1005  -49.1015 O.2       0 UNK        -0.5000 
      4 N           2.4294  -12.6324  -49.6024 N.am      1 UNK        -0.5000 
      5 CA          1.7394  -13.8710  -49.2149 C.3       1 UNK         0.1400 
      6 C6          0.3827  -14.0750  -49.9469 C.3       23 UNK        -0.0398 
      7 S7         -0.1552  -15.8160  -49.9773 S.3       23 UNK        -0.2404 
      8 C8          0.5845  -16.4012  -51.5295 C.3       23 UNK        -0.0205 
      9 C9          0.7817  -17.9072  -51.4907 C.ar      23 UNK        -0.0193 
     10 C10        -0.1239  -18.7652  -52.1195 C.ar      23 UNK        -0.1150 
     11 C11         0.0682  -20.1502  -52.0818 C.ar      23 UNK        -0.0193 
     12 C12         1.1739  -20.6734  -51.4046 C.ar      23 UNK        -0.1150 
     13 C13         2.0836  -19.8237  -50.7655 C.ar      23 UNK        -0.0193 
     14 C14         1.8813  -18.4426  -50.8165 C.ar      23 UNK        -0.1150 
     15 C15         3.2984  -20.3769  -50.0305 C.3       23 UNK        -0.0205 
     16 S16         2.8982  -21.6916  -48.8354 S.3       23 UNK        -0.2404 
     17 C17         1.7103  -20.8698  -47.7154 C.3       23 UNK        -0.0398 
     18 CA          0.7317  -21.8926  -47.0933 C.3       11 UNK         0.1400 
     19 N           0.1556  -21.4293  -45.8307 N.am      11 UNK        -0.5000 
     20 C          -0.4374  -22.2430  -44.9449 C.2       10 UNK         0.5000 
     21 O          -0.5551  -23.4584  -45.1077 O.2       10 UNK        -0.5000 
     22 CA         -1.0379  -21.5862  -43.6892 C.3       10 UNK         0.1400 
     23 CB          0.0639  -21.1604  -42.7077 C.3       10 UNK        -0.1800 
     24 N          -1.8837  -20.4373  -44.0087 N.am      10 UNK        -0.5000 
     25 C          -3.0024  -20.5028  -44.7451 C.2       9 UNK         0.5000 
     26 O          -3.4556  -21.5445  -45.2179 O.2       9 UNK        -0.5000 
     27 CA         -3.7116  -19.1714  -45.0372 C.3       9 UNK         0.1400 
     28 CB         -4.5926  -18.7508  -43.8515 C.3       9 UNK        -0.1800 
     29 N          -2.7688  -18.0994  -45.3503 N.am      9 UNK        -0.5000 
     30 C          -1.9820  -18.0713  -46.4351 C.2       8 UNK         0.5000 
     31 O          -1.9520  -18.9537  -47.2896 O.2       8 UNK        -0.5000 
     32 CA         -1.0329  -16.8711  -46.5505 C.3       8 UNK         0.1400 
     33 CB         -1.8278  -15.5864  -46.8390 C.3       8 UNK        -0.1800 
     34 N          -0.2320  -16.6928  -45.3430 N.am      8 UNK        -0.5000 
     35 C           0.6387  -17.5892  -44.8557 C.2       7 UNK         0.5000 
     36 O           0.9018  -18.6631  -45.3963 O.2       7 UNK        -0.5000 
     37 CA          1.2807  -17.2506  -43.4985 C.3       7 UNK         0.1400 
     38 CB          2.6081  -16.5033  -43.6974 C.3       7 UNK        -0.1800 
     39 N           0.4107  -16.4558  -42.6305 N.am      7 UNK        -0.5000 
     40 C          -0.7983  -16.8089  -42.1767 C.2       6 UNK         0.5000 
     41 O          -1.3376  -17.8834  -42.4517 O.2       6 UNK        -0.5000 
     42 CA         -1.5188  -15.7686  -41.2876 C.3       6 UNK         0.1400 
     43 CB         -2.8704  -16.2816  -40.7597 C.3       6 UNK        -0.1800 
     44 N          -0.7088  -15.3180  -40.1503 N.am      6 UNK        -0.5000 
     45 C           0.3613  -14.5145  -40.2063 C.2       5 UNK         0.5000 
     46 O           0.8132  -14.0528  -41.2617 O.2       5 UNK        -0.5000 
     47 CA          1.0584  -14.2200  -38.8660 C.3       5 UNK         0.1400 
     48 CB          1.7544  -15.4821  -38.3289 C.3       5 UNK        -0.1800 
     49 N           2.0702  -13.1908  -39.0719 N.am      5 UNK        -0.5000 
     50 C           2.0595  -11.9512  -38.5692 C.2       4 UNK         0.5000 
     51 O           1.2537  -11.5547  -37.7264 O.2       4 UNK        -0.5000 
     52 CA          3.1280  -10.9834  -39.1234 C.3       4 UNK         0.1400 
     53 CB          4.3260  -10.8965  -38.1652 C.3       4 UNK        -0.1800 
     54 N           3.6075  -11.3755  -40.4543 N.am      4 UNK        -0.5000 
     55 C           2.8715  -11.3096  -41.5727 C.2       3 UNK         0.5000 
     56 O           1.7617  -10.7729  -41.6194 O.2       3 UNK        -0.5000 
     57 CA          3.4516  -11.9703  -42.8373 C.3       3 UNK         0.1400 
     58 CB          4.4462  -13.1128  -42.5437 C.3       3 UNK        -0.1800 
     59 N           2.3468  -12.5015  -43.6303 N.am      3 UNK        -0.5000 
     60 C           2.2104  -12.3637  -44.9521 C.2       2 UNK         0.5000 
     61 O           3.0334  -11.7901  -45.6712 O.2       2 UNK        -0.5000 
     62 CA          0.9201  -12.9472  -45.5583 C.3       2 UNK         0.1400 
     63 CB         -0.2959  -12.0759  -45.2060 C.3       2 UNK        -0.1800 
     64 N           1.0113  -13.0524  -47.0127 N.am      2 UNK        -0.5000 
     65 C           1.6368  -14.0287  -47.6800 C.2       1 UNK         0.5000 
     66 O           2.1451  -15.0082  -47.1334 O.2       1 UNK        -0.5000 
     67 C          -0.3528  -22.3593  -48.0864 C.2       11 UNK         0.5000 
     68 O          -0.1578  -23.3799  -48.7445 O.2       11 UNK        -0.5000 
     69 N          -1.4987  -21.6629  -48.1398 N.am      12 UNK        -0.5000 
     70 CA         -2.6517  -22.0536  -48.9523 C.3       12 UNK         0.1400 
     71 CB         -3.7281  -20.9643  -48.9064 C.3       12 UNK        -0.1800 
     72 C          -3.2522  -23.4069  -48.5408 C.2       12 UNK         0.5000 
     73 O          -3.6445  -24.1768  -49.4182 O.2       12 UNK        -0.5000 
     74 N          -3.2989  -23.6818  -47.2308 N.am      13 UNK        -0.5000 
     75 CA         -3.7134  -24.9685  -46.6763 C.3       13 UNK         0.1400 
     76 CB         -3.9399  -24.8349  -45.1631 C.3       13 UNK        -0.1800 
     77 C          -2.7005  -26.0845  -46.9866 C.2       13 UNK         0.5000 
     78 O          -3.1105  -27.1718  -47.3922 O.2       13 UNK        -0.5000 
     79 N          -1.4016  -25.7883  -46.8288 N.am      14 UNK        -0.5000 
     80 CA         -0.2959  -26.7071  -47.1163 C.3       14 UNK         0.1400 
     81 CB          1.0224  -26.0982  -46.6155 C.3       14 UNK        -0.1800 
     82 C          -0.1912  -27.0817  -48.6075 C.2       14 UNK         0.5000 
     83 O           0.0363  -28.2487  -48.9283 O.2       14 UNK        -0.5000 
     84 N          -0.3899  -26.0929  -49.4889 N.am      15 UNK        -0.5000 
     85 CA         -0.4250  -26.2541  -50.9440 C.3       15 UNK         0.1400 
     86 CB         -0.2429  -24.8725  -51.5943 C.3       15 UNK        -0.1800 
     87 C          -1.7237  -26.9075  -51.4582 C.2       15 UNK         0.5000 
     88 O          -1.7655  -27.3217  -52.6171 O.2       15 UNK        -0.5000 
     89 N          -2.7605  -26.9538  -50.6071 N.am      16 UNK        -0.5000 
     90 CA         -4.1358  -27.3819  -50.8889 C.3       16 UNK         0.1400 
     91 CB         -4.1919  -28.8772  -51.2638 C.3       16 UNK        -0.1800 
     92 C          -4.8508  -26.4702  -51.9113 C.2       16 UNK         0.5000 
     93 O          -5.7551  -26.9175  -52.6186 O.2       16 UNK        -0.5000 
     94 N          -4.4364  -25.1976  -51.9554 N.am      17 UNK        -0.5000 
     95 CA         -5.0289  -24.1411  -52.7710 C.3       17 UNK         0.1400 
     96 CB         -3.9579  -23.0779  -53.0613 C.3       17 UNK        -0.1800 
     97 C          -6.2398  -23.5008  -52.0707 C.2       17 UNK         0.5000 
     98 O          -7.1447  -23.0223  -52.7546 O.2       17 UNK        -0.5000 
     99 N          -6.2215  -23.4926  -50.7269 N.am      18 UNK        -0.5000 
    100 CA        -7.2341  -23.0130  -49.7732 C.3       18 UNK         0.1400 
    101 CB        -8.5410  -23.8163  -49.9050 C.3       18 UNK        -0.1800 
    102 C         -7.5100  -21.4955  -49.8146 C.2       18 UNK         0.5000 
    103 O         -7.4856  -20.8458  -48.7701 O.2       18 UNK        -0.5000 
    104 N         -7.7394  -20.9556  -51.0149 N.am      19 UNK        -0.5000 
    105 CA        -8.0184  -19.5450  -51.2947 C.3       19 UNK         0.1400 
    106 CB        -9.0587  -19.4817  -52.4264 C.3       19 UNK        -0.1800 
    107 C         -6.7487  -18.7504  -51.6685 C.2       19 UNK         0.5000 
    108 O         -6.8623  -17.6056  -52.1072 O.2       19 UNK        -0.5000 
    109 N         -5.5717  -19.3799  -51.5235 N.am      20 UNK        -0.5000 
    110 CA        -4.2402  -18.8919  -51.9104 C.3       20 UNK         0.1400 
    111 CB        -3.8508  -17.6166  -51.1328 C.3       20 UNK        -0.1800 
    112 C         -4.0754  -18.7480  -53.4389 C.2       20 UNK         0.5000 
    113 O         -3.2715  -17.9414  -53.9076 O.2       20 UNK        -0.5000 
    114 N         -4.8131  -19.5726  -54.1939 N.am      21 UNK        -0.5000 
    115 CA        -4.8717  -19.6097  -55.6563 C.3       21 UNK         0.1400 
    116 CB        -6.1976  -20.2796  -56.0622 C.3       21 UNK        -0.1800 
    117 C         -3.6417  -20.2760  -56.3187 C.2       21 UNK         0.5000 
    118 O         -3.7994  -21.0787  -57.2404 O.2       21 UNK        -0.5000 
    119 N         -2.4379  -19.9266  -55.8512 N.am      22 UNK        -0.5000 
    120 CA        -1.1520  -20.3347  -56.4461 C.3       22 UNK         0.1400 
    121 C         -0.7001  -19.4324  -57.6336 C.2       22 UNK         0.5000 
    122 N         -1.3575  -18.3137  -57.9170 N.am      22 UNK        -0.7600 
    123 O          0.2612  -19.7610  -58.3234 O.2       22 UNK        -0.5000 
    124 C124       -0.0317  -20.4457  -55.3798 C.3       23 UNK        -0.0398 
    125 S125       -0.2641  -21.8658  -54.2556 S.3       23 UNK        -0.2404 
    126 C126       -0.9272  -21.0831  -52.7547 C.3       23 UNK        -0.0205 
    127 H127        2.4390   -9.6913  -50.7792 H         1 UNK         0.0600 
    128 H128        3.8523  -10.6517  -50.3337 H         1 UNK         0.0600 
    129 H129        3.1005   -9.5848  -49.1441 H         1 UNK         0.0600 
    130 H130        3.3749  -12.7690  -49.9324 H         1 UNK         0.3000 
    131 H131        2.4088  -14.6632  -49.5549 H         1 UNK         0.0600 
    132 H132       -0.4064  -13.4774  -49.4879 H         1 UNK         0.0800 
    133 H133        0.4552  -13.7240  -50.9772 H         1 UNK         0.0800 
    134 H134       -0.0531  -16.1133  -52.3669 H         1 UNK         0.0800 
    135 H135        1.5486  -15.9165  -51.6906 H         1 UNK         0.0800 
    136 H136       -0.9752  -18.3518  -52.6400 H         1 UNK         0.1150 
    137 H137        1.3232  -21.7438  -51.3722 H         1 UNK         0.1150 
    138 H138        2.5782  -17.7768  -50.3267 H         1 UNK         0.1150 
    139 H139        3.9987  -20.7741  -50.7662 H         1 UNK         0.0800 
    140 H140        3.8264  -19.5820  -49.5015 H         1 UNK         0.0800 
    141 H141        1.1692  -20.0689  -48.2220 H         1 UNK         0.0800 
    142 H142        2.2975  -20.3882  -46.9327 H         1 UNK         0.0800 
    143 H143        1.3191  -22.7776  -46.8387 H         1 UNK         0.0600 
    144 H144        0.2298  -20.4343  -45.6339 H         1 UNK         0.3000 
    145 H145       -1.6650  -22.3296  -43.1927 H         1 UNK         0.0600 
    146 H146       -0.3595  -20.7210  -41.8042 H         1 UNK         0.0600 
    147 H147        0.6660  -22.0173  -42.4035 H         1 UNK         0.0600 
    148 H148        0.7376  -20.4283  -43.1517 H         1 UNK         0.0600 
    149 H149       -1.6022  -19.5378  -43.6320 H         1 UNK         0.3000 
    150 H150       -4.3560  -19.3177  -45.9065 H         1 UNK         0.0600 
    151 H151       -5.3344  -19.5185  -43.6275 H         1 UNK         0.0600 
    152 H152       -5.1338  -17.8296  -44.0677 H         1 UNK         0.0600 
    153 H153       -4.0039  -18.5915  -42.9476 H         1 UNK         0.0600 
    154 H154       -2.6791  -17.3639  -44.6659 H         1 UNK         0.3000 
    155 H155       -0.3488  -17.0619  -47.3786 H         1 UNK         0.0600 
    156 H156       -2.4802  -15.3123  -46.0093 H         1 UNK         0.0600 
    157 H157       -1.1663  -14.7451  -47.0328 H         1 UNK         0.0600 
    158 H158       -2.4550  -15.7083  -47.7233 H         1 UNK         0.0600 
    159 H159       -0.3901  -15.8517  -44.8119 H         1 UNK         0.3000 
    160 H160        1.4903  -18.1899  -42.9845 H         1 UNK         0.0600 
    161 H161        2.4616  -15.5431  -44.1926 H         1 UNK         0.0600 
    162 H162        3.2947  -17.0858  -44.3130 H         1 UNK         0.0600 
    163 H163        3.1039  -16.3168  -42.7447 H         1 UNK         0.0600 
    164 H164        0.7702  -15.5584  -42.3159 H         1 UNK         0.3000 
    165 H165       -1.7218  -14.9026  -41.9211 H         1 UNK         0.0600 
    166 H166       -3.3814  -15.5177  -40.1735 H         1 UNK         0.0600 
    167 H167       -3.5348  -16.5528  -41.5809 H         1 UNK         0.0600 
    168 H168       -2.7480  -17.1634  -40.1296 H         1 UNK         0.0600 
    169 H169       -0.9866  -15.6804  -39.2496 H         1 UNK         0.3000 
    170 H170        0.3042  -13.8878  -38.1498 H         1 UNK         0.0600 
    171 H171        2.4783  -15.8783  -39.0425 H         1 UNK         0.0600 
    172 H172        2.2838  -15.2717  -37.3994 H         1 UNK         0.0600 
    173 H173        1.0348  -16.2735  -38.1167 H         1 UNK         0.0600 
    174 H174        2.7291  -13.3854  -39.8110 H         1 UNK         0.3000 
    175 H175        2.6735   -9.9931  -39.1959 H         1 UNK         0.0600 
    176 H176        5.0602  -10.1711  -38.5160 H         1 UNK         0.0600 
    177 H177        4.8276  -11.8592  -38.0586 H         1 UNK         0.0600 
    178 H178        4.0079  -10.5803  -37.1708 H         1 UNK         0.0600 
    179 H179        4.5189  -11.8085  -40.4957 H         1 UNK         0.3000 
    180 H180        3.9718  -11.1834  -43.3870 H         1 UNK         0.0600 
    181 H181        3.9984  -13.8862  -41.9181 H         1 UNK         0.0600 
    182 H182        5.3422  -12.7471  -42.0413 H         1 UNK         0.0600 
    183 H183        4.7756  -13.5887  -43.4677 H         1 UNK         0.0600 
    184 H184        1.5972  -12.9096  -43.0835 H         1 UNK         0.3000 
    185 H185        0.7664  -13.9430  -45.1396 H         1 UNK         0.0600 
    186 H186       -0.4290  -12.0000  -44.1260 H         1 UNK         0.0600 
    187 H187       -0.1891  -11.0627  -45.5958 H         1 UNK         0.0600 
    188 H188       -1.2144  -12.4967  -45.6155 H         1 UNK         0.0600 
    189 H189        0.7145  -12.2426  -47.5492 H         1 UNK         0.3000 
    190 H190       -1.5909  -20.8001  -47.6095 H         1 UNK         0.3000 
    191 H191       -2.3090  -22.1476  -49.9834 H         1 UNK         0.0600 
    192 H192       -3.3373  -20.0104  -49.2568 H         1 UNK         0.0600 
    193 H193       -4.5713  -21.2268  -49.5426 H         1 UNK         0.0600 
    194 H194       -4.1119  -20.8175  -47.8966 H         1 UNK         0.0600 
    195 H195       -3.0270  -22.9646  -46.5653 H         1 UNK         0.3000 
    196 H196       -4.6649  -25.2446  -47.1359 H         1 UNK         0.0600 
    197 H197       -4.2563  -25.7843  -44.7295 H         1 UNK         0.0600 
    198 H198       -4.7178  -24.1027  -44.9462 H         1 UNK         0.0600 
    199 H199       -3.0339  -24.5211  -44.6441 H         1 UNK         0.0600 
    200 H200       -1.1505  -24.8781  -46.4563 H         1 UNK         0.3000 
    201 H201       -0.4772  -27.6268  -46.5563 H         1 UNK         0.0600 
    202 H202        0.9756  -25.8763  -45.5492 H         1 UNK         0.0600 
    203 H203        1.2632  -25.1736  -47.1401 H         1 UNK         0.0600 
    204 H204        1.8534  -26.7876  -46.7689 H         1 UNK         0.0600 
    205 H205       -0.4897  -25.1410  -49.1402 H         1 UNK         0.3000 
    206 H206        0.4094  -26.8906  -51.2450 H         1 UNK         0.0600 
    207 H207        0.6941  -24.4088  -51.2851 H         1 UNK         0.0600 
    208 H208       -0.2250  -24.9458  -52.6825 H         1 UNK         0.0600 
    209 H209       -1.0550  -24.1964  -51.3249 H         1 UNK         0.0600 
    210 H210       -2.6105  -26.5854  -49.6772 H         1 UNK         0.3000 
    211 H211       -4.6804  -27.2602  -49.9515 H         1 UNK         0.0600 
    212 H212       -3.7392  -29.0708  -52.2364 H         1 UNK         0.0600 
    213 H213       -5.2229  -29.2296  -51.3091 H         1 UNK         0.0600 
    214 H214       -3.6740  -29.4876  -50.5239 H         1 UNK         0.0600 
    215 H215       -3.7436  -24.9120  -51.2724 H         1 UNK         0.3000 
    216 H216       -5.3647  -24.5623  -53.7210 H         1 UNK         0.0600 
    217 H217       -4.3377  -22.3216  -53.7476 H         1 UNK         0.0600 
    218 H218       -3.0778  -23.5211  -53.5282 H         1 UNK         0.0600 
    219 H219       -3.6346  -22.5707  -52.1520 H         1 UNK         0.0600 
    220 H220       -5.3961  -23.8907  -50.2896 H         1 UNK         0.3000 
    221 H221       -6.8227  -23.2246  -48.7846 H         1 UNK         0.0600 
    222 H222       -9.0183  -23.6650  -50.8736 H         1 UNK         0.0600 
    223 H223       -8.3590  -24.8844  -49.7853 H         1 UNK         0.0600 
    224 H224       -9.2587  -23.5210  -49.1388 H         1 UNK         0.0600 
    225 H225       -7.7107  -21.5855  -51.8153 H         1 UNK         0.3000 
    226 H226       -8.4479  -19.0721  -50.4093 H         1 UNK         0.0600 
    227 H227       -9.9643  -20.0264  -52.1588 H         1 UNK         0.0600 
    228 H228       -9.3532  -18.4528  -52.6369 H         1 UNK         0.0600 
    229 H229       -8.6717  -19.9100  -53.3520 H         1 UNK         0.0600 
    230 H230       -5.6088  -20.3135  -51.1439 H         1 UNK         0.3000 
    231 H231       -3.5404  -19.6727  -51.6140 H         1 UNK         0.0600 
    232 H232       -4.4376  -16.7531  -51.4461 H         1 UNK         0.0600 
    233 H233       -2.8008  -17.3672  -51.2891 H         1 UNK         0.0600 
    234 H234       -3.9924  -17.7471  -50.0600 H         1 UNK         0.0600 
    235 H235       -5.4327  -20.2104  -53.7187 H         1 UNK         0.3000 
    236 H236       -4.8996  -18.5803  -56.0192 H         1 UNK         0.0600 
    237 H237       -7.0516  -19.7607  -55.6260 H         1 UNK         0.0600 
    238 H238       -6.3330  -20.2644  -57.1444 H         1 UNK         0.0600 
    239 H239       -6.2371  -21.3207  -55.7386 H         1 UNK         0.0600 
    240 H240       -2.4035  -19.2266  -55.1179 H         1 UNK         0.3000 
    241 H241       -1.2783  -21.3284  -56.8804 H         1 UNK         0.0600 
    242 H242       -2.1458  -18.0232  -57.3618 H         1 UNK         0.3800 
    243 H243       -1.0555  -17.7453  -58.6930 H         1 UNK         0.3800 
    244 H244        0.9392  -20.5955  -55.8555 H         1 UNK         0.0800 
    245 H245        0.0568  -19.5161  -54.8181 H         1 UNK         0.0800 
    246 H246       -1.8449  -20.5587  -53.0116 H         1 UNK         0.0800 
    247 H247       -1.2060  -21.8670  -52.0517 H         1 UNK         0.0800 
@<TRIPOS>BOND
     1    1    2 1    
     2    1  127 1    
     3    1  128 1    
     4    1  129 1    
     5    2    3 2    
     6    2    4 am   BACKBONE|DICT|INTERRES
     7    4    5 1    
     8    4  130 1    
     9    5    6 1    
    10    5   65 1    
    11    5  131 1    
    12    6    7 1    
    13    6  132 1    
    14    6  133 1    
    15    7    8 1    
    16    8    9 1    
    17    8  134 1    
    18    8  135 1    
    19    9   10 ar   
    20    9   14 ar   
    21   10   11 ar   
    22   10  136 1    
    23   11   12 ar   
    24   11  126 1    
    25   12   13 ar   
    26   12  137 1    
    27   13   14 ar   
    28   13   15 1    
    29   14  138 1    
    30   15   16 1    
    31   15  139 1    
    32   15  140 1    
    33   16   17 1    
    34   17   18 1    
    35   17  141 1    
    36   17  142 1    
    37   18   19 1    
    38   18   67 1    
    39   18  143 1    
    40   19   20 am   BACKBONE|DICT|INTERRES
    41   19  144 1    
    42   20   21 2    
    43   20   22 1    
    44   22   23 1    
    45   22   24 1    
    46   22  145 1    
    47   23  146 1    
    48   23  147 1    
    49   23  148 1    
    50   24   25 am   BACKBONE|DICT|INTERRES
    51   24  149 1    
    52   25   26 2    
    53   25   27 1    
    54   27   28 1    
    55   27   29 1    
    56   27  150 1    
    57   28  151 1    
    58   28  152 1    
    59   28  153 1    
    60   29   30 am   BACKBONE|DICT|INTERRES
    61   29  154 1    
    62   30   31 2    
    63   30   32 1    
    64   32   33 1    
    65   32   34 1    
    66   32  155 1    
    67   33  156 1    
    68   33  157 1    
    69   33  158 1    
    70   34   35 am   BACKBONE|DICT|INTERRES
    71   34  159 1    
    72   35   36 2    
    73   35   37 1    
    74   37   38 1    
    75   37   39 1    
    76   37  160 1    
    77   38  161 1    
    78   38  162 1    
    79   38  163 1    
    80   39   40 am   BACKBONE|DICT|INTERRES
    81   39  164 1    
    82   40   41 2    
    83   40   42 1    
    84   42   43 1    
    85   42   44 1    
    86   42  165 1    
    87   43  166 1    
    88   43  167 1    
    89   43  168 1    
    90   44   45 am   BACKBONE|DICT|INTERRES
    91   44  169 1    
    92   45   46 2    
    93   45   47 1    
    94   47   48 1    
    95   47   49 1    
    96   47  170 1    
    97   48  171 1    
    98   48  172 1    
    99   48  173 1    
   100   49   50 am   BACKBONE|DICT|INTERRES
   101   49  174 1    
   102   50   51 2    
   103   50   52 1    
   104   52   53 1    
   105   52   54 1    
   106   52  175 1    
   107   53  176 1    
   108   53  177 1    
   109   53  178 1    
   110   54   55 am   BACKBONE|DICT|INTERRES
   111   54  179 1    
   112   55   56 2    
   113   55   57 1    
   114   57   58 1    
   115   57   59 1    
   116   57  180 1    
   117   58  181 1    
   118   58  182 1    
   119   58  183 1    
   120   59   60 am   BACKBONE|DICT|INTERRES
   121   59  184 1    
   122   60   61 2    
   123   60   62 1    
   124   62   63 1    
   125   62   64 1    
   126   62  185 1    
   127   63  186 1    
   128   63  187 1    
   129   63  188 1    
   130   64   65 am   BACKBONE|DICT|INTERRES
   131   64  189 1    
   132   65   66 2    
   133   67   68 2    
   134   67   69 am   BACKBONE|DICT|INTERRES
   135   69   70 1    
   136   69  190 1    
   137   70   71 1    
   138   70   72 1    
   139   70  191 1    
   140   71  192 1    
   141   71  193 1    
   142   71  194 1    
   143   72   73 2    
   144   72   74 am   BACKBONE|DICT|INTERRES
   145   74   75 1    
   146   74  195 1    
   147   75   76 1    
   148   75   77 1    
   149   75  196 1    
   150   76  197 1    
   151   76  198 1    
   152   76  199 1    
   153   77   78 2    
   154   77   79 am   BACKBONE|DICT|INTERRES
   155   79   80 1    
   156   79  200 1    
   157   80   81 1    
   158   80   82 1    
   159   80  201 1    
   160   81  202 1    
   161   81  203 1    
   162   81  204 1    
   163   82   83 2    
   164   82   84 am   BACKBONE|DICT|INTERRES
   165   84   85 1    
   166   84  205 1    
   167   85   86 1    
   168   85   87 1    
   169   85  206 1    
   170   86  207 1    
   171   86  208 1    
   172   86  209 1    
   173   87   88 2    
   174   87   89 am   BACKBONE|DICT|INTERRES
   175   89   90 1    
   176   89  210 1    
   177   90   91 1    
   178   90   92 1    
   179   90  211 1    
   180   91  212 1    
   181   91  213 1    
   182   91  214 1    
   183   92   93 2    
   184   92   94 am   BACKBONE|DICT|INTERRES
   185   94   95 1    
   186   94  215 1    
   187   95   96 1    
   188   95   97 1    
   189   95  216 1    
   190   96  217 1    
   191   96  218 1    
   192   96  219 1    
   193   97   98 2    
   194   97   99 am   BACKBONE|DICT|INTERRES
   195   99  100 1    
   196   99  220 1    
   197  100  101 1    
   198  100  102 1    
   199  100  221 1    
   200  101  222 1    
   201  101  223 1    
   202  101  224 1    
   203  102  103 2    
   204  102  104 am   BACKBONE|DICT|INTERRES
   205  104  105 1    
   206  104  225 1    
   207  105  106 1    
   208  105  107 1    
   209  105  226 1    
   210  106  227 1    
   211  106  228 1    
   212  106  229 1    
   213  107  108 2    
   214  107  109 am   BACKBONE|DICT|INTERRES
   215  109  110 1    
   216  109  230 1    
   217  110  111 1    
   218  110  112 1    
   219  110  231 1    
   220  111  232 1    
   221  111  233 1    
   222  111  234 1    
   223  112  113 2    
   224  112  114 am   BACKBONE|DICT|INTERRES
   225  114  115 1    
   226  114  235 1    
   227  115  116 1    
   228  115  117 1    
   229  115  236 1    
   230  116  237 1    
   231  116  238 1    
   232  116  239 1    
   233  117  118 2    
   234  117  119 am   BACKBONE|DICT|INTERRES
   235  119  120 1    
   236  119  240 1    
   237  120  121 1    
   238  120  124 1    
   239  120  241 1    
   240  121  122 am   BACKBONE|DICT|INTERRES
   241  121  123 2    
   242  122  242 1    
   243  122  243 1    
   244  124  125 1    
   245  124  244 1    
   246  124  245 1    
   247  125  126 1    
   248  126  246 1    
   249  126  247 1    
@<TRIPOS>SUBSTRUCTURE
     1 UNK         1 GROUP             0       ****    0 ROOT    
