@<TRIPOS>MOLECULE
3R540
247   249    1
SMALL
USER_CHARGES


@<TRIPOS>ATOM
      1 CA          6.3312  -10.6980  -47.3087 C.3       0 UNK        -0.1800 
      2 C           5.1260  -11.3335  -46.6332 C.2       0 UNK         0.5000 
      3 O           4.7339  -10.9055  -45.5472 O.2       0 UNK        -0.5000 
      4 N           4.5173  -12.3384  -47.2772 N.am      1 UNK        -0.5000 
      5 CA          3.3915  -13.1294  -46.7530 C.3       1 UNK         0.1400 
      6 C6          3.1211  -14.4083  -47.5794 C.3       23 UNK        -0.0398 
      7 S7          4.6089  -15.4321  -47.8367 S.3       23 UNK        -0.2404 
      8 C8          4.4682  -15.8209  -49.6081 C.3       23 UNK        -0.0205 
      9 C9          3.4500  -16.9222  -49.8641 C.ar      23 UNK        -0.0193 
     10 C10         2.1138  -16.6132  -50.1394 C.ar      23 UNK        -0.1150 
     11 C11         1.1895  -17.6280  -50.4094 C.ar      23 UNK        -0.0193 
     12 C12         1.6160  -18.9585  -50.4105 C.ar      23 UNK        -0.1150 
     13 C13         2.9418  -19.2830  -50.1062 C.ar      23 UNK        -0.0193 
     14 C14         3.8535  -18.2596  -49.8370 C.ar      23 UNK        -0.1150 
     15 C15         3.3938  -20.7362  -50.0660 C.3       23 UNK        -0.0205 
     16 S16         3.0606  -21.5035  -48.4466 S.3       23 UNK        -0.2404 
     17 C17         1.2478  -21.6598  -48.5219 C.3       23 UNK        -0.0398 
     18 CA          0.6918  -22.7489  -47.5794 C.3       11 UNK         0.1400 
     19 N           0.7447  -22.3561  -46.1685 N.am      11 UNK        -0.5000 
     20 C           0.4073  -23.1559  -45.1462 C.2       10 UNK         0.5000 
     21 O           0.0735  -24.3343  -45.2760 O.2       10 UNK        -0.5000 
     22 CA          0.3798  -22.5171  -43.7478 C.3       10 UNK         0.1400 
     23 CB          1.8012  -22.3727  -43.1839 C.3       10 UNK        -0.1800 
     24 N          -0.3012  -21.2209  -43.7360 N.am      10 UNK        -0.5000 
     25 C          -1.5941  -21.0421  -44.0471 C.2       9 UNK         0.5000 
     26 O          -2.3579  -21.9593  -44.3444 O.2       9 UNK        -0.5000 
     27 CA         -2.1201  -19.5965  -44.0710 C.3       9 UNK         0.1400 
     28 CB         -2.4227  -19.1031  -42.6489 C.3       9 UNK        -0.1800 
     29 N          -1.2058  -18.6674  -44.7333 N.am      9 UNK        -0.5000 
     30 C          -0.8369  -18.7435  -46.0204 C.2       8 UNK         0.5000 
     31 O          -1.2467  -19.5977  -46.8054 O.2       8 UNK        -0.5000 
     32 CA          0.2075  -17.7205  -46.4976 C.3       8 UNK         0.1400 
     33 CB         -0.4488  -16.3582  -46.7732 C.3       8 UNK        -0.1800 
     34 N           1.3036  -17.5680  -45.5405 N.am      8 UNK        -0.5000 
     35 C           2.1469  -18.5539  -45.1986 C.2       7 UNK         0.5000 
     36 O           2.1161  -19.6856  -45.6824 O.2       7 UNK        -0.5000 
     37 CA          3.1465  -18.2367  -44.0749 C.3       7 UNK         0.1400 
     38 CB          4.3213  -17.3993  -44.6021 C.3       7 UNK        -0.1800 
     39 N           2.5011  -17.5449  -42.9576 N.am      7 UNK        -0.5000 
     40 C           1.6307  -18.1305  -42.1200 C.2       6 UNK         0.5000 
     41 O           1.3089  -19.3152  -42.1951 O.2       6 UNK        -0.5000 
     42 CA          0.9792  -17.2503  -41.0352 C.3       6 UNK         0.1400 
     43 CB          1.8361  -17.2475  -39.7609 C.3       6 UNK        -0.1800 
     44 N           0.7515  -15.8712  -41.4621 N.am      6 UNK        -0.5000 
     45 C          -0.0142  -15.4993  -42.4969 C.2       5 UNK         0.5000 
     46 O          -0.6801  -16.2854  -43.1705 O.2       5 UNK        -0.5000 
     47 CA          0.0068  -14.0066  -42.8757 C.3       5 UNK         0.1400 
     48 CB         -1.1986  -13.2783  -42.2645 C.3       5 UNK        -0.1800 
     49 N           1.2346  -13.2949  -42.5007 N.am      5 UNK        -0.5000 
     50 C           2.4807  -13.6166  -42.8747 C.2       4 UNK         0.5000 
     51 O           2.7579  -14.6260  -43.5250 O.2       4 UNK        -0.5000 
     52 CA          3.5890  -12.6318  -42.4549 C.3       4 UNK         0.1400 
     53 CB          4.9990  -13.1342  -42.8150 C.3       4 UNK        -0.1800 
     54 N           3.3808  -11.3224  -43.0713 N.am      4 UNK        -0.5000 
     55 C           2.5417  -10.3767  -42.6272 C.2       3 UNK         0.5000 
     56 O           1.8523  -10.4998  -41.6137 O.2       3 UNK        -0.5000 
     57 CA          2.4207   -9.1084  -43.4854 C.3       3 UNK         0.1400 
     58 CB          3.6867   -8.2437  -43.3747 C.3       3 UNK        -0.1800 
     59 N           2.1988   -9.4729  -44.8828 N.am      3 UNK        -0.5000 
     60 C           0.9948   -9.5724  -45.4644 C.2       2 UNK         0.5000 
     61 O          -0.0616   -9.2606  -44.9137 O.2       2 UNK        -0.5000 
     62 CA          0.9612  -10.1316  -46.9019 C.3       2 UNK         0.1400 
     63 CB          1.0765   -8.9939  -47.9276 C.3       2 UNK        -0.1800 
     64 N           2.0250  -11.1067  -47.1457 N.am      2 UNK        -0.5000 
     65 C           2.0851  -12.3206  -46.5795 C.2       1 UNK         0.5000 
     66 O           1.1619  -12.8018  -45.9255 O.2       1 UNK        -0.5000 
     67 C          -0.7372  -23.1304  -48.0097 C.2       11 UNK         0.5000 
     68 O          -0.9206  -24.1890  -48.6099 O.2       11 UNK        -0.5000 
     69 N          -1.7212  -22.2806  -47.6818 N.am      12 UNK        -0.5000 
     70 CA         -3.1305  -22.4892  -48.0096 C.3       12 UNK         0.1400 
     71 CB         -3.9473  -21.2439  -47.6366 C.3       12 UNK        -0.1800 
     72 C          -3.7235  -23.7485  -47.3576 C.2       12 UNK         0.5000 
     73 O          -4.4627  -24.4738  -48.0223 O.2       12 UNK        -0.5000 
     74 N          -3.3630  -24.0060  -46.0934 N.am      13 UNK        -0.5000 
     75 CA         -3.7419  -25.2068  -45.3510 C.3       13 UNK         0.1400 
     76 CB         -3.3594  -25.0422  -43.8724 C.3       13 UNK        -0.1800 
     77 C          -3.1171  -26.4853  -45.9364 C.2       13 UNK         0.5000 
     78 O          -3.8167  -27.4894  -46.0713 O.2       13 UNK        -0.5000 
     79 N          -1.8260  -26.4216  -46.2930 N.am      14 UNK        -0.5000 
     80 CA         -1.0796  -27.5260  -46.8987 C.3       14 UNK         0.1400 
     81 CB          0.4186  -27.1860  -46.9160 C.3       14 UNK        -0.1800 
     82 C          -1.5744  -27.8782  -48.3134 C.2       14 UNK         0.5000 
     83 O          -1.7101  -29.0595  -48.6346 O.2       14 UNK        -0.5000 
     84 N          -1.8463  -26.8493  -49.1263 N.am      15 UNK        -0.5000 
     85 CA         -2.3515  -26.9818  -50.4933 C.3       15 UNK         0.1400 
     86 CB         -2.0761  -25.6718  -51.2482 C.3       15 UNK        -0.1800 
     87 C          -3.8519  -27.3239  -50.5655 C.2       15 UNK         0.5000 
     88 O          -4.3041  -27.7934  -51.6105 O.2       15 UNK        -0.5000 
     89 N          -4.5924  -27.0513  -49.4795 N.am      16 UNK        -0.5000 
     90 CA         -6.0562  -27.0679  -49.3717 C.3       16 UNK         0.1400 
     91 CB         -6.6162  -28.4968  -49.5274 C.3       16 UNK        -0.1800 
     92 C          -6.6921  -26.0458  -50.3380 C.2       16 UNK         0.5000 
     93 O          -7.6080  -26.3743  -51.0958 O.2       16 UNK        -0.5000 
     94 N          -6.1497  -24.8213  -50.3163 N.am      17 UNK        -0.5000 
     95 CA         -6.4549  -23.7280  -51.2372 C.3       17 UNK         0.1400 
     96 CB         -5.2729  -22.7427  -51.2595 C.3       17 UNK        -0.1800 
     97 C          -7.7926  -23.0344  -50.9136 C.2       17 UNK         0.5000 
     98 O          -7.8159  -21.8508  -50.5707 O.2       17 UNK        -0.5000 
     99 N          -8.8954  -23.7802  -51.0580 N.am      18 UNK        -0.5000 
    100 CA       -10.2658  -23.2542  -51.0557 C.3       18 UNK         0.1400 
    101 CB       -11.2527  -24.4285  -50.9774 C.3       18 UNK        -0.1800 
    102 C        -10.5563  -22.3782  -52.2947 C.2       18 UNK         0.5000 
    103 O        -11.4137  -21.4959  -52.2410 O.2       18 UNK        -0.5000 
    104 N         -9.8052  -22.6270  -53.3710 N.am      19 UNK        -0.5000 
    105 CA        -9.6857  -21.8261  -54.5789 C.3       19 UNK         0.1400 
    106 CB       -10.6969  -22.3217  -55.6268 C.3       19 UNK        -0.1800 
    107 C         -8.2355  -21.9699  -55.0735 C.2       19 UNK         0.5000 
    108 O         -7.5100  -22.8422  -54.5839 O.2       19 UNK        -0.5000 
    109 N         -7.8463  -21.1250  -56.0381 N.am      20 UNK        -0.5000 
    110 CA        -6.5282  -21.0868  -56.6871 C.3       20 UNK         0.1400 
    111 CB        -6.2871  -22.3652  -57.5188 C.3       20 UNK        -0.1800 
    112 C         -5.3800  -20.7755  -55.7016 C.2       20 UNK         0.5000 
    113 O         -4.3719  -21.4847  -55.6650 O.2       20 UNK        -0.5000 
    114 N         -5.5651  -19.7061  -54.9161 N.am      21 UNK        -0.5000 
    115 CA        -4.5576  -19.1344  -54.0189 C.3       21 UNK         0.1400 
    116 CB        -5.2599  -18.1556  -53.0625 C.3       21 UNK        -0.1800 
    117 C         -3.4114  -18.4374  -54.7876 C.2       21 UNK         0.5000 
    118 O         -3.4938  -18.2665  -56.0076 O.2       21 UNK        -0.5000 
    119 N         -2.3602  -18.0478  -54.0544 N.am      22 UNK        -0.5000 
    120 CA        -1.1733  -17.3488  -54.5769 C.3       22 UNK         0.1400 
    121 C         -1.4721  -15.9839  -55.2707 C.2       22 UNK         0.5000 
    122 N         -0.6255  -15.5593  -56.1998 N.am      22 UNK        -0.7600 
    123 O         -2.4402  -15.2931  -54.9581 O.2       22 UNK        -0.5000 
    124 C124       -0.0652  -17.2179  -53.4961 C.3       23 UNK        -0.0398 
    125 S125       -0.5237  -16.1714  -52.0668 S.3       23 UNK        -0.2404 
    126 C126       -0.2774  -17.2976  -50.6583 C.3       23 UNK        -0.0205 
    127 H127        7.2093  -10.7916  -46.6699 H         1 UNK         0.0600 
    128 H128        6.1469   -9.6382  -47.4838 H         1 UNK         0.0600 
    129 H129        6.5545  -11.1689  -48.2663 H         1 UNK         0.0600 
    130 H130        4.8875  -12.6507  -48.1637 H         1 UNK         0.3000 
    131 H131        3.6808  -13.4531  -45.7528 H         1 UNK         0.0600 
    132 H132        2.3896  -15.0354  -47.0695 H         1 UNK         0.0800 
    133 H133        2.6844  -14.1420  -48.5424 H         1 UNK         0.0800 
    134 H134        4.2155  -14.9235  -50.1747 H         1 UNK         0.0800 
    135 H135        5.4468  -16.1375  -49.9722 H         1 UNK         0.0800 
    136 H136        1.7886  -15.5831  -50.1509 H         1 UNK         0.1150 
    137 H137        0.9080  -19.7452  -50.6262 H         1 UNK         0.1150 
    138 H138        4.8812  -18.5037  -49.6068 H         1 UNK         0.1150 
    139 H139        2.9075  -21.3062  -50.8590 H         1 UNK         0.0800 
    140 H140        4.4645  -20.7978  -50.2663 H         1 UNK         0.0800 
    141 H141        0.9828  -21.8872  -49.5564 H         1 UNK         0.0800 
    142 H142        0.8019  -20.6909  -48.2920 H         1 UNK         0.0800 
    143 H143        1.3054  -23.6454  -47.6919 H         1 UNK         0.0600 
    144 H144        1.0431  -21.4049  -45.9740 H         1 UNK         0.3000 
    145 H145       -0.1765  -23.1885  -43.0904 H         1 UNK         0.0600 
    146 H146        1.7803  -22.0321  -42.1487 H         1 UNK         0.0600 
    147 H147        2.3276  -23.3277  -43.2002 H         1 UNK         0.0600 
    148 H148        2.3935  -21.6602  -43.7587 H         1 UNK         0.0600 
    149 H149        0.2563  -20.4204  -43.4545 H         1 UNK         0.3000 
    150 H150       -3.0549  -19.5935  -44.6349 H         1 UNK         0.0600 
    151 H151       -3.1393  -19.7589  -42.1529 H         1 UNK         0.0600 
    152 H152       -2.8521  -18.1011  -42.6612 H         1 UNK         0.0600 
    153 H153       -1.5237  -19.0749  -42.0338 H         1 UNK         0.0600 
    154 H154       -0.8526  -17.8990  -44.1689 H         1 UNK         0.3000 
    155 H155        0.6288  -18.0920  -47.4343 H         1 UNK         0.0600 
    156 H156       -0.7591  -15.8619  -45.8536 H         1 UNK         0.0600 
    157 H157        0.2279  -15.6903  -47.3034 H         1 UNK         0.0600 
    158 H158       -1.3366  -16.4711  -47.3966 H         1 UNK         0.0600 
    159 H159        1.3741  -16.6844  -45.0571 H         1 UNK         0.3000 
    160 H160        3.5473  -19.1833  -43.7057 H         1 UNK         0.0600 
    161 H161        3.9898  -16.4380  -44.9945 H         1 UNK         0.0600 
    162 H162        4.8376  -17.9190  -45.4102 H         1 UNK         0.0600 
    163 H163        5.0526  -17.2056  -43.8175 H         1 UNK         0.0600 
    164 H164        2.6671  -16.5463  -42.8865 H         1 UNK         0.3000 
    165 H165        0.0085  -17.6862  -40.7925 H         1 UNK         0.0600 
    166 H166        1.3463  -16.6984  -38.9565 H         1 UNK         0.0600 
    167 H167        2.0055  -18.2639  -39.4026 H         1 UNK         0.0600 
    168 H168        2.8126  -16.7931  -39.9333 H         1 UNK         0.0600 
    169 H169        1.2644  -15.1537  -40.9722 H         1 UNK         0.3000 
    170 H170       -0.0830  -13.9572  -43.9614 H         1 UNK         0.0600 
    171 H171       -2.1336  -13.7662  -42.5434 H         1 UNK         0.0600 
    172 H172       -1.1477  -13.2614  -41.1752 H         1 UNK         0.0600 
    173 H173       -1.2543  -12.2474  -42.6152 H         1 UNK         0.0600 
    174 H174        1.1152  -12.4266  -41.9912 H         1 UNK         0.3000 
    175 H175        3.5424  -12.5297  -41.3688 H         1 UNK         0.0600 
    176 H176        5.1293  -13.2473  -43.8912 H         1 UNK         0.0600 
    177 H177        5.7640  -12.4441  -42.4591 H         1 UNK         0.0600 
    178 H178        5.1979  -14.1038  -42.3567 H         1 UNK         0.0600 
    179 H179        3.8953  -11.1505  -43.9323 H         1 UNK         0.3000 
    180 H180        1.5797   -8.5219  -43.1094 H         1 UNK         0.0600 
    181 H181        4.5714   -8.7649  -43.7425 H         1 UNK         0.0600 
    182 H182        3.8775   -7.9636  -42.3380 H         1 UNK         0.0600 
    183 H183        3.5819   -7.3217  -43.9465 H         1 UNK         0.0600 
    184 H184        3.0129   -9.7993  -45.3905 H         1 UNK         0.3000 
    185 H185       -0.0010  -10.6279  -47.0457 H         1 UNK         0.0600 
    186 H186        0.2821   -8.2598  -47.7862 H         1 UNK         0.0600 
    187 H187        2.0284   -8.4683  -47.8418 H         1 UNK         0.0600 
    188 H188        0.9911   -9.3714  -48.9467 H         1 UNK         0.0600 
    189 H189        2.8187  -10.7926  -47.6844 H         1 UNK         0.3000 
    190 H190       -1.4916  -21.4085  -47.2100 H         1 UNK         0.3000 
    191 H191       -3.1888  -22.6241  -49.0906 H         1 UNK         0.0600 
    192 H192       -3.8810  -21.0253  -46.5706 H         1 UNK         0.0600 
    193 H193       -5.0020  -21.3786  -47.8802 H         1 UNK         0.0600 
    194 H194       -3.5975  -20.3665  -48.1807 H         1 UNK         0.0600 
    195 H195       -2.7959  -23.3242  -45.5955 H         1 UNK         0.3000 
    196 H196       -4.8275  -25.3093  -45.4109 H         1 UNK         0.0600 
    197 H197       -3.6342  -25.9261  -43.2955 H         1 UNK         0.0600 
    198 H198       -3.8726  -24.1901  -43.4264 H         1 UNK         0.0600 
    199 H199       -2.2869  -24.8873  -43.7487 H         1 UNK         0.0600 
    200 H200       -1.3078  -25.5659  -46.1187 H         1 UNK         0.3000 
    201 H201       -1.2176  -28.4084  -46.2704 H         1 UNK         0.0600 
    202 H202        0.7971  -27.0265  -45.9063 H         1 UNK         0.0600 
    203 H203        0.6205  -26.2835  -47.4941 H         1 UNK         0.0600 
    204 H204        0.9994  -27.9970  -47.3570 H         1 UNK         0.0600 
    205 H205       -1.6487  -25.9036  -48.8057 H         1 UNK         0.3000 
    206 H206       -1.8046  -27.7846  -50.9922 H         1 UNK         0.0600 
    207 H207       -1.0099  -25.4456  -51.2696 H         1 UNK         0.0600 
    208 H208       -2.4169  -25.7331  -52.2825 H         1 UNK         0.0600 
    209 H209       -2.5870  -24.8284  -50.7824 H         1 UNK         0.0600 
    210 H210       -4.1150  -26.6285  -48.6941 H         1 UNK         0.3000 
    211 H211       -6.2936  -26.7291  -48.3622 H         1 UNK         0.0600 
    212 H212       -6.4690  -28.8878  -50.5343 H         1 UNK         0.0600 
    213 H213       -7.6875  -28.5169  -49.3248 H         1 UNK         0.0600 
    214 H214       -6.1399  -29.1834  -48.8276 H         1 UNK         0.0600 
    215 H215       -5.4497  -24.6332  -49.6026 H         1 UNK         0.3000 
    216 H216       -6.5446  -24.1455  -52.2424 H         1 UNK         0.0600 
    217 H217       -5.1481  -22.2458  -50.2982 H         1 UNK         0.0600 
    218 H218       -5.4300  -21.9674  -52.0109 H         1 UNK         0.0600 
    219 H219       -4.3390  -23.2469  -51.5071 H         1 UNK         0.0600 
    220 H220       -8.7732  -24.7643  -51.2776 H         1 UNK         0.3000 
    221 H221      -10.3963  -22.6319  -50.1680 H         1 UNK         0.0600 
    222 H222      -11.0901  -25.0206  -50.0766 H         1 UNK         0.0600 
    223 H223      -11.1570  -25.0924  -51.8376 H         1 UNK         0.0600 
    224 H224      -12.2830  -24.0715  -50.9503 H         1 UNK         0.0600 
    225 H225       -9.0877  -23.3380  -53.3002 H         1 UNK         0.3000 
    226 H226       -9.8710  -20.7754  -54.3460 H         1 UNK         0.0600 
    227 H227      -11.7187  -22.2457  -55.2544 H         1 UNK         0.0600 
    228 H228      -10.6407  -21.7294  -56.5406 H         1 UNK         0.0600 
    229 H229      -10.5163  -23.3629  -55.8970 H         1 UNK         0.0600 
    230 H230       -8.5117  -20.4405  -56.3703 H         1 UNK         0.3000 
    231 H231       -6.5565  -20.2501  -57.3869 H         1 UNK         0.0600 
    232 H232       -6.1988  -23.2515  -56.8899 H         1 UNK         0.0600 
    233 H233       -5.3665  -22.2846  -58.0980 H         1 UNK         0.0600 
    234 H234       -7.0998  -22.5350  -58.2249 H         1 UNK         0.0600 
    235 H235       -6.4163  -19.1756  -55.0259 H         1 UNK         0.3000 
    236 H236       -4.1236  -19.9455  -53.4301 H         1 UNK         0.0600 
    237 H237       -4.5642  -17.7484  -52.3280 H         1 UNK         0.0600 
    238 H238       -5.6976  -17.3136  -53.6005 H         1 UNK         0.0600 
    239 H239       -6.0571  -18.6511  -52.5076 H         1 UNK         0.0600 
    240 H240       -2.3849  -18.1773  -53.0545 H         1 UNK         0.3000 
    241 H241       -0.7755  -18.0014  -55.3567 H         1 UNK         0.0600 
    242 H242       -0.7987  -14.6734  -56.6495 H         1 UNK         0.3800 
    243 H243        0.1788  -16.1020  -56.4749 H         1 UNK         0.3800 
    244 H244        0.8439  -16.8045  -53.9357 H         1 UNK         0.0800 
    245 H245        0.2145  -18.2115  -53.1438 H         1 UNK         0.0800 
    246 H246       -0.8652  -18.2034  -50.8145 H         1 UNK         0.0800 
    247 H247       -0.6818  -16.8240  -49.7636 H         1 UNK         0.0800 
@<TRIPOS>BOND
     1    1    2 1    
     2    1  127 1    
     3    1  128 1    
     4    1  129 1    
     5    2    3 2    
     6    2    4 am   BACKBONE|DICT|INTERRES
     7    4    5 1    
     8    4  130 1    
     9    5    6 1    
    10    5   65 1    
    11    5  131 1    
    12    6    7 1    
    13    6  132 1    
    14    6  133 1    
    15    7    8 1    
    16    8    9 1    
    17    8  134 1    
    18    8  135 1    
    19    9   10 ar   
    20    9   14 ar   
    21   10   11 ar   
    22   10  136 1    
    23   11   12 ar   
    24   11  126 1    
    25   12   13 ar   
    26   12  137 1    
    27   13   14 ar   
    28   13   15 1    
    29   14  138 1    
    30   15   16 1    
    31   15  139 1    
    32   15  140 1    
    33   16   17 1    
    34   17   18 1    
    35   17  141 1    
    36   17  142 1    
    37   18   19 1    
    38   18   67 1    
    39   18  143 1    
    40   19   20 am   BACKBONE|DICT|INTERRES
    41   19  144 1    
    42   20   21 2    
    43   20   22 1    
    44   22   23 1    
    45   22   24 1    
    46   22  145 1    
    47   23  146 1    
    48   23  147 1    
    49   23  148 1    
    50   24   25 am   BACKBONE|DICT|INTERRES
    51   24  149 1    
    52   25   26 2    
    53   25   27 1    
    54   27   28 1    
    55   27   29 1    
    56   27  150 1    
    57   28  151 1    
    58   28  152 1    
    59   28  153 1    
    60   29   30 am   BACKBONE|DICT|INTERRES
    61   29  154 1    
    62   30   31 2    
    63   30   32 1    
    64   32   33 1    
    65   32   34 1    
    66   32  155 1    
    67   33  156 1    
    68   33  157 1    
    69   33  158 1    
    70   34   35 am   BACKBONE|DICT|INTERRES
    71   34  159 1    
    72   35   36 2    
    73   35   37 1    
    74   37   38 1    
    75   37   39 1    
    76   37  160 1    
    77   38  161 1    
    78   38  162 1    
    79   38  163 1    
    80   39   40 am   BACKBONE|DICT|INTERRES
    81   39  164 1    
    82   40   41 2    
    83   40   42 1    
    84   42   43 1    
    85   42   44 1    
    86   42  165 1    
    87   43  166 1    
    88   43  167 1    
    89   43  168 1    
    90   44   45 am   BACKBONE|DICT|INTERRES
    91   44  169 1    
    92   45   46 2    
    93   45   47 1    
    94   47   48 1    
    95   47   49 1    
    96   47  170 1    
    97   48  171 1    
    98   48  172 1    
    99   48  173 1    
   100   49   50 am   BACKBONE|DICT|INTERRES
   101   49  174 1    
   102   50   51 2    
   103   50   52 1    
   104   52   53 1    
   105   52   54 1    
   106   52  175 1    
   107   53  176 1    
   108   53  177 1    
   109   53  178 1    
   110   54   55 am   BACKBONE|DICT|INTERRES
   111   54  179 1    
   112   55   56 2    
   113   55   57 1    
   114   57   58 1    
   115   57   59 1    
   116   57  180 1    
   117   58  181 1    
   118   58  182 1    
   119   58  183 1    
   120   59   60 am   BACKBONE|DICT|INTERRES
   121   59  184 1    
   122   60   61 2    
   123   60   62 1    
   124   62   63 1    
   125   62   64 1    
   126   62  185 1    
   127   63  186 1    
   128   63  187 1    
   129   63  188 1    
   130   64   65 am   BACKBONE|DICT|INTERRES
   131   64  189 1    
   132   65   66 2    
   133   67   68 2    
   134   67   69 am   BACKBONE|DICT|INTERRES
   135   69   70 1    
   136   69  190 1    
   137   70   71 1    
   138   70   72 1    
   139   70  191 1    
   140   71  192 1    
   141   71  193 1    
   142   71  194 1    
   143   72   73 2    
   144   72   74 am   BACKBONE|DICT|INTERRES
   145   74   75 1    
   146   74  195 1    
   147   75   76 1    
   148   75   77 1    
   149   75  196 1    
   150   76  197 1    
   151   76  198 1    
   152   76  199 1    
   153   77   78 2    
   154   77   79 am   BACKBONE|DICT|INTERRES
   155   79   80 1    
   156   79  200 1    
   157   80   81 1    
   158   80   82 1    
   159   80  201 1    
   160   81  202 1    
   161   81  203 1    
   162   81  204 1    
   163   82   83 2    
   164   82   84 am   BACKBONE|DICT|INTERRES
   165   84   85 1    
   166   84  205 1    
   167   85   86 1    
   168   85   87 1    
   169   85  206 1    
   170   86  207 1    
   171   86  208 1    
   172   86  209 1    
   173   87   88 2    
   174   87   89 am   BACKBONE|DICT|INTERRES
   175   89   90 1    
   176   89  210 1    
   177   90   91 1    
   178   90   92 1    
   179   90  211 1    
   180   91  212 1    
   181   91  213 1    
   182   91  214 1    
   183   92   93 2    
   184   92   94 am   BACKBONE|DICT|INTERRES
   185   94   95 1    
   186   94  215 1    
   187   95   96 1    
   188   95   97 1    
   189   95  216 1    
   190   96  217 1    
   191   96  218 1    
   192   96  219 1    
   193   97   98 2    
   194   97   99 am   BACKBONE|DICT|INTERRES
   195   99  100 1    
   196   99  220 1    
   197  100  101 1    
   198  100  102 1    
   199  100  221 1    
   200  101  222 1    
   201  101  223 1    
   202  101  224 1    
   203  102  103 2    
   204  102  104 am   BACKBONE|DICT|INTERRES
   205  104  105 1    
   206  104  225 1    
   207  105  106 1    
   208  105  107 1    
   209  105  226 1    
   210  106  227 1    
   211  106  228 1    
   212  106  229 1    
   213  107  108 2    
   214  107  109 am   BACKBONE|DICT|INTERRES
   215  109  110 1    
   216  109  230 1    
   217  110  111 1    
   218  110  112 1    
   219  110  231 1    
   220  111  232 1    
   221  111  233 1    
   222  111  234 1    
   223  112  113 2    
   224  112  114 am   BACKBONE|DICT|INTERRES
   225  114  115 1    
   226  114  235 1    
   227  115  116 1    
   228  115  117 1    
   229  115  236 1    
   230  116  237 1    
   231  116  238 1    
   232  116  239 1    
   233  117  118 2    
   234  117  119 am   BACKBONE|DICT|INTERRES
   235  119  120 1    
   236  119  240 1    
   237  120  121 1    
   238  120  124 1    
   239  120  241 1    
   240  121  122 am   BACKBONE|DICT|INTERRES
   241  121  123 2    
   242  122  242 1    
   243  122  243 1    
   244  124  125 1    
   245  124  244 1    
   246  124  245 1    
   247  125  126 1    
   248  126  246 1    
   249  126  247 1    
@<TRIPOS>SUBSTRUCTURE
     1 UNK         1 GROUP             0       ****    0 ROOT    
