@<TRIPOS>MOLECULE
3R540
247   249    1
SMALL
USER_CHARGES


@<TRIPOS>ATOM
      1 CA          9.0232  -11.7872  -50.1596 C.3       0 UNK        -0.1800 
      2 C           7.7738  -12.3699  -49.5135 C.2       0 UNK         0.5000 
      3 O           7.4516  -12.0194  -48.3778 O.2       0 UNK        -0.5000 
      4 N           7.0764  -13.2621  -50.2275 N.am      1 UNK        -0.5000 
      5 CA          5.8141  -13.8734  -49.8014 C.3       1 UNK         0.1400 
      6 C6          5.4923  -15.1307  -50.6483 C.3       23 UNK        -0.0398 
      7 S7          4.3311  -16.2721  -49.8220 S.3       23 UNK        -0.2404 
      8 C8          3.5225  -17.0243  -51.2679 C.3       23 UNK        -0.0205 
      9 C9          2.5799  -18.1506  -50.8692 C.ar      23 UNK        -0.0193 
     10 C10         1.1950  -17.9469  -50.8534 C.ar      23 UNK        -0.1150 
     11 C11         0.3291  -18.9920  -50.5137 C.ar      23 UNK        -0.0193 
     12 C12         0.8596  -20.2438  -50.1939 C.ar      23 UNK        -0.1150 
     13 C13         2.2388  -20.4570  -50.1906 C.ar      23 UNK        -0.0193 
     14 C14         3.0953  -19.4083  -50.5366 C.ar      23 UNK        -0.1150 
     15 C15         2.7897  -21.8266  -49.8219 C.3       23 UNK        -0.0205 
     16 S16         3.5185  -21.8817  -48.1503 S.3       23 UNK        -0.2404 
     17 C17         2.1848  -21.2682  -47.0631 C.3       23 UNK        -0.0398 
     18 CA          1.3090  -22.3897  -46.4471 C.3       11 UNK         0.1400 
     19 N           0.9826  -22.0998  -45.0458 N.am      11 UNK        -0.5000 
     20 C           0.4658  -22.9675  -44.1642 C.2       10 UNK         0.5000 
     21 O           0.2229  -24.1432  -44.4401 O.2       10 UNK        -0.5000 
     22 CA          0.1102  -22.4050  -42.7710 C.3       10 UNK         0.1400 
     23 CB          0.0738  -23.4879  -41.6729 C.3       10 UNK        -0.1800 
     24 N           0.9496  -21.2678  -42.3777 N.am      10 UNK        -0.5000 
     25 C           2.2707  -21.2694  -42.1407 C.2       9 UNK         0.5000 
     26 O           2.9677  -22.2845  -42.1604 O.2       9 UNK        -0.5000 
     27 CA          2.9456  -19.9095  -41.8618 C.3       9 UNK         0.1400 
     28 CB          3.9071  -19.5499  -43.0065 C.3       9 UNK        -0.1800 
     29 N           2.0015  -18.8045  -41.6812 N.am      9 UNK        -0.5000 
     30 C           1.2580  -18.5907  -40.5878 C.2       8 UNK         0.5000 
     31 O           1.3212  -19.2840  -39.5722 O.2       8 UNK        -0.5000 
     32 CA          0.2463  -17.4294  -40.6561 C.3       8 UNK         0.1400 
     33 CB          0.9118  -16.1038  -40.2572 C.3       8 UNK        -0.1800 
     34 N          -0.3813  -17.2839  -41.9731 N.am      8 UNK        -0.5000 
     35 C          -1.1758  -18.2013  -42.5457 C.2       7 UNK         0.5000 
     36 O          -1.4746  -19.2729  -42.0185 O.2       7 UNK        -0.5000 
     37 CA         -1.6764  -17.8963  -43.9688 C.3       7 UNK         0.1400 
     38 CB         -2.8208  -16.8726  -43.9395 C.3       7 UNK        -0.1800 
     39 N          -0.6045  -17.4183  -44.8407 N.am      7 UNK        -0.5000 
     40 C           0.4695  -18.1421  -45.1868 C.2       6 UNK         0.5000 
     41 O           0.6411  -19.3151  -44.8548 O.2       6 UNK        -0.5000 
     42 CA          1.5586  -17.4250  -46.0009 C.3       6 UNK         0.1400 
     43 CB          1.1747  -17.3630  -47.4811 C.3       6 UNK        -0.1800 
     44 N           1.8267  -16.0725  -45.5217 N.am      6 UNK        -0.5000 
     45 C           2.2936  -15.7630  -44.3058 C.2       5 UNK         0.5000 
     46 O           2.5897  -16.5964  -43.4516 O.2       5 UNK        -0.5000 
     47 CA          2.3922  -14.2658  -43.9733 C.3       5 UNK         0.1400 
     48 CB          3.6541  -13.6435  -44.5913 C.3       5 UNK        -0.1800 
     49 N           1.2089  -13.5334  -44.4236 N.am      5 UNK        -0.5000 
     50 C          -0.0151  -13.6753  -43.8954 C.2       4 UNK         0.5000 
     51 O          -0.2707  -14.4185  -42.9474 O.2       4 UNK        -0.5000 
     52 CA         -1.1479  -12.8781  -44.5674 C.3       4 UNK         0.1400 
     53 CB         -1.1726  -11.4307  -44.0539 C.3       4 UNK        -0.1800 
     54 N          -1.0410  -12.8751  -46.0280 N.am      4 UNK        -0.5000 
     55 C          -1.2199  -13.9599  -46.7939 C.2       3 UNK         0.5000 
     56 O          -1.5160  -15.0677  -46.3499 O.2       3 UNK        -0.5000 
     57 CA         -0.9835  -13.7929  -48.3062 C.3       3 UNK         0.1400 
     58 CB         -2.2560  -13.2944  -49.0062 C.3       3 UNK        -0.1800 
     59 N           0.1444  -12.9186  -48.6410 N.am      3 UNK        -0.5000 
     60 C           1.4111  -13.1637  -48.2839 C.2       2 UNK         0.5000 
     61 O           1.7462  -14.0929  -47.5451 O.2       2 UNK        -0.5000 
     62 CA          2.4855  -12.2125  -48.8191 C.3       2 UNK         0.1400 
     63 CB          2.6815  -11.0150  -47.8753 C.3       2 UNK        -0.1800 
     64 N           3.7234  -12.9750  -48.9088 N.am      2 UNK        -0.5000 
     65 C           4.6633  -12.8435  -49.8462 C.2       1 UNK         0.5000 
     66 O           4.6363  -11.9830  -50.7307 O.2       1 UNK        -0.5000 
     67 C           0.0350  -22.6463  -47.2846 C.2       11 UNK         0.5000 
     68 O           0.0945  -23.3331  -48.3039 O.2       11 UNK        -0.5000 
     69 N          -1.1141  -22.1524  -46.7996 N.am      12 UNK        -0.5000 
     70 CA         -2.4544  -22.3926  -47.3356 C.3       12 UNK         0.1400 
     71 CB         -3.4743  -21.6456  -46.4636 C.3       12 UNK        -0.1800 
     72 C          -2.8325  -23.8825  -47.4439 C.2       12 UNK         0.5000 
     73 O          -3.6273  -24.2306  -48.3136 O.2       12 UNK        -0.5000 
     74 N          -2.2428  -24.7319  -46.5888 N.am      13 UNK        -0.5000 
     75 CA         -2.4060  -26.1854  -46.6227 C.3       13 UNK         0.1400 
     76 CB         -1.9631  -26.7687  -45.2722 C.3       13 UNK        -0.1800 
     77 C          -1.6368  -26.8572  -47.7787 C.2       13 UNK         0.5000 
     78 O          -2.0369  -27.9381  -48.2129 O.2       13 UNK        -0.5000 
     79 N          -0.5521  -26.2248  -48.2509 N.am      14 UNK        -0.5000 
     80 CA          0.2186  -26.6687  -49.4146 C.3       14 UNK         0.1400 
     81 CB          1.6770  -26.2033  -49.2741 C.3       14 UNK        -0.1800 
     82 C          -0.4002  -26.1493  -50.7250 C.2       14 UNK         0.5000 
     83 O          -0.3509  -26.8456  -51.7401 O.2       14 UNK        -0.5000 
     84 N          -0.9829  -24.9445  -50.6716 N.am      15 UNK        -0.5000 
     85 CA         -1.7759  -24.3364  -51.7384 C.3       15 UNK         0.1400 
     86 CB         -1.7744  -22.8105  -51.5295 C.3       15 UNK        -0.1800 
     87 C          -3.2093  -24.9134  -51.7988 C.2       15 UNK         0.5000 
     88 O          -3.5313  -25.8847  -51.1112 O.2       15 UNK        -0.5000 
     89 N          -4.0599  -24.2940  -52.6277 N.am      16 UNK        -0.5000 
     90 CA         -5.4742  -24.6469  -52.7984 C.3       16 UNK         0.1400 
     91 CB         -5.9206  -24.2114  -54.2034 C.3       16 UNK        -0.1800 
     92 C          -6.3984  -24.0476  -51.7132 C.2       16 UNK         0.5000 
     93 O          -7.6146  -24.2292  -51.7936 O.2       16 UNK        -0.5000 
     94 N          -5.8210  -23.3381  -50.7323 N.am      17 UNK        -0.5000 
     95 CA         -6.4826  -22.6565  -49.6182 C.3       17 UNK         0.1400 
     96 CB         -7.0801  -23.6839  -48.6290 C.3       17 UNK        -0.1800 
     97 C          -7.4878  -21.5979  -50.1175 C.2       17 UNK         0.5000 
     98 O          -7.1141  -20.7537  -50.9311 O.2       17 UNK        -0.5000 
     99 N          -8.7386  -21.6553  -49.6406 N.am      18 UNK        -0.5000 
    100 CA        -9.8185  -20.7107  -49.9461 C.3       18 UNK         0.1400 
    101 CB       -11.0332  -21.0551  -49.0699 C.3       18 UNK        -0.1800 
    102 C        -10.2282  -20.6402  -51.4329 C.2       18 UNK         0.5000 
    103 O        -10.8751  -19.6701  -51.8298 O.2       18 UNK        -0.5000 
    104 N         -9.8472  -21.6474  -52.2312 N.am      19 UNK        -0.5000 
    105 CA       -10.0407  -21.6712  -53.6819 C.3       19 UNK         0.1400 
    106 CB        -9.9719  -23.1261  -54.1700 C.3       19 UNK        -0.1800 
    107 C         -9.0336  -20.7864  -54.4492 C.2       19 UNK         0.5000 
    108 O         -9.2317  -20.5617  -55.6443 O.2       19 UNK        -0.5000 
    109 N         -7.9820  -20.3041  -53.7746 N.am      20 UNK        -0.5000 
    110 CA        -6.9591  -19.4184  -54.3221 C.3       20 UNK         0.1400 
    111 CB        -5.7526  -20.2598  -54.7879 C.3       20 UNK        -0.1800 
    112 C         -6.6048  -18.3398  -53.2803 C.2       20 UNK         0.5000 
    113 O         -7.4751  -17.9144  -52.5163 O.2       20 UNK        -0.5000 
    114 N         -5.3430  -17.8937  -53.2803 N.am      21 UNK        -0.5000 
    115 CA        -4.7774  -16.9839  -52.2855 C.3       21 UNK         0.1400 
    116 CB        -3.4660  -16.4050  -52.8426 C.3       21 UNK        -0.1800 
    117 C         -4.5210  -17.6966  -50.9438 C.2       21 UNK         0.5000 
    118 O         -4.4478  -18.9253  -50.9053 O.2       21 UNK        -0.5000 
    119 N         -4.3632  -16.8945  -49.8837 N.am      22 UNK        -0.5000 
    120 CA        -4.0077  -17.2435  -48.4917 C.3       22 UNK         0.1400 
    121 C         -4.9344  -18.2356  -47.7220 C.2       22 UNK         0.5000 
    122 N         -5.8252  -18.9724  -48.3689 N.am      22 UNK        -0.7600 
    123 O         -4.8785  -18.2970  -46.4977 O.2       22 UNK        -0.5000 
    124 C124       -2.4933  -17.5447  -48.2986 C.3       23 UNK        -0.0398 
    125 S125       -1.9145  -19.1734  -48.8807 S.3       23 UNK        -0.2404 
    126 C126       -1.1785  -18.7895  -50.5055 C.3       23 UNK        -0.0205 
    127 H127        9.1921  -12.1945  -51.1568 H         1 UNK         0.0600 
    128 H128        9.8991  -12.0079  -49.5495 H         1 UNK         0.0600 
    129 H129        8.9304  -10.7046  -50.2460 H         1 UNK         0.0600 
    130 H130        7.3759  -13.4816  -51.1667 H         1 UNK         0.3000 
    131 H131        5.9501  -14.1885  -48.7640 H         1 UNK         0.0600 
    132 H132        5.1129  -14.8513  -51.6332 H         1 UNK         0.0800 
    133 H133        6.4054  -15.6992  -50.8310 H         1 UNK         0.0800 
    134 H134        4.2833  -17.4147  -51.9457 H         1 UNK         0.0800 
    135 H135        2.9825  -16.2534  -51.8200 H         1 UNK         0.0800 
    136 H136        0.7928  -16.9762  -51.1067 H         1 UNK         0.1150 
    137 H137        0.1924  -21.0496  -49.9242 H         1 UNK         0.1150 
    138 H138        4.1642  -19.5691  -50.5411 H         1 UNK         0.1150 
    139 H139        2.0130  -22.5876  -49.9024 H         1 UNK         0.0800 
    140 H140        3.5563  -22.1086  -50.5447 H         1 UNK         0.0800 
    141 H141        1.5834  -20.5121  -47.5643 H         1 UNK         0.0800 
    142 H142        2.6994  -20.7250  -46.2691 H         1 UNK         0.0800 
    143 H143        1.8800  -23.3207  -46.4454 H         1 UNK         0.0600 
    144 H144        1.0618  -21.1242  -44.7665 H         1 UNK         0.3000 
    145 H145       -0.9005  -22.0053  -42.8638 H         1 UNK         0.0600 
    146 H146       -0.1767  -23.0575  -40.7033 H         1 UNK         0.0600 
    147 H147       -0.6802  -24.2437  -41.8958 H         1 UNK         0.0600 
    148 H148        1.0297  -24.0029  -41.5761 H         1 UNK         0.0600 
    149 H149        0.4716  -20.3757  -42.3435 H         1 UNK         0.3000 
    150 H150        3.5303  -20.0182  -40.9462 H         1 UNK         0.0600 
    151 H151        4.6544  -20.3303  -43.1552 H         1 UNK         0.0600 
    152 H152        4.4438  -18.6250  -42.7946 H         1 UNK         0.0600 
    153 H153        3.3755  -19.4199  -43.9497 H         1 UNK         0.0600 
    154 H154        1.9447  -18.1339  -42.4427 H         1 UNK         0.3000 
    155 H155       -0.5454  -17.6409  -39.9345 H         1 UNK         0.0600 
    156 H156        1.3663  -16.1760  -39.2683 H         1 UNK         0.0600 
    157 H157        0.1843  -15.2926  -40.2225 H         1 UNK         0.0600 
    158 H158        1.6956  -15.8191  -40.9595 H         1 UNK         0.0600 
    159 H159       -0.2031  -16.4144  -42.4656 H         1 UNK         0.3000 
    160 H160       -2.0638  -18.8241  -44.3955 H         1 UNK         0.0600 
    161 H161       -2.4930  -15.9079  -43.5523 H         1 UNK         0.0600 
    162 H162       -3.6398  -17.2208  -43.3092 H         1 UNK         0.0600 
    163 H163       -3.2281  -16.7093  -44.9370 H         1 UNK         0.0600 
    164 H164       -0.7000  -16.4744  -45.2019 H         1 UNK         0.3000 
    165 H165        2.4795  -18.0040  -45.9097 H         1 UNK         0.0600 
    166 H166        1.9950  -16.9756  -48.0836 H         1 UNK         0.0600 
    167 H167        0.9272  -18.3517  -47.8616 H         1 UNK         0.0600 
    168 H168        0.3098  -16.7231  -47.6475 H         1 UNK         0.0600 
    169 H169        1.6526  -15.3182  -46.1824 H         1 UNK         0.3000 
    170 H170        2.4613  -14.1675  -42.8879 H         1 UNK         0.0600 
    171 H171        4.5507  -14.1559  -44.2406 H         1 UNK         0.0600 
    172 H172        3.6482  -13.7044  -45.6797 H         1 UNK         0.0600 
    173 H173        3.7514  -12.5934  -44.3154 H         1 UNK         0.0600 
    174 H174        1.3195  -12.9475  -45.2371 H         1 UNK         0.3000 
    175 H175       -2.0937  -13.3520  -44.2956 H         1 UNK         0.0600 
    176 H176       -1.2666  -11.4045  -42.9674 H         1 UNK         0.0600 
    177 H177       -0.2619  -10.8918  -44.3180 H         1 UNK         0.0600 
    178 H178       -2.0194  -10.8813  -44.4654 H         1 UNK         0.0600 
    179 H179       -0.7940  -12.0030  -46.4718 H         1 UNK         0.3000 
    180 H180       -0.7461  -14.7792  -48.7072 H         1 UNK         0.0600 
    181 H181       -3.1051  -13.9404  -48.7797 H         1 UNK         0.0600 
    182 H182       -2.5191  -12.2838  -48.6917 H         1 UNK         0.0600 
    183 H183       -2.1340  -13.2890  -50.0895 H         1 UNK         0.0600 
    184 H184       -0.0574  -12.1266  -49.2343 H         1 UNK         0.3000 
    185 H185        2.1846  -11.8628  -49.8089 H         1 UNK         0.0600 
    186 H186        1.7640  -10.4326  -47.7843 H         1 UNK         0.0600 
    187 H187        2.9710  -11.3349  -46.8734 H         1 UNK         0.0600 
    188 H188        3.4564  -10.3448  -48.2477 H         1 UNK         0.0600 
    189 H189        3.7606  -13.7588  -48.2682 H         1 UNK         0.3000 
    190 H190       -1.0624  -21.5856  -45.9666 H         1 UNK         0.3000 
    191 H191       -2.4876  -21.9753  -48.3419 H         1 UNK         0.0600 
    192 H192       -3.4891  -22.0286  -45.4426 H         1 UNK         0.0600 
    193 H193       -4.4823  -21.7445  -46.8678 H         1 UNK         0.0600 
    194 H194       -3.2486  -20.5802  -46.4177 H         1 UNK         0.0600 
    195 H195       -1.5879  -24.3686  -45.9085 H         1 UNK         0.3000 
    196 H196       -3.4664  -26.4094  -46.7578 H         1 UNK         0.0600 
    197 H197       -2.1223  -27.8473  -45.2420 H         1 UNK         0.0600 
    198 H198       -2.5288  -26.3334  -44.4483 H         1 UNK         0.0600 
    199 H199       -0.9039  -26.5885  -45.0843 H         1 UNK         0.0600 
    200 H200       -0.3122  -25.3147  -47.8774 H         1 UNK         0.3000 
    201 H201        0.2193  -27.7601  -49.4527 H         1 UNK         0.0600 
    202 H202        2.1234  -26.5776  -48.3527 H         1 UNK         0.0600 
    203 H203        1.7617  -25.1166  -49.2696 H         1 UNK         0.0600 
    204 H204        2.2826  -26.5728  -50.1024 H         1 UNK         0.0600 
    205 H205       -0.9440  -24.4396  -49.7952 H         1 UNK         0.3000 
    206 H206       -1.2969  -24.5504  -52.6959 H         1 UNK         0.0600 
    207 H207       -0.7546  -22.4294  -51.4918 H         1 UNK         0.0600 
    208 H208       -2.2730  -22.2860  -52.3448 H         1 UNK         0.0600 
    209 H209       -2.2728  -22.5287  -50.6023 H         1 UNK         0.0600 
    210 H210       -3.7316  -23.5043  -53.1645 H         1 UNK         0.3000 
    211 H211       -5.5744  -25.7326  -52.7396 H         1 UNK         0.0600 
    212 H212       -6.9154  -24.5938  -54.4323 H         1 UNK         0.0600 
    213 H213       -5.2480  -24.5936  -54.9714 H         1 UNK         0.0600 
    214 H214       -5.9564  -23.1265  -54.2943 H         1 UNK         0.0600 
    215 H215       -4.8167  -23.2469  -50.7567 H         1 UNK         0.3000 
    216 H216       -5.7005  -22.1070  -49.0924 H         1 UNK         0.0600 
    217 H217       -7.4590  -23.1948  -47.7309 H         1 UNK         0.0600 
    218 H218       -6.3222  -24.3963  -48.3039 H         1 UNK         0.0600 
    219 H219       -7.8958  -24.2572  -49.0709 H         1 UNK         0.0600 
    220 H220       -8.9683  -22.4004  -48.9992 H         1 UNK         0.3000 
    221 H221       -9.4680  -19.7147  -49.6676 H         1 UNK         0.0600 
    222 H222      -11.4116  -22.0553  -49.2844 H         1 UNK         0.0600 
    223 H223      -10.7822  -21.0096  -48.0099 H         1 UNK         0.0600 
    224 H224      -11.8504  -20.3522  -49.2378 H         1 UNK         0.0600 
    225 H225       -9.3059  -22.4045  -51.8342 H         1 UNK         0.3000 
    226 H226      -11.0398  -21.2915  -53.9058 H         1 UNK         0.0600 
    227 H227      -10.7088  -23.7492  -53.6630 H         1 UNK         0.0600 
    228 H228      -10.1730  -23.1908  -55.2401 H         1 UNK         0.0600 
    229 H229       -8.9885  -23.5599  -53.9956 H         1 UNK         0.0600 
    230 H230       -7.9012  -20.4821  -52.7771 H         1 UNK         0.3000 
    231 H231       -7.3595  -18.8822  -55.1847 H         1 UNK         0.0600 
    232 H232       -6.0642  -21.0302  -55.4932 H         1 UNK         0.0600 
    233 H233       -5.2611  -20.7524  -53.9475 H         1 UNK         0.0600 
    234 H234       -5.0103  -19.6488  -55.3022 H         1 UNK         0.0600 
    235 H235       -4.6854  -18.3216  -53.9145 H         1 UNK         0.3000 
    236 H236       -5.4809  -16.1656  -52.1176 H         1 UNK         0.0600 
    237 H237       -3.6364  -15.8738  -53.7793 H         1 UNK         0.0600 
    238 H238       -3.0193  -15.6944  -52.1460 H         1 UNK         0.0600 
    239 H239       -2.7289  -17.1870  -53.0302 H         1 UNK         0.0600 
    240 H240       -4.4900  -15.9050  -50.0377 H         1 UNK         0.3000 
    241 H241       -4.1755  -16.3025  -47.9658 H         1 UNK         0.0600 
    242 H242       -5.7869  -19.0197  -49.3814 H         1 UNK         0.3800 
    243 H243       -6.4412  -19.5715  -47.8471 H         1 UNK         0.3800 
    244 H244       -1.8987  -16.7649  -48.7704 H         1 UNK         0.0800 
    245 H245       -2.2499  -17.4883  -47.2371 H         1 UNK         0.0800 
    246 H246       -1.6233  -19.4528  -51.2486 H         1 UNK         0.0800 
    247 H247       -1.4370  -17.7757  -50.8114 H         1 UNK         0.0800 
@<TRIPOS>BOND
     1    1    2 1    
     2    1  127 1    
     3    1  128 1    
     4    1  129 1    
     5    2    3 2    
     6    2    4 am   BACKBONE|DICT|INTERRES
     7    4    5 1    
     8    4  130 1    
     9    5    6 1    
    10    5   65 1    
    11    5  131 1    
    12    6    7 1    
    13    6  132 1    
    14    6  133 1    
    15    7    8 1    
    16    8    9 1    
    17    8  134 1    
    18    8  135 1    
    19    9   10 ar   
    20    9   14 ar   
    21   10   11 ar   
    22   10  136 1    
    23   11   12 ar   
    24   11  126 1    
    25   12   13 ar   
    26   12  137 1    
    27   13   14 ar   
    28   13   15 1    
    29   14  138 1    
    30   15   16 1    
    31   15  139 1    
    32   15  140 1    
    33   16   17 1    
    34   17   18 1    
    35   17  141 1    
    36   17  142 1    
    37   18   19 1    
    38   18   67 1    
    39   18  143 1    
    40   19   20 am   BACKBONE|DICT|INTERRES
    41   19  144 1    
    42   20   21 2    
    43   20   22 1    
    44   22   23 1    
    45   22   24 1    
    46   22  145 1    
    47   23  146 1    
    48   23  147 1    
    49   23  148 1    
    50   24   25 am   BACKBONE|DICT|INTERRES
    51   24  149 1    
    52   25   26 2    
    53   25   27 1    
    54   27   28 1    
    55   27   29 1    
    56   27  150 1    
    57   28  151 1    
    58   28  152 1    
    59   28  153 1    
    60   29   30 am   BACKBONE|DICT|INTERRES
    61   29  154 1    
    62   30   31 2    
    63   30   32 1    
    64   32   33 1    
    65   32   34 1    
    66   32  155 1    
    67   33  156 1    
    68   33  157 1    
    69   33  158 1    
    70   34   35 am   BACKBONE|DICT|INTERRES
    71   34  159 1    
    72   35   36 2    
    73   35   37 1    
    74   37   38 1    
    75   37   39 1    
    76   37  160 1    
    77   38  161 1    
    78   38  162 1    
    79   38  163 1    
    80   39   40 am   BACKBONE|DICT|INTERRES
    81   39  164 1    
    82   40   41 2    
    83   40   42 1    
    84   42   43 1    
    85   42   44 1    
    86   42  165 1    
    87   43  166 1    
    88   43  167 1    
    89   43  168 1    
    90   44   45 am   BACKBONE|DICT|INTERRES
    91   44  169 1    
    92   45   46 2    
    93   45   47 1    
    94   47   48 1    
    95   47   49 1    
    96   47  170 1    
    97   48  171 1    
    98   48  172 1    
    99   48  173 1    
   100   49   50 am   BACKBONE|DICT|INTERRES
   101   49  174 1    
   102   50   51 2    
   103   50   52 1    
   104   52   53 1    
   105   52   54 1    
   106   52  175 1    
   107   53  176 1    
   108   53  177 1    
   109   53  178 1    
   110   54   55 am   BACKBONE|DICT|INTERRES
   111   54  179 1    
   112   55   56 2    
   113   55   57 1    
   114   57   58 1    
   115   57   59 1    
   116   57  180 1    
   117   58  181 1    
   118   58  182 1    
   119   58  183 1    
   120   59   60 am   BACKBONE|DICT|INTERRES
   121   59  184 1    
   122   60   61 2    
   123   60   62 1    
   124   62   63 1    
   125   62   64 1    
   126   62  185 1    
   127   63  186 1    
   128   63  187 1    
   129   63  188 1    
   130   64   65 am   BACKBONE|DICT|INTERRES
   131   64  189 1    
   132   65   66 2    
   133   67   68 2    
   134   67   69 am   BACKBONE|DICT|INTERRES
   135   69   70 1    
   136   69  190 1    
   137   70   71 1    
   138   70   72 1    
   139   70  191 1    
   140   71  192 1    
   141   71  193 1    
   142   71  194 1    
   143   72   73 2    
   144   72   74 am   BACKBONE|DICT|INTERRES
   145   74   75 1    
   146   74  195 1    
   147   75   76 1    
   148   75   77 1    
   149   75  196 1    
   150   76  197 1    
   151   76  198 1    
   152   76  199 1    
   153   77   78 2    
   154   77   79 am   BACKBONE|DICT|INTERRES
   155   79   80 1    
   156   79  200 1    
   157   80   81 1    
   158   80   82 1    
   159   80  201 1    
   160   81  202 1    
   161   81  203 1    
   162   81  204 1    
   163   82   83 2    
   164   82   84 am   BACKBONE|DICT|INTERRES
   165   84   85 1    
   166   84  205 1    
   167   85   86 1    
   168   85   87 1    
   169   85  206 1    
   170   86  207 1    
   171   86  208 1    
   172   86  209 1    
   173   87   88 2    
   174   87   89 am   BACKBONE|DICT|INTERRES
   175   89   90 1    
   176   89  210 1    
   177   90   91 1    
   178   90   92 1    
   179   90  211 1    
   180   91  212 1    
   181   91  213 1    
   182   91  214 1    
   183   92   93 2    
   184   92   94 am   BACKBONE|DICT|INTERRES
   185   94   95 1    
   186   94  215 1    
   187   95   96 1    
   188   95   97 1    
   189   95  216 1    
   190   96  217 1    
   191   96  218 1    
   192   96  219 1    
   193   97   98 2    
   194   97   99 am   BACKBONE|DICT|INTERRES
   195   99  100 1    
   196   99  220 1    
   197  100  101 1    
   198  100  102 1    
   199  100  221 1    
   200  101  222 1    
   201  101  223 1    
   202  101  224 1    
   203  102  103 2    
   204  102  104 am   BACKBONE|DICT|INTERRES
   205  104  105 1    
   206  104  225 1    
   207  105  106 1    
   208  105  107 1    
   209  105  226 1    
   210  106  227 1    
   211  106  228 1    
   212  106  229 1    
   213  107  108 2    
   214  107  109 am   BACKBONE|DICT|INTERRES
   215  109  110 1    
   216  109  230 1    
   217  110  111 1    
   218  110  112 1    
   219  110  231 1    
   220  111  232 1    
   221  111  233 1    
   222  111  234 1    
   223  112  113 2    
   224  112  114 am   BACKBONE|DICT|INTERRES
   225  114  115 1    
   226  114  235 1    
   227  115  116 1    
   228  115  117 1    
   229  115  236 1    
   230  116  237 1    
   231  116  238 1    
   232  116  239 1    
   233  117  118 2    
   234  117  119 am   BACKBONE|DICT|INTERRES
   235  119  120 1    
   236  119  240 1    
   237  120  121 1    
   238  120  124 1    
   239  120  241 1    
   240  121  122 am   BACKBONE|DICT|INTERRES
   241  121  123 2    
   242  122  242 1    
   243  122  243 1    
   244  124  125 1    
   245  124  244 1    
   246  124  245 1    
   247  125  126 1    
   248  126  246 1    
   249  126  247 1    
@<TRIPOS>SUBSTRUCTURE
     1 UNK         1 GROUP             0       ****    0 ROOT    
