@<TRIPOS>MOLECULE
3R540
247   249    1
SMALL
USER_CHARGES


@<TRIPOS>ATOM
      1 CA         -6.2308  -17.4346  -45.6174 C.3       0 UNK        -0.1800 
      2 C          -5.4255  -16.1570  -45.4247 C.2       0 UNK         0.5000 
      3 O          -5.7400  -15.3579  -44.5436 O.2       0 UNK        -0.5000 
      4 N          -4.3681  -15.9694  -46.2231 N.am      1 UNK        -0.5000 
      5 CA         -3.4548  -14.8160  -46.2322 C.3       1 UNK         0.1400 
      6 C6         -2.7935  -14.6325  -47.6258 C.3       23 UNK        -0.0398 
      7 S7         -2.0038  -16.1483  -48.2666 S.3       23 UNK        -0.2404 
      8 C8         -1.2167  -15.5225  -49.7798 C.3       23 UNK        -0.0205 
      9 C9         -0.6463  -16.6781  -50.5835 C.ar      23 UNK        -0.0193 
     10 C10        -1.3824  -17.2426  -51.6282 C.ar      23 UNK        -0.1150 
     11 C11        -0.9002  -18.3627  -52.3123 C.ar      23 UNK        -0.0193 
     12 C12         0.3371  -18.9063  -51.9566 C.ar      23 UNK        -0.1150 
     13 C13         1.0750  -18.3563  -50.9044 C.ar      23 UNK        -0.0193 
     14 C14         0.5891  -17.2289  -50.2362 C.ar      23 UNK        -0.1150 
     15 C15         2.3307  -19.0546  -50.4009 C.3       23 UNK        -0.0205 
     16 S16         1.9528  -20.6384  -49.5637 S.3       23 UNK        -0.2404 
     17 C17         0.3885  -20.2537  -48.7025 C.3       23 UNK        -0.0398 
     18 CA         -0.1464  -21.4077  -47.8325 C.3       11 UNK         0.1400 
     19 N           0.7905  -21.7662  -46.7592 N.am      11 UNK        -0.5000 
     20 C           0.5930  -22.6082  -45.7346 C.2       10 UNK         0.5000 
     21 O          -0.5007  -23.0879  -45.4328 O.2       10 UNK        -0.5000 
     22 CA          1.8365  -23.0142  -44.9314 C.3       10 UNK         0.1400 
     23 CB          3.1226  -23.0687  -45.7839 C.3       10 UNK        -0.1800 
     24 N           2.0302  -22.1236  -43.7904 N.am      10 UNK        -0.5000 
     25 C           2.6564  -22.4835  -42.6605 C.2       9 UNK         0.5000 
     26 O           3.0507  -23.6315  -42.4474 O.2       9 UNK        -0.5000 
     27 CA          2.9294  -21.4068  -41.5886 C.3       9 UNK         0.1400 
     28 CB          4.4347  -21.1041  -41.5095 C.3       9 UNK        -0.1800 
     29 N           2.2222  -20.1485  -41.8074 N.am      9 UNK        -0.5000 
     30 C           0.9228  -19.9376  -41.5663 C.2       8 UNK         0.5000 
     31 O           0.1634  -20.7829  -41.0932 O.2       8 UNK        -0.5000 
     32 CA          0.3819  -18.5470  -41.9518 C.3       8 UNK         0.1400 
     33 CB          0.5948  -17.5624  -40.7928 C.3       8 UNK        -0.1800 
     34 N           0.9980  -18.0092  -43.1704 N.am      8 UNK        -0.5000 
     35 C           0.9628  -18.6083  -44.3694 C.2       7 UNK         0.5000 
     36 O           0.3719  -19.6639  -44.5813 O.2       7 UNK        -0.5000 
     37 CA          1.7553  -17.9621  -45.5130 C.3       7 UNK         0.1400 
     38 CB          0.9459  -16.8386  -46.1636 C.3       7 UNK        -0.1800 
     39 N           3.0423  -17.4534  -45.0518 N.am      7 UNK        -0.5000 
     40 C           4.1113  -18.2287  -44.8228 C.2       6 UNK         0.5000 
     41 O           4.1382  -19.4397  -45.0421 O.2       6 UNK        -0.5000 
     42 CA          5.3489  -17.5378  -44.2211 C.3       6 UNK         0.1400 
     43 CB          6.2559  -16.9910  -45.3335 C.3       6 UNK        -0.1800 
     44 N           5.0000  -16.4504  -43.3047 N.am      6 UNK        -0.5000 
     45 C           4.3850  -16.6227  -42.1262 C.2       5 UNK         0.5000 
     46 O           4.0747  -17.7240  -41.6724 O.2       5 UNK        -0.5000 
     47 CA          4.0141  -15.3453  -41.3500 C.3       5 UNK         0.1400 
     48 CB          5.1855  -14.8915  -40.4666 C.3       5 UNK        -0.1800 
     49 N           3.5962  -14.2348  -42.2133 N.am      5 UNK        -0.5000 
     50 C           2.5115  -14.2540  -42.9984 C.2       4 UNK         0.5000 
     51 O           1.7817  -15.2392  -43.1289 O.2       4 UNK        -0.5000 
     52 CA          2.1979  -12.9743  -43.7879 C.3       4 UNK         0.1400 
     53 CB          2.4161  -13.1931  -45.2930 C.3       4 UNK        -0.1800 
     54 N           0.8048  -12.6123  -43.5523 N.am      4 UNK        -0.5000 
     55 C           0.3886  -11.8036  -42.5666 C.2       3 UNK         0.5000 
     56 O           1.1476  -11.1386  -41.8603 O.2       3 UNK        -0.5000 
     57 CA         -1.1307  -11.7528  -42.3001 C.3       3 UNK         0.1400 
     58 CB         -1.7854  -10.6221  -43.1079 C.3       3 UNK        -0.1800 
     59 N          -1.7909  -13.0171  -42.6253 N.am      3 UNK        -0.5000 
     60 C          -1.5782  -14.1762  -41.9881 C.2       2 UNK         0.5000 
     61 O          -0.9700  -14.2491  -40.9200 O.2       2 UNK        -0.5000 
     62 CA         -2.1032  -15.4693  -42.6534 C.3       2 UNK         0.1400 
     63 CB         -2.9385  -16.3068  -41.6709 C.3       2 UNK        -0.1800 
     64 N          -2.8833  -15.2761  -43.8800 N.am      2 UNK        -0.5000 
     65 C          -2.4363  -14.8340  -45.0629 C.2       1 UNK         0.5000 
     66 O          -1.2876  -14.4212  -45.2277 O.2       1 UNK        -0.5000 
     67 C          -1.5862  -21.0616  -47.4037 C.2       11 UNK         0.5000 
     68 O          -2.5190  -21.4193  -48.1245 O.2       11 UNK        -0.5000 
     69 N          -1.7572  -20.3937  -46.2565 N.am      12 UNK        -0.5000 
     70 CA         -3.0622  -20.0009  -45.7213 C.3       12 UNK         0.1400 
     71 CB         -2.8586  -19.0735  -44.5142 C.3       12 UNK        -0.1800 
     72 C          -3.9594  -21.1991  -45.3506 C.2       12 UNK         0.5000 
     73 O          -5.1815  -21.0531  -45.3535 O.2       12 UNK        -0.5000 
     74 N          -3.3433  -22.3555  -45.0710 N.am      13 UNK        -0.5000 
     75 CA         -4.0164  -23.6275  -44.8252 C.3       13 UNK         0.1400 
     76 CB         -3.4980  -24.2225  -43.5065 C.3       13 UNK        -0.1800 
     77 C          -3.7836  -24.6086  -45.9865 C.2       13 UNK         0.5000 
     78 O          -4.7331  -25.2543  -46.4289 O.2       13 UNK        -0.5000 
     79 N          -2.5320  -24.7102  -46.4583 N.am      14 UNK        -0.5000 
     80 CA         -2.0871  -25.7020  -47.4410 C.3       14 UNK         0.1400 
     81 CB         -0.5510  -25.7473  -47.4581 C.3       14 UNK        -0.1800 
     82 C          -2.6318  -25.4586  -48.8587 C.2       14 UNK         0.5000 
     83 O          -3.0122  -26.4164  -49.5327 O.2       14 UNK        -0.5000 
     84 N          -2.6635  -24.1881  -49.2780 N.am      15 UNK        -0.5000 
     85 CA         -3.2011  -23.7487  -50.5682 C.3       15 UNK         0.1400 
     86 CB         -2.1891  -22.7888  -51.2231 C.3       15 UNK        -0.1800 
     87 C          -4.5699  -23.0634  -50.4034 C.2       15 UNK         0.5000 
     88 O          -5.1786  -22.6869  -51.4041 O.2       15 UNK        -0.5000 
     89 N          -5.0022  -22.8523  -49.1487 N.am      16 UNK        -0.5000 
     90 CA         -6.1848  -22.0934  -48.7193 C.3       16 UNK         0.1400 
     91 CB         -7.4731  -22.8415  -49.1180 C.3       16 UNK        -0.1800 
     92 C          -6.1815  -20.6254  -49.2068 C.2       16 UNK         0.5000 
     93 O          -7.2440  -20.0094  -49.3008 O.2       16 UNK        -0.5000 
     94 N          -4.9874  -20.1132  -49.5483 N.am      17 UNK        -0.5000 
     95 CA         -4.7163  -18.8511  -50.2437 C.3       17 UNK         0.1400 
     96 CB         -5.0441  -17.6574  -49.3281 C.3       17 UNK        -0.1800 
     97 C          -5.3847  -18.7269  -51.6359 C.2       17 UNK         0.5000 
     98 O          -5.5393  -17.6087  -52.1301 O.2       17 UNK        -0.5000 
     99 N          -5.7696  -19.8537  -52.2558 N.am      18 UNK        -0.5000 
    100 CA        -6.4189  -19.8912  -53.5657 C.3       18 UNK         0.1400 
    101 CB        -7.1190  -21.2460  -53.7511 C.3       18 UNK        -0.1800 
    102 C         -5.3964  -19.6509  -54.6868 C.2       18 UNK         0.5000 
    103 O         -4.3606  -20.3165  -54.7103 O.2       18 UNK        -0.5000 
    104 N         -5.7156  -18.7312  -55.6076 N.am      19 UNK        -0.5000 
    105 CA        -4.8343  -18.2557  -56.6821 C.3       19 UNK         0.1400 
    106 CB        -5.5677  -17.1713  -57.4861 C.3       19 UNK        -0.1800 
    107 C         -4.3054  -19.3545  -57.6259 C.2       19 UNK         0.5000 
    108 O         -3.1896  -19.2395  -58.1332 O.2       19 UNK        -0.5000 
    109 N         -5.1076  -20.4063  -57.8301 N.am      20 UNK        -0.5000 
    110 CA        -4.7573  -21.5730  -58.6401 C.3       20 UNK         0.1400 
    111 CB        -6.0549  -22.2830  -59.0581 C.3       20 UNK        -0.1800 
    112 C         -3.8141  -22.5607  -57.9225 C.2       20 UNK         0.5000 
    113 O         -3.2252  -23.4120  -58.5901 O.2       20 UNK        -0.5000 
    114 N         -3.7035  -22.4585  -56.5911 N.am      21 UNK        -0.5000 
    115 CA        -2.9584  -23.3866  -55.7402 C.3       21 UNK         0.1400 
    116 CB        -3.8364  -23.7436  -54.5294 C.3       21 UNK        -0.1800 
    117 C         -1.5937  -22.8325  -55.2884 C.2       21 UNK         0.5000 
    118 O         -0.8571  -23.5566  -54.6167 O.2       21 UNK        -0.5000 
    119 N         -1.2707  -21.5791  -55.6387 N.am      22 UNK        -0.5000 
    120 CA         0.0113  -20.9316  -55.3133 C.3       22 UNK         0.1400 
    121 C          1.2292  -21.6185  -55.9961 C.2       22 UNK         0.5000 
    122 N          2.3695  -21.6920  -55.3225 N.am      22 UNK        -0.7600 
    123 O          1.1636  -22.0424  -57.1480 O.2       22 UNK        -0.5000 
    124 C124        0.0165  -19.4132  -55.6415 C.3       23 UNK        -0.0398 
    125 S125       -1.3967  -18.4151  -55.0483 S.3       23 UNK        -0.2404 
    126 C126       -1.7606  -19.0263  -53.3737 C.3       23 UNK        -0.0205 
    127 H127       -6.3315  -17.9621  -44.6689 H         1 UNK         0.0600 
    128 H128       -5.7607  -18.1132  -46.3285 H         1 UNK         0.0600 
    129 H129       -7.2293  -17.1964  -45.9836 H         1 UNK         0.0600 
    130 H130       -4.1361  -16.6751  -46.9064 H         1 UNK         0.3000 
    131 H131       -4.0605  -13.9237  -46.0614 H         1 UNK         0.0600 
    132 H132       -2.0666  -13.8183  -47.6177 H         1 UNK         0.0800 
    133 H133       -3.5579  -14.3337  -48.3443 H         1 UNK         0.0800 
    134 H134       -1.9470  -14.9704  -50.3734 H         1 UNK         0.0800 
    135 H135       -0.4253  -14.8188  -49.5177 H         1 UNK         0.0800 
    136 H136       -2.3498  -16.8328  -51.8839 H         1 UNK         0.1150 
    137 H137        0.7006  -19.7955  -52.4483 H         1 UNK         0.1150 
    138 H138        1.1403  -16.8154  -49.4037 H         1 UNK         0.1150 
    139 H139        3.0067  -19.2415  -51.2363 H         1 UNK         0.0800 
    140 H140        2.8723  -18.4114  -49.7055 H         1 UNK         0.0800 
    141 H141       -0.3536  -20.0110  -49.4654 H         1 UNK         0.0800 
    142 H142        0.5234  -19.3500  -48.1065 H         1 UNK         0.0800 
    143 H143       -0.2239  -22.2925  -48.4671 H         1 UNK         0.0600 
    144 H144        1.7321  -21.4291  -46.8976 H         1 UNK         0.3000 
    145 H145        1.6339  -24.0238  -44.5674 H         1 UNK         0.0600 
    146 H146        3.9353  -23.5436  -45.2342 H         1 UNK         0.0600 
    147 H147        2.9697  -23.6508  -46.6939 H         1 UNK         0.0600 
    148 H148        3.4633  -22.0741  -46.0746 H         1 UNK         0.0600 
    149 H149        1.6638  -21.1832  -43.8878 H         1 UNK         0.3000 
    150 H150        2.6139  -21.8178  -40.6275 H         1 UNK         0.0600 
    151 H151        5.0097  -22.0090  -41.3089 H         1 UNK         0.0600 
    152 H152        4.6534  -20.3976  -40.7084 H         1 UNK         0.0600 
    153 H153        4.8062  -20.6773  -42.4421 H         1 UNK         0.0600 
    154 H154        2.7805  -19.3694  -42.1374 H         1 UNK         0.3000 
    155 H155       -0.6900  -18.6380  -42.1360 H         1 UNK         0.0600 
    156 H156        0.2874  -16.5542  -41.0620 H         1 UNK         0.0600 
    157 H157        0.0140  -17.8596  -39.9190 H         1 UNK         0.0600 
    158 H158        1.6405  -17.5166  -40.4892 H         1 UNK         0.0600 
    159 H159        1.4563  -17.1051  -43.0907 H         1 UNK         0.3000 
    160 H160        1.9350  -18.7272  -46.2709 H         1 UNK         0.0600 
    161 H161        0.7149  -16.0492  -45.4507 H         1 UNK         0.0600 
    162 H162       -0.0008  -17.2239  -46.5400 H         1 UNK         0.0600 
    163 H163        1.4791  -16.3926  -47.0026 H         1 UNK         0.0600 
    164 H164        3.0812  -16.4781  -44.7945 H         1 UNK         0.3000 
    165 H165        5.9083  -18.2895  -43.6600 H         1 UNK         0.0600 
    166 H166        7.1712  -16.5647  -44.9224 H         1 UNK         0.0600 
    167 H167        6.5491  -17.7843  -46.0225 H         1 UNK         0.0600 
    168 H168        5.7565  -16.2168  -45.9175 H         1 UNK         0.0600 
    169 H169        5.2205  -15.5112  -43.6011 H         1 UNK         0.3000 
    170 H170        3.1736  -15.5907  -40.6978 H         1 UNK         0.0600 
    171 H171        5.5039  -15.6932  -39.7987 H         1 UNK         0.0600 
    172 H172        6.0505  -14.5975  -41.0624 H         1 UNK         0.0600 
    173 H173        4.9033  -14.0437  -39.8420 H         1 UNK         0.0600 
    174 H174        4.1484  -13.3909  -42.1585 H         1 UNK         0.3000 
    175 H175        2.8604  -12.1707  -43.4595 H         1 UNK         0.0600 
    176 H176        3.4371  -13.5161  -45.4998 H         1 UNK         0.0600 
    177 H177        1.7417  -13.9490  -45.6953 H         1 UNK         0.0600 
    178 H178        2.2472  -12.2713  -45.8496 H         1 UNK         0.0600 
    179 H179        0.1169  -13.1677  -44.0486 H         1 UNK         0.3000 
    180 H180       -1.2794  -11.5506  -41.2374 H         1 UNK         0.0600 
    181 H181       -1.6800  -10.7811  -44.1819 H         1 UNK         0.0600 
    182 H182       -1.3291   -9.6599  -42.8718 H         1 UNK         0.0600 
    183 H183       -2.8489  -10.5407  -42.8825 H         1 UNK         0.0600 
    184 H184       -2.2938  -13.0523  -43.4991 H         1 UNK         0.3000 
    185 H185       -1.2203  -16.0502  -42.9262 H         1 UNK         0.0600 
    186 H186       -2.3787  -16.5278  -40.7614 H         1 UNK         0.0600 
    187 H187       -3.8505  -15.7857  -41.3776 H         1 UNK         0.0600 
    188 H188       -3.2241  -17.2625  -42.1099 H         1 UNK         0.0600 
    189 H189       -3.8701  -15.5045  -43.8251 H         1 UNK         0.3000 
    190 H190       -0.9435  -20.1753  -45.6830 H         1 UNK         0.3000 
    191 H191       -3.5806  -19.4368  -46.4992 H         1 UNK         0.0600 
    192 H192       -2.3305  -19.5817  -43.7070 H         1 UNK         0.0600 
    193 H193       -3.8148  -18.7316  -44.1171 H         1 UNK         0.0600 
    194 H194       -2.2842  -18.1880  -44.7876 H         1 UNK         0.0600 
    195 H195       -2.3293  -22.3836  -45.1132 H         1 UNK         0.3000 
    196 H196       -5.0940  -23.4806  -44.7272 H         1 UNK         0.0600 
    197 H197       -3.9708  -25.1829  -43.2975 H         1 UNK         0.0600 
    198 H198       -3.7168  -23.5626  -42.6669 H         1 UNK         0.0600 
    199 H199       -2.4193  -24.3837  -43.5308 H         1 UNK         0.0600 
    200 H200       -1.8012  -24.1426  -46.0340 H         1 UNK         0.3000 
    201 H201       -2.4474  -26.6793  -47.1128 H         1 UNK         0.0600 
    202 H202       -0.1509  -25.9671  -46.4681 H         1 UNK         0.0600 
    203 H203       -0.1222  -24.8017  -47.7910 H         1 UNK         0.0600 
    204 H204       -0.1916  -26.5246  -48.1335 H         1 UNK         0.0600 
    205 H205       -2.3631  -23.4517  -48.6520 H         1 UNK         0.3000 
    206 H206       -3.3448  -24.5980  -51.2388 H         1 UNK         0.0600 
    207 H207       -1.2281  -23.2786  -51.3808 H         1 UNK         0.0600 
    208 H208       -2.5385  -22.4494  -52.1978 H         1 UNK         0.0600 
    209 H209       -2.0150  -21.8983  -50.6205 H         1 UNK         0.0600 
    210 H210       -4.4106  -23.1854  -48.4021 H         1 UNK         0.3000 
    211 H211       -6.1475  -22.0559  -47.6307 H         1 UNK         0.0600 
    212 H212       -7.4530  -23.8735  -48.7678 H         1 UNK         0.0600 
    213 H213       -8.3529  -22.3690  -48.6798 H         1 UNK         0.0600 
    214 H214       -7.6141  -22.8560  -50.1993 H         1 UNK         0.0600 
    215 H215       -4.1763  -20.6957  -49.3749 H         1 UNK         0.3000 
    216 H216       -3.6410  -18.8384  -50.4264 H         1 UNK         0.0600 
    217 H217       -6.1149  -17.5629  -49.1463 H         1 UNK         0.0600 
    218 H218       -4.7004  -16.7187  -49.7642 H         1 UNK         0.0600 
    219 H219       -4.5468  -17.7703  -48.3674 H         1 UNK         0.0600 
    220 H220       -5.5697  -20.7535  -51.8304 H         1 UNK         0.3000 
    221 H221       -7.1807  -19.1094  -53.5976 H         1 UNK         0.0600 
    222 H222       -7.8391  -21.4300  -52.9535 H         1 UNK         0.0600 
    223 H223       -6.4076  -22.0722  -53.7540 H         1 UNK         0.0600 
    224 H224       -7.6620  -21.2789  -54.6962 H         1 UNK         0.0600 
    225 H225       -6.5966  -18.2463  -55.5166 H         1 UNK         0.3000 
    226 H226       -3.9699  -17.7907  -56.2075 H         1 UNK         0.0600 
    227 H227       -5.8513  -16.3320  -56.8507 H         1 UNK         0.0600 
    228 H228       -4.9319  -16.7749  -58.2790 H         1 UNK         0.0600 
    229 H229       -6.4726  -17.5605  -57.9544 H         1 UNK         0.0600 
    230 H230       -6.0066  -20.4213  -57.3714 H         1 UNK         0.3000 
    231 H231       -4.2493  -21.2330  -59.5451 H         1 UNK         0.0600 
    232 H232       -6.6116  -22.6456  -58.1930 H         1 UNK         0.0600 
    233 H233       -5.8434  -23.1423  -59.6959 H         1 UNK         0.0600 
    234 H234       -6.7064  -21.6151  -59.6220 H         1 UNK         0.0600 
    235 H235       -4.1600  -21.6914  -56.1065 H         1 UNK         0.3000 
    236 H236       -2.7559  -24.3126  -56.2820 H         1 UNK         0.0600 
    237 H237       -4.7759  -24.1982  -54.8437 H         1 UNK         0.0600 
    238 H238       -3.3358  -24.4563  -53.8731 H         1 UNK         0.0600 
    239 H239       -4.0767  -22.8624  -53.9355 H         1 UNK         0.0600 
    240 H240       -1.9261  -21.0386  -56.1843 H         1 UNK         0.3000 
    241 H241        0.1505  -21.0485  -54.2390 H         1 UNK         0.0600 
    242 H242        3.1685  -22.1209  -55.7636 H         1 UNK         0.3800 
    243 H243        2.4552  -21.3484  -54.3788 H         1 UNK         0.3800 
    244 H244        0.0605  -19.2699  -56.7229 H         1 UNK         0.0800 
    245 H245        0.9239  -18.9545  -55.2448 H         1 UNK         0.0800 
    246 H246       -2.8068  -18.8023  -53.1676 H         1 UNK         0.0800 
    247 H247       -1.6889  -20.1111  -53.3125 H         1 UNK         0.0800 
@<TRIPOS>BOND
     1    1    2 1    
     2    1  127 1    
     3    1  128 1    
     4    1  129 1    
     5    2    3 2    
     6    2    4 am   BACKBONE|DICT|INTERRES
     7    4    5 1    
     8    4  130 1    
     9    5    6 1    
    10    5   65 1    
    11    5  131 1    
    12    6    7 1    
    13    6  132 1    
    14    6  133 1    
    15    7    8 1    
    16    8    9 1    
    17    8  134 1    
    18    8  135 1    
    19    9   10 ar   
    20    9   14 ar   
    21   10   11 ar   
    22   10  136 1    
    23   11   12 ar   
    24   11  126 1    
    25   12   13 ar   
    26   12  137 1    
    27   13   14 ar   
    28   13   15 1    
    29   14  138 1    
    30   15   16 1    
    31   15  139 1    
    32   15  140 1    
    33   16   17 1    
    34   17   18 1    
    35   17  141 1    
    36   17  142 1    
    37   18   19 1    
    38   18   67 1    
    39   18  143 1    
    40   19   20 am   BACKBONE|DICT|INTERRES
    41   19  144 1    
    42   20   21 2    
    43   20   22 1    
    44   22   23 1    
    45   22   24 1    
    46   22  145 1    
    47   23  146 1    
    48   23  147 1    
    49   23  148 1    
    50   24   25 am   BACKBONE|DICT|INTERRES
    51   24  149 1    
    52   25   26 2    
    53   25   27 1    
    54   27   28 1    
    55   27   29 1    
    56   27  150 1    
    57   28  151 1    
    58   28  152 1    
    59   28  153 1    
    60   29   30 am   BACKBONE|DICT|INTERRES
    61   29  154 1    
    62   30   31 2    
    63   30   32 1    
    64   32   33 1    
    65   32   34 1    
    66   32  155 1    
    67   33  156 1    
    68   33  157 1    
    69   33  158 1    
    70   34   35 am   BACKBONE|DICT|INTERRES
    71   34  159 1    
    72   35   36 2    
    73   35   37 1    
    74   37   38 1    
    75   37   39 1    
    76   37  160 1    
    77   38  161 1    
    78   38  162 1    
    79   38  163 1    
    80   39   40 am   BACKBONE|DICT|INTERRES
    81   39  164 1    
    82   40   41 2    
    83   40   42 1    
    84   42   43 1    
    85   42   44 1    
    86   42  165 1    
    87   43  166 1    
    88   43  167 1    
    89   43  168 1    
    90   44   45 am   BACKBONE|DICT|INTERRES
    91   44  169 1    
    92   45   46 2    
    93   45   47 1    
    94   47   48 1    
    95   47   49 1    
    96   47  170 1    
    97   48  171 1    
    98   48  172 1    
    99   48  173 1    
   100   49   50 am   BACKBONE|DICT|INTERRES
   101   49  174 1    
   102   50   51 2    
   103   50   52 1    
   104   52   53 1    
   105   52   54 1    
   106   52  175 1    
   107   53  176 1    
   108   53  177 1    
   109   53  178 1    
   110   54   55 am   BACKBONE|DICT|INTERRES
   111   54  179 1    
   112   55   56 2    
   113   55   57 1    
   114   57   58 1    
   115   57   59 1    
   116   57  180 1    
   117   58  181 1    
   118   58  182 1    
   119   58  183 1    
   120   59   60 am   BACKBONE|DICT|INTERRES
   121   59  184 1    
   122   60   61 2    
   123   60   62 1    
   124   62   63 1    
   125   62   64 1    
   126   62  185 1    
   127   63  186 1    
   128   63  187 1    
   129   63  188 1    
   130   64   65 am   BACKBONE|DICT|INTERRES
   131   64  189 1    
   132   65   66 2    
   133   67   68 2    
   134   67   69 am   BACKBONE|DICT|INTERRES
   135   69   70 1    
   136   69  190 1    
   137   70   71 1    
   138   70   72 1    
   139   70  191 1    
   140   71  192 1    
   141   71  193 1    
   142   71  194 1    
   143   72   73 2    
   144   72   74 am   BACKBONE|DICT|INTERRES
   145   74   75 1    
   146   74  195 1    
   147   75   76 1    
   148   75   77 1    
   149   75  196 1    
   150   76  197 1    
   151   76  198 1    
   152   76  199 1    
   153   77   78 2    
   154   77   79 am   BACKBONE|DICT|INTERRES
   155   79   80 1    
   156   79  200 1    
   157   80   81 1    
   158   80   82 1    
   159   80  201 1    
   160   81  202 1    
   161   81  203 1    
   162   81  204 1    
   163   82   83 2    
   164   82   84 am   BACKBONE|DICT|INTERRES
   165   84   85 1    
   166   84  205 1    
   167   85   86 1    
   168   85   87 1    
   169   85  206 1    
   170   86  207 1    
   171   86  208 1    
   172   86  209 1    
   173   87   88 2    
   174   87   89 am   BACKBONE|DICT|INTERRES
   175   89   90 1    
   176   89  210 1    
   177   90   91 1    
   178   90   92 1    
   179   90  211 1    
   180   91  212 1    
   181   91  213 1    
   182   91  214 1    
   183   92   93 2    
   184   92   94 am   BACKBONE|DICT|INTERRES
   185   94   95 1    
   186   94  215 1    
   187   95   96 1    
   188   95   97 1    
   189   95  216 1    
   190   96  217 1    
   191   96  218 1    
   192   96  219 1    
   193   97   98 2    
   194   97   99 am   BACKBONE|DICT|INTERRES
   195   99  100 1    
   196   99  220 1    
   197  100  101 1    
   198  100  102 1    
   199  100  221 1    
   200  101  222 1    
   201  101  223 1    
   202  101  224 1    
   203  102  103 2    
   204  102  104 am   BACKBONE|DICT|INTERRES
   205  104  105 1    
   206  104  225 1    
   207  105  106 1    
   208  105  107 1    
   209  105  226 1    
   210  106  227 1    
   211  106  228 1    
   212  106  229 1    
   213  107  108 2    
   214  107  109 am   BACKBONE|DICT|INTERRES
   215  109  110 1    
   216  109  230 1    
   217  110  111 1    
   218  110  112 1    
   219  110  231 1    
   220  111  232 1    
   221  111  233 1    
   222  111  234 1    
   223  112  113 2    
   224  112  114 am   BACKBONE|DICT|INTERRES
   225  114  115 1    
   226  114  235 1    
   227  115  116 1    
   228  115  117 1    
   229  115  236 1    
   230  116  237 1    
   231  116  238 1    
   232  116  239 1    
   233  117  118 2    
   234  117  119 am   BACKBONE|DICT|INTERRES
   235  119  120 1    
   236  119  240 1    
   237  120  121 1    
   238  120  124 1    
   239  120  241 1    
   240  121  122 am   BACKBONE|DICT|INTERRES
   241  121  123 2    
   242  122  242 1    
   243  122  243 1    
   244  124  125 1    
   245  124  244 1    
   246  124  245 1    
   247  125  126 1    
   248  126  246 1    
   249  126  247 1    
@<TRIPOS>SUBSTRUCTURE
     1 UNK         1 GROUP             0       ****    0 ROOT    
