@<TRIPOS>MOLECULE
3R540
247   249    1
SMALL
USER_CHARGES


@<TRIPOS>ATOM
      1 CA          4.1635  -10.4247  -52.2957 C.3       0 UNK        -0.1800 
      2 C           3.5733  -11.0367  -51.0327 C.2       0 UNK         0.5000 
      3 O           3.3702  -10.3276  -50.0464 O.2       0 UNK        -0.5000 
      4 N           3.3070  -12.3485  -51.0573 N.am      1 UNK        -0.5000 
      5 CA          2.6726  -13.0952  -49.9658 C.3       1 UNK         0.1400 
      6 C6          2.9876  -14.6117  -50.0637 C.3       23 UNK        -0.0398 
      7 S7          3.0166  -15.4110  -48.4191 S.3       23 UNK        -0.2404 
      8 C8          4.2083  -16.7739  -48.6538 C.3       23 UNK        -0.0205 
      9 C9          3.5826  -18.1080  -49.0600 C.ar      23 UNK        -0.0193 
     10 C10         2.4237  -18.1823  -49.8443 C.ar      23 UNK        -0.1150 
     11 C11         1.8771  -19.4183  -50.1944 C.ar      23 UNK        -0.0193 
     12 C12         2.5065  -20.5912  -49.7762 C.ar      23 UNK        -0.1150 
     13 C13         3.6651  -20.5381  -48.9994 C.ar      23 UNK        -0.0193 
     14 C14         4.1967  -19.2952  -48.6447 C.ar      23 UNK        -0.1150 
     15 C15         4.3357  -21.8259  -48.5445 C.3       23 UNK        -0.0205 
     16 S16         3.8016  -22.3192  -46.8758 S.3       23 UNK        -0.2404 
     17 C17         2.0044  -22.5233  -47.1153 C.3       23 UNK        -0.0398 
     18 CA          1.3621  -23.5012  -46.1075 C.3       11 UNK         0.1400 
     19 N           1.6025  -23.1025  -44.7198 N.am      11 UNK        -0.5000 
     20 C           1.5403  -23.9109  -43.6558 C.2       10 UNK         0.5000 
     21 O           1.2601  -25.1079  -43.7356 O.2       10 UNK        -0.5000 
     22 CA          1.7896  -23.2659  -42.2751 C.3       10 UNK         0.1400 
     23 CB          2.4571  -24.2319  -41.2746 C.3       10 UNK        -0.1800 
     24 N           2.5025  -21.9831  -42.3396 N.am      10 UNK        -0.5000 
     25 C           3.7707  -21.7544  -42.7175 C.2       9 UNK         0.5000 
     26 O           4.5619  -22.6450  -43.0287 O.2       9 UNK        -0.5000 
     27 CA          4.2432  -20.2836  -42.7723 C.3       9 UNK         0.1400 
     28 CB          4.5374  -19.8618  -44.2212 C.3       9 UNK        -0.1800 
     29 N           3.2854  -19.3352  -42.2003 N.am      9 UNK        -0.5000 
     30 C           3.0700  -19.1421  -40.8924 C.2       8 UNK         0.5000 
     31 O           3.7188  -19.6939  -40.0032 O.2       8 UNK        -0.5000 
     32 CA          1.8964  -18.2140  -40.5180 C.3       8 UNK         0.1400 
     33 CB          2.3555  -16.7498  -40.4548 C.3       8 UNK        -0.1800 
     34 N           0.7571  -18.3359  -41.4343 N.am      8 UNK        -0.5000 
     35 C           0.0329  -19.4532  -41.5947 C.2       7 UNK         0.5000 
     36 O           0.2240  -20.4858  -40.9533 O.2       7 UNK        -0.5000 
     37 CA         -1.0450  -19.4470  -42.6903 C.3       7 UNK         0.1400 
     38 CB         -2.3408  -18.7912  -42.1930 C.3       7 UNK        -0.1800 
     39 N          -0.5947  -18.8019  -43.9234 N.am      7 UNK        -0.5000 
     40 C           0.3596  -19.2879  -44.7300 C.2       6 UNK         0.5000 
     41 O           0.9037  -20.3771  -44.5544 O.2       6 UNK        -0.5000 
     42 CA          0.8077  -18.3984  -45.9052 C.3       6 UNK         0.1400 
     43 CB         -0.1311  -18.5734  -47.1084 C.3       6 UNK        -0.1800 
     44 N           0.8797  -16.9846  -45.5321 N.am      6 UNK        -0.5000 
     45 C           1.7104  -16.4859  -44.6052 C.2       5 UNK         0.5000 
     46 O           2.5565  -17.1580  -44.0169 O.2       5 UNK        -0.5000 
     47 CA          1.5168  -15.0104  -44.2127 C.3       5 UNK         0.1400 
     48 CB          2.2635  -14.0617  -45.1601 C.3       5 UNK        -0.1800 
     49 N           0.1035  -14.6400  -44.1604 N.am      5 UNK        -0.5000 
     50 C          -0.7402  -15.0246  -43.1938 C.2       4 UNK         0.5000 
     51 O          -0.4029  -15.7067  -42.2263 O.2       4 UNK        -0.5000 
     52 CA         -2.2137  -14.6061  -43.3578 C.3       4 UNK         0.1400 
     53 CB         -2.4302  -13.1738  -42.8473 C.3       4 UNK        -0.1800 
     54 N          -2.6750  -14.7024  -44.7444 N.am      4 UNK        -0.5000 
     55 C          -2.8157  -15.8573  -45.4098 C.2       3 UNK         0.5000 
     56 O          -2.6114  -16.9609  -44.9077 O.2       3 UNK        -0.5000 
     57 CA         -3.1944  -15.7679  -46.8999 C.3       3 UNK         0.1400 
     58 CB         -4.7188  -15.7768  -47.0799 C.3       3 UNK        -0.1800 
     59 N          -2.6221  -14.6126  -47.5997 N.am      3 UNK        -0.5000 
     60 C          -1.3098  -14.3732  -47.7167 C.2       2 UNK         0.5000 
     61 O          -0.4413  -15.0723  -47.1888 O.2       2 UNK        -0.5000 
     62 CA         -0.8994  -13.1329  -48.5216 C.3       2 UNK         0.1400 
     63 CB         -1.1904  -11.8433  -47.7354 C.3       2 UNK        -0.1800 
     64 N           0.5311  -13.2166  -48.7919 N.am      2 UNK        -0.5000 
     65 C           1.1498  -12.8228  -49.9068 C.2       1 UNK         0.5000 
     66 O           0.5684  -12.2913  -50.8573 O.2       1 UNK        -0.5000 
     67 C          -0.1455  -23.6288  -46.3978 C.2       11 UNK         0.5000 
     68 O          -0.5320  -24.4165  -47.2622 O.2       11 UNK        -0.5000 
     69 N          -0.9770  -22.8819  -45.6534 N.am      12 UNK        -0.5000 
     70 CA         -2.4419  -22.8484  -45.7632 C.3       12 UNK         0.1400 
     71 CB         -2.9842  -21.6976  -44.9028 C.3       12 UNK        -0.1800 
     72 C          -3.1507  -24.1771  -45.4129 C.2       12 UNK         0.5000 
     73 O          -4.3629  -24.2867  -45.5963 O.2       12 UNK        -0.5000 
     74 N          -2.3934  -25.1712  -44.9295 N.am      13 UNK        -0.5000 
     75 CA         -2.8286  -26.5607  -44.8000 C.3       13 UNK         0.1400 
     76 CB         -1.8102  -27.3172  -43.9336 C.3       13 UNK        -0.1800 
     77 C          -3.0021  -27.2600  -46.1664 C.2       13 UNK         0.5000 
     78 O          -3.7753  -28.2148  -46.2537 O.2       13 UNK        -0.5000 
     79 N          -2.2882  -26.7813  -47.1962 N.am      14 UNK        -0.5000 
     80 CA         -2.3384  -27.2890  -48.5671 C.3       14 UNK         0.1400 
     81 CB         -0.9425  -27.7933  -48.9673 C.3       14 UNK        -0.1800 
     82 C          -2.8247  -26.2085  -49.5477 C.2       14 UNK         0.5000 
     83 O          -3.6569  -26.5029  -50.4069 O.2       14 UNK        -0.5000 
     84 N          -2.3009  -24.9831  -49.4129 N.am      15 UNK        -0.5000 
     85 CA         -2.6706  -23.8244  -50.2250 C.3       15 UNK         0.1400 
     86 CB         -1.5925  -22.7432  -50.0527 C.3       15 UNK        -0.1800 
     87 C          -4.0439  -23.2562  -49.8282 C.2       15 UNK         0.5000 
     88 O          -4.4280  -23.3460  -48.6614 O.2       15 UNK        -0.5000 
     89 N          -4.7311  -22.6263  -50.7881 N.am      16 UNK        -0.5000 
     90 CA         -5.9241  -21.8203  -50.5258 C.3       16 UNK         0.1400 
     91 CB         -6.8583  -21.8679  -51.7416 C.3       16 UNK        -0.1800 
     92 C          -5.5210  -20.3721  -50.2039 C.2       16 UNK         0.5000 
     93 O          -6.0566  -19.7835  -49.2650 O.2       16 UNK        -0.5000 
     94 N          -4.5695  -19.8410  -50.9873 N.am      17 UNK        -0.5000 
     95 CA         -3.8638  -18.5587  -50.8782 C.3       17 UNK         0.1400 
     96 CB         -3.0433  -18.5016  -49.5770 C.3       17 UNK        -0.1800 
     97 C          -4.7215  -17.2880  -51.0537 C.2       17 UNK         0.5000 
     98 O          -4.2308  -16.3111  -51.6191 O.2       17 UNK        -0.5000 
     99 N          -5.9637  -17.3028  -50.5588 N.am      18 UNK        -0.5000 
    100 CA        -6.8667  -16.1547  -50.5175 C.3       18 UNK         0.1400 
    101 CB        -8.0234  -16.4550  -49.5513 C.3       18 UNK        -0.1800 
    102 C         -7.3965  -15.7315  -51.8985 C.2       18 UNK         0.5000 
    103 O         -7.3150  -14.5497  -52.2369 O.2       18 UNK        -0.5000 
    104 N         -7.9478  -16.6871  -52.6592 N.am      19 UNK        -0.5000 
    105 CA        -8.6411  -16.4243  -53.9253 C.3       19 UNK         0.1400 
    106 CB       -10.0331  -15.8139  -53.6488 C.3       19 UNK        -0.1800 
    107 C         -8.7191  -17.6757  -54.8208 C.2       19 UNK         0.5000 
    108 O         -9.6716  -17.8171  -55.5902 O.2       19 UNK        -0.5000 
    109 N         -7.7276  -18.5676  -54.7155 N.am      20 UNK        -0.5000 
    110 CA        -7.6150  -19.7833  -55.5199 C.3       20 UNK         0.1400 
    111 CB        -8.5730  -20.8785  -54.9990 C.3       20 UNK        -0.1800 
    112 C         -6.1347  -20.1934  -55.5929 C.2       20 UNK         0.5000 
    113 O         -5.2906  -19.3284  -55.8377 O.2       20 UNK        -0.5000 
    114 N         -5.8373  -21.4847  -55.3890 N.am      21 UNK        -0.5000 
    115 CA        -4.4983  -22.0788  -55.4142 C.3       21 UNK         0.1400 
    116 CB        -4.6065  -23.5662  -55.0439 C.3       21 UNK        -0.1800 
    117 C         -3.5173  -21.3620  -54.4691 C.2       21 UNK         0.5000 
    118 O         -3.7771  -21.3027  -53.2642 O.2       21 UNK        -0.5000 
    119 N         -2.4280  -20.8303  -55.0384 N.am      22 UNK        -0.5000 
    120 CA        -1.4173  -19.9876  -54.3732 C.3       22 UNK         0.1400 
    121 C         -1.8424  -18.4970  -54.1823 C.2       22 UNK         0.5000 
    122 N         -3.0082  -18.0606  -54.6432 N.am      22 UNK        -0.7600 
    123 O         -1.0926  -17.7032  -53.6234 O.2       22 UNK        -0.5000 
    124 C124       -0.8771  -20.6365  -53.0681 C.3       23 UNK        -0.0398 
    125 S125        0.8415  -20.2051  -52.6426 S.3       23 UNK        -0.2404 
    126 C126        0.5834  -19.4981  -50.9850 C.3       23 UNK        -0.0205 
    127 H127        5.1331   -9.9766  -52.0782 H         1 UNK         0.0600 
    128 H128        3.5043   -9.6452  -52.6778 H         1 UNK         0.0600 
    129 H129        4.3013  -11.1683  -53.0811 H         1 UNK         0.0600 
    130 H130        3.4618  -12.8648  -51.9112 H         1 UNK         0.3000 
    131 H131        3.1029  -12.7171  -49.0352 H         1 UNK         0.0600 
    132 H132        2.2849  -15.1246  -50.7220 H         1 UNK         0.0800 
    133 H133        3.9712  -14.7525  -50.5134 H         1 UNK         0.0800 
    134 H134        4.7334  -16.9013  -47.7057 H         1 UNK         0.0800 
    135 H135        4.9682  -16.4961  -49.3845 H         1 UNK         0.0800 
    136 H136        1.9272  -17.2833  -50.1728 H         1 UNK         0.1150 
    137 H137        2.0852  -21.5467  -50.0547 H         1 UNK         0.1150 
    138 H138        5.0918  -19.2552  -48.0396 H         1 UNK         0.1150 
    139 H139        4.1264  -22.6343  -49.2468 H         1 UNK         0.0800 
    140 H140        5.4189  -21.6965  -48.5447 H         1 UNK         0.0800 
    141 H141        1.8306  -22.8846  -48.1301 H         1 UNK         0.0800 
    142 H142        1.5418  -21.5367  -47.0507 H         1 UNK         0.0800 
    143 H143        1.8073  -24.4862  -46.2633 H         1 UNK         0.0600 
    144 H144        1.7627  -22.1113  -44.5652 H         1 UNK         0.3000 
    145 H145        0.7999  -23.0305  -41.8822 H         1 UNK         0.0600 
    146 H146        2.6193  -23.7502  -40.3104 H         1 UNK         0.0600 
    147 H147        1.8292  -25.1058  -41.0976 H         1 UNK         0.0600 
    148 H148        3.4196  -24.5929  -41.6374 H         1 UNK         0.0600 
    149 H149        1.9391  -21.1777  -42.0972 H         1 UNK         0.3000 
    150 H150        5.1737  -20.2205  -42.2048 H         1 UNK         0.0600 
    151 H151        5.2821  -20.5144  -44.6783 H         1 UNK         0.0600 
    152 H152        4.9266  -18.8446  -44.2659 H         1 UNK         0.0600 
    153 H153        3.6412  -19.9029  -44.8410 H         1 UNK         0.0600 
    154 H154        2.7588  -18.7740  -42.8630 H         1 UNK         0.3000 
    155 H155        1.5522  -18.5029  -39.5229 H         1 UNK         0.0600 
    156 H156        3.1663  -16.6268  -39.7358 H         1 UNK         0.0600 
    157 H157        1.5423  -16.0937  -40.1438 H         1 UNK         0.0600 
    158 H158        2.7189  -16.3988  -41.4203 H         1 UNK         0.0600 
    159 H159        0.5033  -17.5066  -41.9612 H         1 UNK         0.3000 
    160 H160       -1.2638  -20.4897  -42.9202 H         1 UNK         0.0600 
    161 H161       -2.2021  -17.7314  -41.9801 H         1 UNK         0.0600 
    162 H162       -2.6942  -19.2676  -41.2778 H         1 UNK         0.0600 
    163 H163       -3.1352  -18.8822  -42.9340 H         1 UNK         0.0600 
    164 H164       -1.0615  -17.9377  -44.1802 H         1 UNK         0.3000 
    165 H165        1.8088  -18.7144  -46.2065 H         1 UNK         0.0600 
    166 H166        0.1635  -17.9282  -47.9362 H         1 UNK         0.0600 
    167 H167       -0.1109  -19.6012  -47.4725 H         1 UNK         0.0600 
    168 H168       -1.1635  -18.3376  -46.8520 H         1 UNK         0.0600 
    169 H169        0.2581  -16.3462  -46.0219 H         1 UNK         0.3000 
    170 H170        1.9429  -14.8808  -43.2158 H         1 UNK         0.0600 
    171 H171        3.3039  -14.3661  -45.2826 H         1 UNK         0.0600 
    172 H172        1.8069  -14.0378  -46.1476 H         1 UNK         0.0600 
    173 H173        2.2653  -13.0432  -44.7720 H         1 UNK         0.0600 
    174 H174       -0.2651  -14.1447  -44.9586 H         1 UNK         0.3000 
    175 H175       -2.8202  -15.2802  -42.7492 H         1 UNK         0.0600 
    176 H176       -2.1084  -13.0773  -41.8094 H         1 UNK         0.0600 
    177 H177       -1.8688  -12.4459  -43.4343 H         1 UNK         0.0600 
    178 H178       -3.4837  -12.8966  -42.8867 H         1 UNK         0.0600 
    179 H179       -2.8621  -13.8378  -45.2299 H         1 UNK         0.3000 
    180 H180       -2.7945  -16.6623  -47.3768 H         1 UNK         0.0600 
    181 H181       -5.1810  -14.8839  -46.6576 H         1 UNK         0.0600 
    182 H182       -5.1657  -16.6432  -46.5903 H         1 UNK         0.0600 
    183 H183       -4.9872  -15.8298  -48.1340 H         1 UNK         0.0600 
    184 H184       -3.2771  -13.9866  -48.0455 H         1 UNK         0.3000 
    185 H185       -1.4617  -13.1338  -49.4577 H         1 UNK         0.0600 
    186 H186       -2.2553  -11.7385  -47.5252 H         1 UNK         0.0600 
    187 H187       -0.6617  -11.8261  -46.7813 H         1 UNK         0.0600 
    188 H188       -0.8854  -10.9623  -48.3006 H         1 UNK         0.0600 
    189 H189        1.0451  -13.7609  -48.1093 H         1 UNK         0.3000 
    190 H190       -0.5618  -22.2626  -44.9708 H         1 UNK         0.3000 
    191 H191       -2.6803  -22.6271  -46.8042 H         1 UNK         0.0600 
    192 H192       -2.8325  -21.8891  -43.8407 H         1 UNK         0.0600 
    193 H193       -4.0558  -21.5675  -45.0587 H         1 UNK         0.0600 
    194 H194       -2.5075  -20.7505  -45.1562 H         1 UNK         0.0600 
    195 H195       -1.4112  -24.9921  -44.7795 H         1 UNK         0.3000 
    196 H196       -3.7943  -26.5768  -44.2906 H         1 UNK         0.0600 
    197 H197       -2.1110  -28.3563  -43.7936 H         1 UNK         0.0600 
    198 H198       -1.7230  -26.8682  -42.9440 H         1 UNK         0.0600 
    199 H199       -0.8184  -27.3198  -44.3881 H         1 UNK         0.0600 
    200 H200       -1.6904  -25.9765  -47.0410 H         1 UNK         0.3000 
    201 H201       -3.0327  -28.1286  -48.6408 H         1 UNK         0.0600 
    202 H202       -0.6216  -28.6112  -48.3221 H         1 UNK         0.0600 
    203 H203       -0.1932  -27.0031  -48.9021 H         1 UNK         0.0600 
    204 H204       -0.9401  -28.1668  -49.9921 H         1 UNK         0.0600 
    205 H205       -1.6328  -24.8084  -48.6674 H         1 UNK         0.3000 
    206 H206       -2.7040  -24.1234  -51.2750 H         1 UNK         0.0600 
    207 H207       -0.6281  -23.0758  -50.4372 H         1 UNK         0.0600 
    208 H208       -1.8681  -21.8382  -50.5895 H         1 UNK         0.0600 
    209 H209       -1.4613  -22.4642  -49.0071 H         1 UNK         0.0600 
    210 H210       -4.3302  -22.5379  -51.7151 H         1 UNK         0.3000 
    211 H211       -6.4693  -22.2228  -49.6692 H         1 UNK         0.0600 
    212 H212       -7.7722  -21.3045  -51.5496 H         1 UNK         0.0600 
    213 H213       -7.1487  -22.8918  -51.9769 H         1 UNK         0.0600 
    214 H214       -6.3879  -21.4410  -52.6260 H         1 UNK         0.0600 
    215 H215       -4.2664  -20.4073  -51.7779 H         1 UNK         0.3000 
    216 H216       -3.1518  -18.5555  -51.7010 H         1 UNK         0.0600 
    217 H217       -2.4205  -17.6067  -49.5504 H         1 UNK         0.0600 
    218 H218       -2.3785  -19.3609  -49.4911 H         1 UNK         0.0600 
    219 H219       -3.6849  -18.4875  -48.6955 H         1 UNK         0.0600 
    220 H220       -6.2548  -18.1446  -50.0676 H         1 UNK         0.3000 
    221 H221       -6.3100  -15.3070  -50.1126 H         1 UNK         0.0600 
    222 H222       -8.5940  -17.3310  -49.8620 H         1 UNK         0.0600 
    223 H223       -7.6539  -16.6387  -48.5422 H         1 UNK         0.0600 
    224 H224       -8.7154  -15.6137  -49.4953 H         1 UNK         0.0600 
    225 H225       -7.9837  -17.6354  -52.3124 H         1 UNK         0.3000 
    226 H226       -8.0585  -15.6962  -54.4936 H         1 UNK         0.0600 
    227 H227       -9.9610  -14.8901  -53.0752 H         1 UNK         0.0600 
    228 H228      -10.5503  -15.5677  -54.5769 H         1 UNK         0.0600 
    229 H229      -10.6661  -16.5047  -53.0910 H         1 UNK         0.0600 
    230 H230       -6.9249  -18.3496  -54.1413 H         1 UNK         0.3000 
    231 H231       -7.9014  -19.5477  -56.5470 H         1 UNK         0.0600 
    232 H232       -9.6096  -20.5446  -55.0416 H         1 UNK         0.0600 
    233 H233       -8.3622  -21.1464  -53.9657 H         1 UNK         0.0600 
    234 H234       -8.5148  -21.7841  -55.6038 H         1 UNK         0.0600 
    235 H235       -6.5956  -22.1171  -55.1813 H         1 UNK         0.3000 
    236 H236       -4.1248  -22.0058  -56.4375 H         1 UNK         0.0600 
    237 H237       -3.6263  -24.0446  -55.0551 H         1 UNK         0.0600 
    238 H238       -5.0277  -23.7042  -54.0470 H         1 UNK         0.0600 
    239 H239       -5.2373  -24.1046  -55.7515 H         1 UNK         0.0600 
    240 H240       -2.3164  -20.9189  -56.0385 H         1 UNK         0.3000 
    241 H241       -0.5916  -19.9506  -55.0845 H         1 UNK         0.0600 
    242 H242       -3.6680  -18.6700  -55.1186 H         1 UNK         0.3800 
    243 H243       -3.2452  -17.0911  -54.5086 H         1 UNK         0.3800 
    244 H244       -1.5404  -20.3903  -52.2404 H         1 UNK         0.0800 
    245 H245       -0.8995  -21.7238  -53.1530 H         1 UNK         0.0800 
    246 H246        0.1191  -18.5152  -51.0827 H         1 UNK         0.0800 
    247 H247       -0.1153  -20.1164  -50.4212 H         1 UNK         0.0800 
@<TRIPOS>BOND
     1    1    2 1    
     2    1  127 1    
     3    1  128 1    
     4    1  129 1    
     5    2    3 2    
     6    2    4 am   BACKBONE|DICT|INTERRES
     7    4    5 1    
     8    4  130 1    
     9    5    6 1    
    10    5   65 1    
    11    5  131 1    
    12    6    7 1    
    13    6  132 1    
    14    6  133 1    
    15    7    8 1    
    16    8    9 1    
    17    8  134 1    
    18    8  135 1    
    19    9   10 ar   
    20    9   14 ar   
    21   10   11 ar   
    22   10  136 1    
    23   11   12 ar   
    24   11  126 1    
    25   12   13 ar   
    26   12  137 1    
    27   13   14 ar   
    28   13   15 1    
    29   14  138 1    
    30   15   16 1    
    31   15  139 1    
    32   15  140 1    
    33   16   17 1    
    34   17   18 1    
    35   17  141 1    
    36   17  142 1    
    37   18   19 1    
    38   18   67 1    
    39   18  143 1    
    40   19   20 am   BACKBONE|DICT|INTERRES
    41   19  144 1    
    42   20   21 2    
    43   20   22 1    
    44   22   23 1    
    45   22   24 1    
    46   22  145 1    
    47   23  146 1    
    48   23  147 1    
    49   23  148 1    
    50   24   25 am   BACKBONE|DICT|INTERRES
    51   24  149 1    
    52   25   26 2    
    53   25   27 1    
    54   27   28 1    
    55   27   29 1    
    56   27  150 1    
    57   28  151 1    
    58   28  152 1    
    59   28  153 1    
    60   29   30 am   BACKBONE|DICT|INTERRES
    61   29  154 1    
    62   30   31 2    
    63   30   32 1    
    64   32   33 1    
    65   32   34 1    
    66   32  155 1    
    67   33  156 1    
    68   33  157 1    
    69   33  158 1    
    70   34   35 am   BACKBONE|DICT|INTERRES
    71   34  159 1    
    72   35   36 2    
    73   35   37 1    
    74   37   38 1    
    75   37   39 1    
    76   37  160 1    
    77   38  161 1    
    78   38  162 1    
    79   38  163 1    
    80   39   40 am   BACKBONE|DICT|INTERRES
    81   39  164 1    
    82   40   41 2    
    83   40   42 1    
    84   42   43 1    
    85   42   44 1    
    86   42  165 1    
    87   43  166 1    
    88   43  167 1    
    89   43  168 1    
    90   44   45 am   BACKBONE|DICT|INTERRES
    91   44  169 1    
    92   45   46 2    
    93   45   47 1    
    94   47   48 1    
    95   47   49 1    
    96   47  170 1    
    97   48  171 1    
    98   48  172 1    
    99   48  173 1    
   100   49   50 am   BACKBONE|DICT|INTERRES
   101   49  174 1    
   102   50   51 2    
   103   50   52 1    
   104   52   53 1    
   105   52   54 1    
   106   52  175 1    
   107   53  176 1    
   108   53  177 1    
   109   53  178 1    
   110   54   55 am   BACKBONE|DICT|INTERRES
   111   54  179 1    
   112   55   56 2    
   113   55   57 1    
   114   57   58 1    
   115   57   59 1    
   116   57  180 1    
   117   58  181 1    
   118   58  182 1    
   119   58  183 1    
   120   59   60 am   BACKBONE|DICT|INTERRES
   121   59  184 1    
   122   60   61 2    
   123   60   62 1    
   124   62   63 1    
   125   62   64 1    
   126   62  185 1    
   127   63  186 1    
   128   63  187 1    
   129   63  188 1    
   130   64   65 am   BACKBONE|DICT|INTERRES
   131   64  189 1    
   132   65   66 2    
   133   67   68 2    
   134   67   69 am   BACKBONE|DICT|INTERRES
   135   69   70 1    
   136   69  190 1    
   137   70   71 1    
   138   70   72 1    
   139   70  191 1    
   140   71  192 1    
   141   71  193 1    
   142   71  194 1    
   143   72   73 2    
   144   72   74 am   BACKBONE|DICT|INTERRES
   145   74   75 1    
   146   74  195 1    
   147   75   76 1    
   148   75   77 1    
   149   75  196 1    
   150   76  197 1    
   151   76  198 1    
   152   76  199 1    
   153   77   78 2    
   154   77   79 am   BACKBONE|DICT|INTERRES
   155   79   80 1    
   156   79  200 1    
   157   80   81 1    
   158   80   82 1    
   159   80  201 1    
   160   81  202 1    
   161   81  203 1    
   162   81  204 1    
   163   82   83 2    
   164   82   84 am   BACKBONE|DICT|INTERRES
   165   84   85 1    
   166   84  205 1    
   167   85   86 1    
   168   85   87 1    
   169   85  206 1    
   170   86  207 1    
   171   86  208 1    
   172   86  209 1    
   173   87   88 2    
   174   87   89 am   BACKBONE|DICT|INTERRES
   175   89   90 1    
   176   89  210 1    
   177   90   91 1    
   178   90   92 1    
   179   90  211 1    
   180   91  212 1    
   181   91  213 1    
   182   91  214 1    
   183   92   93 2    
   184   92   94 am   BACKBONE|DICT|INTERRES
   185   94   95 1    
   186   94  215 1    
   187   95   96 1    
   188   95   97 1    
   189   95  216 1    
   190   96  217 1    
   191   96  218 1    
   192   96  219 1    
   193   97   98 2    
   194   97   99 am   BACKBONE|DICT|INTERRES
   195   99  100 1    
   196   99  220 1    
   197  100  101 1    
   198  100  102 1    
   199  100  221 1    
   200  101  222 1    
   201  101  223 1    
   202  101  224 1    
   203  102  103 2    
   204  102  104 am   BACKBONE|DICT|INTERRES
   205  104  105 1    
   206  104  225 1    
   207  105  106 1    
   208  105  107 1    
   209  105  226 1    
   210  106  227 1    
   211  106  228 1    
   212  106  229 1    
   213  107  108 2    
   214  107  109 am   BACKBONE|DICT|INTERRES
   215  109  110 1    
   216  109  230 1    
   217  110  111 1    
   218  110  112 1    
   219  110  231 1    
   220  111  232 1    
   221  111  233 1    
   222  111  234 1    
   223  112  113 2    
   224  112  114 am   BACKBONE|DICT|INTERRES
   225  114  115 1    
   226  114  235 1    
   227  115  116 1    
   228  115  117 1    
   229  115  236 1    
   230  116  237 1    
   231  116  238 1    
   232  116  239 1    
   233  117  118 2    
   234  117  119 am   BACKBONE|DICT|INTERRES
   235  119  120 1    
   236  119  240 1    
   237  120  121 1    
   238  120  124 1    
   239  120  241 1    
   240  121  122 am   BACKBONE|DICT|INTERRES
   241  121  123 2    
   242  122  242 1    
   243  122  243 1    
   244  124  125 1    
   245  124  244 1    
   246  124  245 1    
   247  125  126 1    
   248  126  246 1    
   249  126  247 1    
@<TRIPOS>SUBSTRUCTURE
     1 UNK         1 GROUP             0       ****    0 ROOT    
