@<TRIPOS>MOLECULE
3R540
247   249    1
SMALL
USER_CHARGES


@<TRIPOS>ATOM
      1 CA          0.5426  -12.5093  -52.8416 C.3       0 UNK        -0.1800 
      2 C           0.8470  -12.9416  -51.4147 C.2       0 UNK         0.5000 
      3 O           1.3192  -12.1334  -50.6156 O.2       0 UNK        -0.5000 
      4 N           0.5601  -14.2065  -51.0820 N.am      1 UNK        -0.5000 
      5 CA          0.7572  -14.7854  -49.7463 C.3       1 UNK         0.1400 
      6 C6          0.7711  -16.3337  -49.7820 C.3       23 UNK        -0.0398 
      7 S7          1.7459  -17.0544  -48.4119 S.3       23 UNK        -0.2404 
      8 C8          3.2427  -17.6694  -49.2458 C.3       23 UNK        -0.0205 
      9 C9          2.9831  -18.9888  -49.9564 C.ar      23 UNK        -0.0193 
     10 C10         2.6013  -18.9967  -51.2997 C.ar      23 UNK        -0.1150 
     11 C11         2.2893  -20.1951  -51.9539 C.ar      23 UNK        -0.0193 
     12 C12         2.4441  -21.3970  -51.2573 C.ar      23 UNK        -0.1150 
     13 C13         2.8724  -21.4097  -49.9267 C.ar      23 UNK        -0.0193 
     14 C14         3.1208  -20.2000  -49.2729 C.ar      23 UNK        -0.1150 
     15 C15         3.0801  -22.7363  -49.2130 C.3       23 UNK        -0.0205 
     16 S16         1.5003  -23.5438  -48.8216 S.3       23 UNK        -0.2404 
     17 C17         0.9737  -22.6561  -47.3146 C.3       23 UNK        -0.0398 
     18 CA          0.6320  -23.6146  -46.1485 C.3       11 UNK         0.1400 
     19 N           0.5959  -22.9083  -44.8663 N.am      11 UNK        -0.5000 
     20 C           0.5634  -23.4969  -43.6625 C.2       10 UNK         0.5000 
     21 O           0.5958  -24.7164  -43.4945 O.2       10 UNK        -0.5000 
     22 CA          0.4445  -22.5634  -42.4431 C.3       10 UNK         0.1400 
     23 CB          1.8196  -22.0140  -42.0350 C.3       10 UNK        -0.1800 
     24 N          -0.4811  -21.4556  -42.6878 N.am      10 UNK        -0.5000 
     25 C          -1.8081  -21.6051  -42.8089 C.2       9 UNK         0.5000 
     26 O          -2.3898  -22.6731  -42.6233 O.2       9 UNK        -0.5000 
     27 CA         -2.6240  -20.3699  -43.2318 C.3       9 UNK         0.1400 
     28 CB         -3.0332  -19.5466  -42.0020 C.3       9 UNK        -0.1800 
     29 N          -1.9164  -19.5075  -44.1776 N.am      9 UNK        -0.5000 
     30 C          -1.5633  -19.8465  -45.4255 C.2       8 UNK         0.5000 
     31 O          -1.8291  -20.9301  -45.9435 O.2       8 UNK        -0.5000 
     32 CA         -0.7188  -18.8186  -46.1996 C.3       8 UNK         0.1400 
     33 CB         -1.5900  -17.6817  -46.7552 C.3       8 UNK        -0.1800 
     34 N           0.3395  -18.2547  -45.3639 N.am      8 UNK        -0.5000 
     35 C           1.3760  -18.9517  -44.8797 C.2       7 UNK         0.5000 
     36 O           1.5604  -20.1479  -45.1022 O.2       7 UNK        -0.5000 
     37 CA          2.3370  -18.1941  -43.9500 C.3       7 UNK         0.1400 
     38 CB          3.3931  -17.4333  -44.7662 C.3       7 UNK        -0.1800 
     39 N           1.6193  -17.2653  -43.0755 N.am      7 UNK        -0.5000 
     40 C           0.8620  -17.6471  -42.0358 C.2       6 UNK         0.5000 
     41 O           0.7356  -18.8193  -41.6825 O.2       6 UNK        -0.5000 
     42 CA          0.0776  -16.5460  -41.2924 C.3       6 UNK         0.1400 
     43 CB          0.9468  -15.9088  -40.1986 C.3       6 UNK        -0.1800 
     44 N          -0.4266  -15.4973  -42.1812 N.am      6 UNK        -0.5000 
     45 C          -1.2944  -15.7036  -43.1805 C.2       5 UNK         0.5000 
     46 O          -1.8345  -16.7880  -43.3912 O.2       5 UNK        -0.5000 
     47 CA         -1.5869  -14.5312  -44.1364 C.3       5 UNK         0.1400 
     48 CB         -2.9193  -13.8646  -43.7639 C.3       5 UNK        -0.1800 
     49 N          -0.5508  -13.4977  -44.2452 N.am      5 UNK        -0.5000 
     50 C           0.7505  -13.6857  -44.5138 C.2       4 UNK         0.5000 
     51 O           1.3037  -14.7863  -44.5141 O.2       4 UNK        -0.5000 
     52 CA          1.5336  -12.4218  -44.8995 C.3       4 UNK         0.1400 
     53 CB          2.9964  -12.7110  -45.2835 C.3       4 UNK        -0.1800 
     54 N           0.8506  -11.8071  -46.0335 N.am      4 UNK        -0.5000 
     55 C           0.5568  -10.5082  -46.1697 C.2       3 UNK         0.5000 
     56 O           0.8755   -9.6496  -45.3463 O.2       3 UNK        -0.5000 
     57 CA         -0.2284  -10.0864  -47.4311 C.3       3 UNK         0.1400 
     58 CB          0.7042   -9.3928  -48.4358 C.3       3 UNK        -0.1800 
     59 N          -0.8967  -11.2041  -48.1022 N.am      3 UNK        -0.5000 
     60 C          -1.9885  -11.8327  -47.6407 C.2       2 UNK         0.5000 
     61 O          -2.6036  -11.4722  -46.6375 O.2       2 UNK        -0.5000 
     62 CA         -2.4549  -13.0953  -48.3997 C.3       2 UNK         0.1400 
     63 CB         -3.6537  -12.7753  -49.3048 C.3       2 UNK        -0.1800 
     64 N          -1.4090  -13.7311  -49.2070 N.am      2 UNK        -0.5000 
     65 C          -0.2666  -14.2442  -48.7255 C.2       1 UNK         0.5000 
     66 O           0.0107  -14.2472  -47.5289 O.2       1 UNK        -0.5000 
     67 C          -0.6682  -24.3996  -46.4331 C.2       11 UNK         0.5000 
     68 O          -0.5894  -25.4632  -47.0465 O.2       11 UNK        -0.5000 
     69 N          -1.8194  -23.8793  -45.9740 N.am      12 UNK        -0.5000 
     70 CA         -3.1883  -24.3352  -46.2628 C.3       12 UNK         0.1400 
     71 CB         -4.1748  -23.5693  -45.3699 C.3       12 UNK        -0.1800 
     72 C          -3.4512  -25.8511  -46.1543 C.2       12 UNK         0.5000 
     73 O          -4.2969  -26.3693  -46.8844 O.2       12 UNK        -0.5000 
     74 N          -2.7263  -26.5346  -45.2594 N.am      13 UNK        -0.5000 
     75 CA         -2.7775  -27.9856  -45.0781 C.3       13 UNK         0.1400 
     76 CB         -2.0939  -28.3386  -43.7482 C.3       13 UNK        -0.1800 
     77 C          -2.1403  -28.7826  -46.2371 C.2       13 UNK         0.5000 
     78 O          -2.5120  -29.9392  -46.4408 O.2       13 UNK        -0.5000 
     79 N          -1.1926  -28.1706  -46.9587 N.am      14 UNK        -0.5000 
     80 CA         -0.4589  -28.7680  -48.0731 C.3       14 UNK         0.1400 
     81 CB          1.0387  -28.4597  -47.9124 C.3       14 UNK        -0.1800 
     82 C          -0.9702  -28.2515  -49.4278 C.2       14 UNK         0.5000 
     83 O          -1.1290  -29.0493  -50.3529 O.2       14 UNK        -0.5000 
     84 N          -1.2270  -26.9418  -49.5280 N.am      15 UNK        -0.5000 
     85 CA         -1.7387  -26.2777  -50.7236 C.3       15 UNK         0.1400 
     86 CB         -0.5714  -25.8527  -51.6303 C.3       15 UNK        -0.1800 
     87 C          -2.5637  -25.0650  -50.2857 C.2       15 UNK         0.5000 
     88 O          -2.1378  -24.3417  -49.3869 O.2       15 UNK        -0.5000 
     89 N          -3.7190  -24.8471  -50.9252 N.am      16 UNK        -0.5000 
     90 CA         -4.7395  -23.8587  -50.5548 C.3       16 UNK         0.1400 
     91 CB         -6.0647  -24.2478  -51.2347 C.3       16 UNK        -0.1800 
     92 C          -4.3553  -22.3836  -50.8217 C.2       16 UNK         0.5000 
     93 O          -5.1738  -21.6139  -51.3300 O.2       16 UNK        -0.5000 
     94 N          -3.1363  -21.9875  -50.4354 N.am      17 UNK        -0.5000 
     95 CA         -2.5986  -20.6292  -50.5509 C.3       17 UNK         0.1400 
     96 CB         -1.1242  -20.6226  -50.1243 C.3       17 UNK        -0.1800 
     97 C          -3.3917  -19.5853  -49.7434 C.2       17 UNK         0.5000 
     98 O          -3.3910  -18.4159  -50.1168 O.2       17 UNK        -0.5000 
     99 N          -4.0830  -20.0186  -48.6799 N.am      18 UNK        -0.5000 
    100 CA        -5.0060  -19.1934  -47.8973 C.3       18 UNK         0.1400 
    101 CB        -5.3863  -19.9456  -46.6132 C.3       18 UNK        -0.1800 
    102 C         -6.2723  -18.7805  -48.6751 C.2       18 UNK         0.5000 
    103 O         -6.8409  -17.7298  -48.3771 O.2       18 UNK        -0.5000 
    104 N         -6.6907  -19.6035  -49.6466 N.am      19 UNK        -0.5000 
    105 CA        -7.8579  -19.3583  -50.4929 C.3       19 UNK         0.1400 
    106 CB        -8.6052  -20.6822  -50.7201 C.3       19 UNK        -0.1800 
    107 C         -7.4471  -18.7331  -51.8349 C.2       19 UNK         0.5000 
    108 O         -8.0766  -17.7722  -52.2779 O.2       19 UNK        -0.5000 
    109 N         -6.3989  -19.2884  -52.4577 N.am      20 UNK        -0.5000 
    110 CA        -5.9019  -18.8824  -53.7737 C.3       20 UNK         0.1400 
    111 CB        -5.1054  -20.0541  -54.3705 C.3       20 UNK        -0.1800 
    112 C         -5.0303  -17.6124  -53.7460 C.2       20 UNK         0.5000 
    113 O         -4.7460  -17.0560  -54.8082 O.2       20 UNK        -0.5000 
    114 N         -4.5535  -17.2218  -52.5536 N.am      21 UNK        -0.5000 
    115 CA        -3.6118  -16.1288  -52.2639 C.3       21 UNK         0.1400 
    116 CB        -4.2051  -14.7650  -52.6717 C.3       21 UNK        -0.1800 
    117 C         -2.2007  -16.3347  -52.8578 C.2       21 UNK         0.5000 
    118 O         -1.3617  -15.4435  -52.7281 O.2       21 UNK        -0.5000 
    119 N         -1.9584  -17.4859  -53.5016 N.am      22 UNK        -0.5000 
    120 CA        -0.8160  -17.7485  -54.3914 C.3       22 UNK         0.1400 
    121 C         -0.8661  -16.9143  -55.7132 C.2       22 UNK         0.5000 
    122 N         -2.0363  -16.4665  -56.1589 N.am      22 UNK        -0.7600 
    123 O          0.1513  -16.6789  -56.3585 O.2       22 UNK        -0.5000 
    124 C124        0.5392  -17.6861  -53.6350 C.3       23 UNK        -0.0398 
    125 S125        1.8572  -18.7178  -54.3718 S.3       23 UNK        -0.2404 
    126 C126        1.7571  -20.2564  -53.3890 C.3       23 UNK        -0.0205 
    127 H127        0.2372  -13.3509  -53.4637 H         1 UNK         0.0600 
    128 H128        1.4259  -12.0583  -53.2936 H         1 UNK         0.0600 
    129 H129       -0.2598  -11.7718  -52.8466 H         1 UNK         0.0600 
    130 H130        0.0732  -14.7889  -51.7609 H         1 UNK         0.3000 
    131 H131        1.7410  -14.4519  -49.4078 H         1 UNK         0.0600 
    132 H132        1.2004  -16.6674  -50.7231 H         1 UNK         0.0800 
    133 H133       -0.2397  -16.7462  -49.7608 H         1 UNK         0.0800 
    134 H134        3.6144  -16.9179  -49.9442 H         1 UNK         0.0800 
    135 H135        4.0267  -17.8045  -48.4993 H         1 UNK         0.0800 
    136 H136        2.5345  -18.0553  -51.8198 H         1 UNK         0.1150 
    137 H137        2.2242  -22.3337  -51.7506 H         1 UNK         0.1150 
    138 H138        3.4276  -20.1991  -48.2362 H         1 UNK         0.1150 
    139 H139        3.6570  -23.3982  -49.8603 H         1 UNK         0.0800 
    140 H140        3.6727  -22.6102  -48.3056 H         1 UNK         0.0800 
    141 H141        0.1244  -22.0170  -47.5516 H         1 UNK         0.0800 
    142 H142        1.7756  -21.9820  -47.0134 H         1 UNK         0.0800 
    143 H143        1.4379  -24.3481  -46.0738 H         1 UNK         0.0600 
    144 H144        0.6297  -21.8945  -44.9100 H         1 UNK         0.3000 
    145 H145        0.0579  -23.1527  -41.6088 H         1 UNK         0.0600 
    146 H146        1.7483  -21.4048  -41.1337 H         1 UNK         0.0600 
    147 H147        2.2605  -21.3994  -42.8195 H         1 UNK         0.0600 
    148 H148        2.5166  -22.8259  -41.8241 H         1 UNK         0.0600 
    149 H149       -0.0776  -20.5319  -42.7847 H         1 UNK         0.3000 
    150 H150       -3.5329  -20.7258  -43.7205 H         1 UNK         0.0600 
    151 H151       -3.5840  -20.1582  -41.2864 H         1 UNK         0.0600 
    152 H152       -3.6780  -18.7135  -42.2827 H         1 UNK         0.0600 
    153 H153       -2.1639  -19.1373  -41.4861 H         1 UNK         0.0600 
    154 H154       -1.7052  -18.5659  -43.8539 H         1 UNK         0.3000 
    155 H155       -0.2417  -19.3271  -47.0403 H         1 UNK         0.0600 
    156 H156       -2.1965  -18.0383  -47.5840 H         1 UNK         0.0600 
    157 H157       -0.9836  -16.8614  -47.1367 H         1 UNK         0.0600 
    158 H158       -2.2657  -17.2733  -46.0038 H         1 UNK         0.0600 
    159 H159        0.2681  -17.2754  -45.1284 H         1 UNK         0.3000 
    160 H160        2.8534  -18.9278  -43.3275 H         1 UNK         0.0600 
    161 H161        2.9391  -16.6968  -45.4302 H         1 UNK         0.0600 
    162 H162        3.9709  -18.1183  -45.3880 H         1 UNK         0.0600 
    163 H163        4.0944  -16.9108  -44.1158 H         1 UNK         0.0600 
    164 H164        1.6113  -16.2904  -43.3644 H         1 UNK         0.3000 
    165 H165       -0.7821  -17.0193  -40.8136 H         1 UNK         0.0600 
    166 H166        0.3772  -15.1879  -39.6118 H         1 UNK         0.0600 
    167 H167        1.3213  -16.6655  -39.5078 H         1 UNK         0.0600 
    168 H168        1.8103  -15.3926  -40.6203 H         1 UNK         0.0600 
    169 H169       -0.0165  -14.5802  -42.0868 H         1 UNK         0.3000 
    170 H170       -1.6947  -14.9624  -45.1334 H         1 UNK         0.0600 
    171 H171       -2.8591  -13.3609  -42.7985 H         1 UNK         0.0600 
    172 H172       -3.2159  -13.1276  -44.5101 H         1 UNK         0.0600 
    173 H173       -3.7228  -14.6000  -43.7019 H         1 UNK         0.0600 
    174 H174       -0.8935  -12.5484  -44.2804 H         1 UNK         0.3000 
    175 H175        1.5225  -11.7578  -44.0329 H         1 UNK         0.0600 
    176 H176        3.0598  -13.3871  -46.1374 H         1 UNK         0.0600 
    177 H177        3.5237  -11.7931  -45.5431 H         1 UNK         0.0600 
    178 H178        3.5344  -13.1735  -44.4552 H         1 UNK         0.0600 
    179 H179        0.5104  -12.4668  -46.7269 H         1 UNK         0.3000 
    180 H180       -0.9889   -9.3674  -47.1195 H         1 UNK         0.0600 
    181 H181        0.1566   -9.0528  -49.3150 H         1 UNK         0.0600 
    182 H182        1.4990  -10.0598  -48.7721 H         1 UNK         0.0600 
    183 H183        1.1780   -8.5174  -47.9899 H         1 UNK         0.0600 
    184 H184       -0.4408  -11.5676  -48.9282 H         1 UNK         0.3000 
    185 H185       -2.7772  -13.8192  -47.6481 H         1 UNK         0.0600 
    186 H186       -3.3794  -12.0925  -50.1100 H         1 UNK         0.0600 
    187 H187       -4.0607  -13.6813  -49.7541 H         1 UNK         0.0600 
    188 H188       -4.4594  -12.3075  -48.7373 H         1 UNK         0.0600 
    189 H189       -1.5502  -13.7436  -50.2066 H         1 UNK         0.3000 
    190 H190       -1.7574  -22.9682  -45.5345 H         1 UNK         0.3000 
    191 H191       -3.4058  -24.0452  -47.2889 H         1 UNK         0.0600 
    192 H192       -4.0497  -22.4923  -45.4718 H         1 UNK         0.0600 
    193 H193       -4.0454  -23.8269  -44.3188 H         1 UNK         0.0600 
    194 H194       -5.2062  -23.8018  -45.6379 H         1 UNK         0.0600 
    195 H195       -2.0424  -26.0289  -44.7144 H         1 UNK         0.3000 
    196 H196       -3.8258  -28.2844  -45.0119 H         1 UNK         0.0600 
    197 H197       -2.5856  -27.8466  -42.9087 H         1 UNK         0.0600 
    198 H198       -1.0445  -28.0405  -43.7448 H         1 UNK         0.0600 
    199 H199       -2.1313  -29.4126  -43.5614 H         1 UNK         0.0600 
    200 H200       -0.9892  -27.1902  -46.7729 H         1 UNK         0.3000 
    201 H201       -0.5774  -29.8535  -48.0640 H         1 UNK         0.0600 
    202 H202        1.4251  -28.8658  -46.9775 H         1 UNK         0.0600 
    203 H203        1.2347  -27.3866  -47.9168 H         1 UNK         0.0600 
    204 H204        1.6175  -28.9024  -48.7239 H         1 UNK         0.0600 
    205 H205       -1.0840  -26.3319  -48.7250 H         1 UNK         0.3000 
    206 H206       -2.3905  -26.9615  -51.2714 H         1 UNK         0.0600 
    207 H207        0.1097  -25.1748  -51.1142 H         1 UNK         0.0600 
    208 H208        0.0050  -26.7156  -51.9639 H         1 UNK         0.0600 
    209 H209       -0.9349  -25.3390  -52.5210 H         1 UNK         0.0600 
    210 H210       -3.9658  -25.4589  -51.6896 H         1 UNK         0.3000 
    211 H211       -4.8952  -23.9391  -49.4770 H         1 UNK         0.0600 
    212 H212       -5.9984  -24.1643  -52.3202 H         1 UNK         0.0600 
    213 H213       -6.8813  -23.6053  -50.9038 H         1 UNK         0.0600 
    214 H214       -6.3482  -25.2721  -50.9921 H         1 UNK         0.0600 
    215 H215       -2.5382  -22.6894  -50.0026 H         1 UNK         0.3000 
    216 H216       -2.6521  -20.3417  -51.6028 H         1 UNK         0.0600 
    217 H217       -0.6659  -19.6490  -50.3053 H         1 UNK         0.0600 
    218 H218       -0.5443  -21.3628  -50.6760 H         1 UNK         0.0600 
    219 H219       -1.0219  -20.8382  -49.0621 H         1 UNK         0.0600 
    220 H220       -4.0008  -20.9892  -48.4172 H         1 UNK         0.3000 
    221 H221       -4.4922  -18.2741  -47.6120 H         1 UNK         0.0600 
    222 H222       -5.8649  -20.9011  -46.8312 H         1 UNK         0.0600 
    223 H223       -4.5094  -20.1403  -45.9980 H         1 UNK         0.0600 
    224 H224       -6.0795  -19.3609  -46.0071 H         1 UNK         0.0600 
    225 H225       -6.1382  -20.4216  -49.8688 H         1 UNK         0.3000 
    226 H226       -8.5457  -18.6701  -49.9967 H         1 UNK         0.0600 
    227 H227       -8.9284  -21.1186  -49.7749 H         1 UNK         0.0600 
    228 H228       -9.4972  -20.5262  -51.3281 H         1 UNK         0.0600 
    229 H229       -7.9841  -21.4171  -51.2329 H         1 UNK         0.0600 
    230 H230       -5.9535  -20.1025  -52.0399 H         1 UNK         0.3000 
    231 H231       -6.7540  -18.6807  -54.4261 H         1 UNK         0.0600 
    232 H232       -4.7431  -19.8159  -55.3715 H         1 UNK         0.0600 
    233 H233       -5.7246  -20.9475  -54.4549 H         1 UNK         0.0600 
    234 H234       -4.2395  -20.3072  -53.7574 H         1 UNK         0.0600 
    235 H235       -4.7921  -17.7855  -51.7476 H         1 UNK         0.3000 
    236 H236       -3.4826  -16.1065  -51.1819 H         1 UNK         0.0600 
    237 H237       -4.3006  -14.6677  -53.7532 H         1 UNK         0.0600 
    238 H238       -5.1914  -14.6176  -52.2319 H         1 UNK         0.0600 
    239 H239       -3.5731  -13.9448  -52.3294 H         1 UNK         0.0600 
    240 H240       -2.7102  -18.1557  -53.5453 H         1 UNK         0.3000 
    241 H241       -0.9554  -18.7807  -54.7142 H         1 UNK         0.0600 
    242 H242       -2.8989  -16.6535  -55.6597 H         1 UNK         0.3800 
    243 H243       -2.0645  -15.9346  -57.0143 H         1 UNK         0.3800 
    244 H244        0.3836  -18.0165  -52.6084 H         1 UNK         0.0800 
    245 H245        0.8976  -16.6579  -53.5667 H         1 UNK         0.0800 
    246 H246        0.7185  -20.5893  -53.3629 H         1 UNK         0.0800 
    247 H247        2.3108  -21.0252  -53.9300 H         1 UNK         0.0800 
@<TRIPOS>BOND
     1    1    2 1    
     2    1  127 1    
     3    1  128 1    
     4    1  129 1    
     5    2    3 2    
     6    2    4 am   BACKBONE|DICT|INTERRES
     7    4    5 1    
     8    4  130 1    
     9    5    6 1    
    10    5   65 1    
    11    5  131 1    
    12    6    7 1    
    13    6  132 1    
    14    6  133 1    
    15    7    8 1    
    16    8    9 1    
    17    8  134 1    
    18    8  135 1    
    19    9   10 ar   
    20    9   14 ar   
    21   10   11 ar   
    22   10  136 1    
    23   11   12 ar   
    24   11  126 1    
    25   12   13 ar   
    26   12  137 1    
    27   13   14 ar   
    28   13   15 1    
    29   14  138 1    
    30   15   16 1    
    31   15  139 1    
    32   15  140 1    
    33   16   17 1    
    34   17   18 1    
    35   17  141 1    
    36   17  142 1    
    37   18   19 1    
    38   18   67 1    
    39   18  143 1    
    40   19   20 am   BACKBONE|DICT|INTERRES
    41   19  144 1    
    42   20   21 2    
    43   20   22 1    
    44   22   23 1    
    45   22   24 1    
    46   22  145 1    
    47   23  146 1    
    48   23  147 1    
    49   23  148 1    
    50   24   25 am   BACKBONE|DICT|INTERRES
    51   24  149 1    
    52   25   26 2    
    53   25   27 1    
    54   27   28 1    
    55   27   29 1    
    56   27  150 1    
    57   28  151 1    
    58   28  152 1    
    59   28  153 1    
    60   29   30 am   BACKBONE|DICT|INTERRES
    61   29  154 1    
    62   30   31 2    
    63   30   32 1    
    64   32   33 1    
    65   32   34 1    
    66   32  155 1    
    67   33  156 1    
    68   33  157 1    
    69   33  158 1    
    70   34   35 am   BACKBONE|DICT|INTERRES
    71   34  159 1    
    72   35   36 2    
    73   35   37 1    
    74   37   38 1    
    75   37   39 1    
    76   37  160 1    
    77   38  161 1    
    78   38  162 1    
    79   38  163 1    
    80   39   40 am   BACKBONE|DICT|INTERRES
    81   39  164 1    
    82   40   41 2    
    83   40   42 1    
    84   42   43 1    
    85   42   44 1    
    86   42  165 1    
    87   43  166 1    
    88   43  167 1    
    89   43  168 1    
    90   44   45 am   BACKBONE|DICT|INTERRES
    91   44  169 1    
    92   45   46 2    
    93   45   47 1    
    94   47   48 1    
    95   47   49 1    
    96   47  170 1    
    97   48  171 1    
    98   48  172 1    
    99   48  173 1    
   100   49   50 am   BACKBONE|DICT|INTERRES
   101   49  174 1    
   102   50   51 2    
   103   50   52 1    
   104   52   53 1    
   105   52   54 1    
   106   52  175 1    
   107   53  176 1    
   108   53  177 1    
   109   53  178 1    
   110   54   55 am   BACKBONE|DICT|INTERRES
   111   54  179 1    
   112   55   56 2    
   113   55   57 1    
   114   57   58 1    
   115   57   59 1    
   116   57  180 1    
   117   58  181 1    
   118   58  182 1    
   119   58  183 1    
   120   59   60 am   BACKBONE|DICT|INTERRES
   121   59  184 1    
   122   60   61 2    
   123   60   62 1    
   124   62   63 1    
   125   62   64 1    
   126   62  185 1    
   127   63  186 1    
   128   63  187 1    
   129   63  188 1    
   130   64   65 am   BACKBONE|DICT|INTERRES
   131   64  189 1    
   132   65   66 2    
   133   67   68 2    
   134   67   69 am   BACKBONE|DICT|INTERRES
   135   69   70 1    
   136   69  190 1    
   137   70   71 1    
   138   70   72 1    
   139   70  191 1    
   140   71  192 1    
   141   71  193 1    
   142   71  194 1    
   143   72   73 2    
   144   72   74 am   BACKBONE|DICT|INTERRES
   145   74   75 1    
   146   74  195 1    
   147   75   76 1    
   148   75   77 1    
   149   75  196 1    
   150   76  197 1    
   151   76  198 1    
   152   76  199 1    
   153   77   78 2    
   154   77   79 am   BACKBONE|DICT|INTERRES
   155   79   80 1    
   156   79  200 1    
   157   80   81 1    
   158   80   82 1    
   159   80  201 1    
   160   81  202 1    
   161   81  203 1    
   162   81  204 1    
   163   82   83 2    
   164   82   84 am   BACKBONE|DICT|INTERRES
   165   84   85 1    
   166   84  205 1    
   167   85   86 1    
   168   85   87 1    
   169   85  206 1    
   170   86  207 1    
   171   86  208 1    
   172   86  209 1    
   173   87   88 2    
   174   87   89 am   BACKBONE|DICT|INTERRES
   175   89   90 1    
   176   89  210 1    
   177   90   91 1    
   178   90   92 1    
   179   90  211 1    
   180   91  212 1    
   181   91  213 1    
   182   91  214 1    
   183   92   93 2    
   184   92   94 am   BACKBONE|DICT|INTERRES
   185   94   95 1    
   186   94  215 1    
   187   95   96 1    
   188   95   97 1    
   189   95  216 1    
   190   96  217 1    
   191   96  218 1    
   192   96  219 1    
   193   97   98 2    
   194   97   99 am   BACKBONE|DICT|INTERRES
   195   99  100 1    
   196   99  220 1    
   197  100  101 1    
   198  100  102 1    
   199  100  221 1    
   200  101  222 1    
   201  101  223 1    
   202  101  224 1    
   203  102  103 2    
   204  102  104 am   BACKBONE|DICT|INTERRES
   205  104  105 1    
   206  104  225 1    
   207  105  106 1    
   208  105  107 1    
   209  105  226 1    
   210  106  227 1    
   211  106  228 1    
   212  106  229 1    
   213  107  108 2    
   214  107  109 am   BACKBONE|DICT|INTERRES
   215  109  110 1    
   216  109  230 1    
   217  110  111 1    
   218  110  112 1    
   219  110  231 1    
   220  111  232 1    
   221  111  233 1    
   222  111  234 1    
   223  112  113 2    
   224  112  114 am   BACKBONE|DICT|INTERRES
   225  114  115 1    
   226  114  235 1    
   227  115  116 1    
   228  115  117 1    
   229  115  236 1    
   230  116  237 1    
   231  116  238 1    
   232  116  239 1    
   233  117  118 2    
   234  117  119 am   BACKBONE|DICT|INTERRES
   235  119  120 1    
   236  119  240 1    
   237  120  121 1    
   238  120  124 1    
   239  120  241 1    
   240  121  122 am   BACKBONE|DICT|INTERRES
   241  121  123 2    
   242  122  242 1    
   243  122  243 1    
   244  124  125 1    
   245  124  244 1    
   246  124  245 1    
   247  125  126 1    
   248  126  246 1    
   249  126  247 1    
@<TRIPOS>SUBSTRUCTURE
     1 UNK         1 GROUP             0       ****    0 ROOT    
