@<TRIPOS>MOLECULE
3R540
247   249    1
SMALL
USER_CHARGES


@<TRIPOS>ATOM
      1 CA          0.3735  -11.3276  -49.0659 C.3       0 UNK        -0.1800 
      2 C          -0.5987  -11.6220  -47.9324 C.2       0 UNK         0.5000 
      3 O          -1.2760  -10.7110  -47.4568 O.2       0 UNK        -0.5000 
      4 N          -0.6569  -12.8891  -47.4979 N.am      1 UNK        -0.5000 
      5 CA         -1.5356  -13.4135  -46.4376 C.3       1 UNK         0.1400 
      6 C6         -3.0559  -13.2895  -46.7513 C.3       23 UNK        -0.0398 
      7 S7         -3.5227  -13.9584  -48.3840 S.3       23 UNK        -0.2404 
      8 C8         -3.6669  -15.7319  -48.0118 C.3       23 UNK        -0.0205 
      9 C9         -2.9754  -16.5591  -49.0805 C.ar      23 UNK        -0.0193 
     10 C10        -3.7122  -17.1686  -50.0994 C.ar      23 UNK        -0.1150 
     11 C11        -3.0679  -17.9204  -51.0869 C.ar      23 UNK        -0.0193 
     12 C12        -1.6772  -18.0580  -51.0509 C.ar      23 UNK        -0.1150 
     13 C13        -0.9315  -17.4497  -50.0368 C.ar      23 UNK        -0.0193 
     14 C14        -1.5872  -16.7063  -49.0531 C.ar      23 UNK        -0.1150 
     15 C15         0.5835  -17.5718  -50.0103 C.3       23 UNK        -0.0205 
     16 S16         1.1665  -18.5818  -48.6146 S.3       23 UNK        -0.2404 
     17 C17         0.6036  -20.2501  -49.0983 C.3       23 UNK        -0.0398 
     18 CA         -0.2676  -20.9576  -48.0317 C.3       11 UNK         0.1400 
     19 N           0.3665  -20.9636  -46.7088 N.am      11 UNK        -0.5000 
     20 C           0.0226  -21.7532  -45.6840 C.2       10 UNK         0.5000 
     21 O          -0.9738  -22.4747  -45.6967 O.2       10 UNK        -0.5000 
     22 CA          0.9668  -21.7724  -44.4666 C.3       10 UNK         0.1400 
     23 CB          2.4200  -21.3924  -44.8154 C.3       10 UNK        -0.1800 
     24 N           0.4964  -20.8927  -43.4030 N.am      10 UNK        -0.5000 
     25 C          -0.4686  -21.1829  -42.5204 C.2       9 UNK         0.5000 
     26 O          -1.1097  -22.2338  -42.5174 O.2       9 UNK        -0.5000 
     27 CA         -0.7493  -20.1271  -41.4388 C.3       9 UNK         0.1400 
     28 CB          0.2966  -20.2139  -40.3153 C.3       9 UNK        -0.1800 
     29 N          -0.7373  -18.7773  -41.9996 N.am      9 UNK        -0.5000 
     30 C          -1.8345  -18.0770  -42.3170 C.2       8 UNK         0.5000 
     31 O          -2.9814  -18.4773  -42.1170 O.2       8 UNK        -0.5000 
     32 CA         -1.6289  -16.6823  -42.9449 C.3       8 UNK         0.1400 
     33 CB         -1.7691  -15.6067  -41.8574 C.3       8 UNK        -0.1800 
     34 N          -0.3391  -16.5145  -43.6189 N.am      8 UNK        -0.5000 
     35 C           0.0663  -17.1988  -44.6989 C.2       7 UNK         0.5000 
     36 O          -0.6212  -18.0283  -45.2920 O.2       7 UNK        -0.5000 
     37 CA          1.5164  -16.9584  -45.1484 C.3       7 UNK         0.1400 
     38 CB          1.5962  -15.7861  -46.1372 C.3       7 UNK        -0.1800 
     39 N           2.4221  -16.6994  -44.0293 N.am      7 UNK        -0.5000 
     40 C           2.7097  -17.5524  -43.0365 C.2       6 UNK         0.5000 
     41 O           2.1778  -18.6575  -42.9295 O.2       6 UNK        -0.5000 
     42 CA          3.7058  -17.0861  -41.9541 C.3       6 UNK         0.1400 
     43 CB          4.7717  -18.1575  -41.6507 C.3       6 UNK        -0.1800 
     44 N           4.3142  -15.7770  -42.2248 N.am      6 UNK        -0.5000 
     45 C           5.1740  -15.4370  -43.1990 C.2       5 UNK         0.5000 
     46 O           5.6713  -16.2408  -43.9872 O.2       5 UNK        -0.5000 
     47 CA          5.4837  -13.9351  -43.3672 C.3       5 UNK         0.1400 
     48 CB          4.9170  -13.4279  -44.7041 C.3       5 UNK        -0.1800 
     49 N           4.9177  -13.1200  -42.2907 N.am      5 UNK        -0.5000 
     50 C           5.5137  -12.8767  -41.1159 C.2       4 UNK         0.5000 
     51 O           6.6513  -13.2524  -40.8325 O.2       4 UNK        -0.5000 
     52 CA          4.6803  -12.1079  -40.0712 C.3       4 UNK         0.1400 
     53 CB          4.9465  -10.5987  -40.1769 C.3       4 UNK        -0.1800 
     54 N           3.2384  -12.3490  -40.1917 N.am      4 UNK        -0.5000 
     55 C           2.6341  -13.5247  -39.9632 C.2       3 UNK         0.5000 
     56 O           3.2316  -14.5424  -39.6165 O.2       3 UNK        -0.5000 
     57 CA          1.1189  -13.5908  -40.2223 C.3       3 UNK         0.1400 
     58 CB          0.3304  -13.2330  -38.9546 C.3       3 UNK        -0.1800 
     59 N           0.7038  -12.7143  -41.3191 N.am      3 UNK        -0.5000 
     60 C           0.9503  -12.9605  -42.6110 C.2       2 UNK         0.5000 
     61 O           1.5050  -13.9846  -43.0202 O.2       2 UNK        -0.5000 
     62 CA          0.5648  -11.8488  -43.5985 C.3       2 UNK         0.1400 
     63 CB          1.7821  -10.9618  -43.9009 C.3       2 UNK        -0.1800 
     64 N           0.0592  -12.4015  -44.8512 N.am      2 UNK        -0.5000 
     65 C          -1.1878  -12.8557  -45.0356 C.2       1 UNK         0.5000 
     66 O          -2.0456  -12.8414  -44.1520 O.2       1 UNK        -0.5000 
     67 C          -1.7444  -20.5068  -48.0540 C.2       11 UNK         0.5000 
     68 O          -2.4446  -20.8236  -49.0145 O.2       11 UNK        -0.5000 
     69 N          -2.2289  -19.8572  -46.9877 N.am      12 UNK        -0.5000 
     70 CA         -3.6506  -19.5757  -46.7800 C.3       12 UNK         0.1400 
     71 CB         -3.8121  -18.6801  -45.5458 C.3       12 UNK        -0.1800 
     72 C          -4.5245  -20.8394  -46.6215 C.2       12 UNK         0.5000 
     73 O          -5.7261  -20.7658  -46.8820 O.2       12 UNK        -0.5000 
     74 N          -3.9309  -21.9661  -46.1951 N.am      13 UNK        -0.5000 
     75 CA         -4.6081  -23.2464  -45.9874 C.3       13 UNK         0.1400 
     76 CB         -3.7096  -24.1673  -45.1451 C.3       13 UNK        -0.1800 
     77 C          -5.0006  -23.9003  -47.3257 C.2       13 UNK         0.5000 
     78 O          -4.1991  -24.6266  -47.9188 O.2       13 UNK        -0.5000 
     79 N          -6.2222  -23.5978  -47.7885 N.am      14 UNK        -0.5000 
     80 CA         -6.8571  -24.0977  -49.0144 C.3       14 UNK         0.1400 
     81 CB         -7.2073  -25.5928  -48.8613 C.3       14 UNK        -0.1800 
     82 C          -6.0316  -23.8060  -50.2849 C.2       14 UNK         0.5000 
     83 O          -5.9323  -24.6615  -51.1646 O.2       14 UNK        -0.5000 
     84 N          -5.4163  -22.6148  -50.3321 N.am      15 UNK        -0.5000 
     85 CA         -4.4773  -22.1562  -51.3614 C.3       15 UNK         0.1400 
     86 CB         -5.2025  -21.9182  -52.7032 C.3       15 UNK        -0.1800 
     87 C          -3.2552  -23.0884  -51.4942 C.2       15 UNK         0.5000 
     88 O          -2.9066  -23.4996  -52.6023 O.2       15 UNK        -0.5000 
     89 N          -2.6572  -23.4275  -50.3440 N.am      16 UNK        -0.5000 
     90 CA         -1.5498  -24.3668  -50.1500 C.3       16 UNK         0.1400 
     91 CB         -0.2617  -23.8318  -50.8122 C.3       16 UNK        -0.1800 
     92 C          -1.9214  -25.7869  -50.6202 C.2       16 UNK         0.5000 
     93 O          -1.1452  -26.4225  -51.3326 O.2       16 UNK        -0.5000 
     94 N          -3.1355  -26.2312  -50.2611 N.am      17 UNK        -0.5000 
     95 CA         -3.7993  -27.4473  -50.7512 C.3       17 UNK         0.1400 
     96 CB         -3.1227  -28.7082  -50.1756 C.3       17 UNK        -0.1800 
     97 C          -3.9098  -27.4626  -52.2940 C.2       17 UNK         0.5000 
     98 O          -3.5509  -28.4469  -52.9424 O.2       17 UNK        -0.5000 
     99 N          -4.3731  -26.3299  -52.8386 N.am      18 UNK        -0.5000 
    100 CA        -4.5360  -25.9815  -54.2522 C.3       18 UNK         0.1400 
    101 CB        -5.5330  -26.9341  -54.9431 C.3       18 UNK        -0.1800 
    102 C         -3.2243  -25.8262  -55.0545 C.2       18 UNK         0.5000 
    103 O         -3.2969  -25.6492  -56.2713 O.2       18 UNK        -0.5000 
    104 N         -2.0553  -25.8609  -54.3971 N.am      19 UNK        -0.5000 
    105 CA        -0.7520  -25.6998  -55.0476 C.3       19 UNK         0.1400 
    106 CB         0.3563  -26.2746  -54.1541 C.3       19 UNK        -0.1800 
    107 C         -0.4364  -24.2400  -55.4242 C.2       19 UNK         0.5000 
    108 O          0.2405  -24.0175  -56.4291 O.2       19 UNK        -0.5000 
    109 N         -0.9230  -23.2732  -54.6312 N.am      20 UNK        -0.5000 
    110 CA        -0.7732  -21.8407  -54.9086 C.3       20 UNK         0.1400 
    111 CB        -0.8496  -21.0413  -53.5989 C.3       20 UNK        -0.1800 
    112 C         -1.8250  -21.3449  -55.9177 C.2       20 UNK         0.5000 
    113 O         -1.5425  -20.4172  -56.6761 O.2       20 UNK        -0.5000 
    114 N         -2.9958  -22.0020  -55.9238 N.am      21 UNK        -0.5000 
    115 CA        -4.0917  -21.8647  -56.8883 C.3       21 UNK         0.1400 
    116 CB        -3.6702  -22.4559  -58.2499 C.3       21 UNK        -0.1800 
    117 C         -4.6571  -20.4319  -57.0040 C.2       21 UNK         0.5000 
    118 O         -4.8455  -19.9287  -58.1139 O.2       21 UNK        -0.5000 
    119 N         -4.9262  -19.8022  -55.8522 N.am      22 UNK        -0.5000 
    120 CA        -5.6265  -18.5098  -55.7534 C.3       22 UNK         0.1400 
    121 C         -7.0744  -18.5705  -56.3216 C.2       22 UNK         0.5000 
    122 N         -7.5283  -17.5234  -56.9968 N.am      22 UNK        -0.7600 
    123 O         -7.8027  -19.5393  -56.1158 O.2       22 UNK        -0.5000 
    124 C124       -5.6636  -17.9804  -54.2980 C.3       23 UNK        -0.0398 
    125 S125       -4.0187  -17.5218  -53.6519 S.3       23 UNK        -0.2404 
    126 C126       -3.8789  -18.5867  -52.1852 C.3       23 UNK        -0.0205 
    127 H127       -0.1641  -10.9280  -49.9258 H         1 UNK         0.0600 
    128 H128        0.9082  -12.2224  -49.3858 H         1 UNK         0.0600 
    129 H129        1.1081  -10.5879  -48.7476 H         1 UNK         0.0600 
    130 H130       -0.0750  -13.5782  -47.9519 H         1 UNK         0.3000 
    131 H131       -1.3092  -14.4787  -46.3757 H         1 UNK         0.0600 
    132 H132       -3.3651  -12.2437  -46.7205 H         1 UNK         0.0800 
    133 H133       -3.6522  -13.7968  -45.9907 H         1 UNK         0.0800 
    134 H134       -3.2156  -15.9526  -47.0450 H         1 UNK         0.0800 
    135 H135       -4.7207  -16.0021  -47.9300 H         1 UNK         0.0800 
    136 H136       -4.7866  -17.0534  -50.1276 H         1 UNK         0.1150 
    137 H137       -1.1770  -18.6336  -51.8158 H         1 UNK         0.1150 
    138 H138       -1.0154  -16.2360  -48.2672 H         1 UNK         0.1150 
    139 H139        0.9604  -17.9907  -50.9446 H         1 UNK         0.0800 
    140 H140        1.0179  -16.5747  -49.9264 H         1 UNK         0.0800 
    141 H141        1.4984  -20.8475  -49.2775 H         1 UNK         0.0800 
    142 H142        0.0878  -20.2159  -50.0594 H         1 UNK         0.0800 
    143 H143       -0.3102  -22.0070  -48.3281 H         1 UNK         0.0600 
    144 H144        1.1717  -20.3631  -46.6113 H         1 UNK         0.3000 
    145 H145        0.9794  -22.7980  -44.0918 H         1 UNK         0.0600 
    146 H146        3.0746  -21.5369  -43.9556 H         1 UNK         0.0600 
    147 H147        2.8079  -22.0154  -45.6225 H         1 UNK         0.0600 
    148 H148        2.5132  -20.3501  -45.1221 H         1 UNK         0.0600 
    149 H149        1.0051  -20.0191  -43.2961 H         1 UNK         0.3000 
    150 H150       -1.7250  -20.3488  -41.0014 H         1 UNK         0.0600 
    151 H151        0.3066  -21.2088  -39.8684 H         1 UNK         0.0600 
    152 H152        0.0773  -19.5023  -39.5192 H         1 UNK         0.0600 
    153 H153        1.3039  -20.0078  -40.6793 H         1 UNK         0.0600 
    154 H154        0.1700  -18.3949  -42.2316 H         1 UNK         0.3000 
    155 H155       -2.4149  -16.5279  -43.6863 H         1 UNK         0.0600 
    156 H156       -2.7668  -15.6275  -41.4173 H         1 UNK         0.0600 
    157 H157       -1.6150  -14.6064  -42.2576 H         1 UNK         0.0600 
    158 H158       -1.0549  -15.7603  -41.0489 H         1 UNK         0.0600 
    159 H159        0.3033  -15.8399  -43.2208 H         1 UNK         0.3000 
    160 H160        1.8597  -17.8624  -45.6544 H         1 UNK         0.0600 
    161 H161        1.3192  -14.8435  -45.6664 H         1 UNK         0.0600 
    162 H162        0.9304  -15.9422  -46.9854 H         1 UNK         0.0600 
    163 H163        2.6053  -15.6771  -46.5349 H         1 UNK         0.0600 
    164 H164        2.8308  -15.7771  -43.9872 H         1 UNK         0.3000 
    165 H165        3.1129  -16.9532  -41.0483 H         1 UNK         0.0600 
    166 H166        5.3529  -18.4178  -42.5355 H         1 UNK         0.0600 
    167 H167        5.4636  -17.8183  -40.8799 H         1 UNK         0.0600 
    168 H168        4.3081  -19.0757  -41.2881 H         1 UNK         0.0600 
    169 H169        3.9923  -15.0379  -41.6134 H         1 UNK         0.3000 
    170 H170        6.5691  -13.8171  -43.3850 H         1 UNK         0.0600 
    171 H171        5.3661  -13.9569  -45.5457 H         1 UNK         0.0600 
    172 H172        3.8379  -13.5743  -44.7661 H         1 UNK         0.0600 
    173 H173        5.1224  -12.3664  -44.8440 H         1 UNK         0.0600 
    174 H174        3.9789  -12.7784  -42.4314 H         1 UNK         0.3000 
    175 H175        4.9982  -12.4447  -39.0822 H         1 UNK         0.0600 
    176 H176        4.6266  -10.1992  -41.1402 H         1 UNK         0.0600 
    177 H177        4.4227  -10.0497  -39.3942 H         1 UNK         0.0600 
    178 H178        6.0099  -10.3812  -40.0681 H         1 UNK         0.0600 
    179 H179        2.6700  -11.5623  -40.4679 H         1 UNK         0.3000 
    180 H180        0.8826  -14.6217  -40.4909 H         1 UNK         0.0600 
    181 H181        0.5144  -12.2049  -38.6403 H         1 UNK         0.0600 
    182 H182        0.6080  -13.8850  -38.1253 H         1 UNK         0.0600 
    183 H183       -0.7419  -13.3497  -39.1130 H         1 UNK         0.0600 
    184 H184        0.2351  -11.8578  -41.0600 H         1 UNK         0.3000 
    185 H185       -0.2113  -11.2257  -43.1485 H         1 UNK         0.0600 
    186 H186        2.1870  -10.5226  -42.9882 H         1 UNK         0.0600 
    187 H187        2.5841  -11.5231  -44.3800 H         1 UNK         0.0600 
    188 H188        1.5117  -10.1385  -44.5625 H         1 UNK         0.0600 
    189 H189        0.7116  -12.4587  -45.6182 H         1 UNK         0.3000 
    190 H190       -1.5870  -19.5488  -46.2645 H         1 UNK         0.3000 
    191 H191       -4.0147  -19.0297  -47.6524 H         1 UNK         0.0600 
    192 H192       -3.4697  -19.1900  -44.6456 H         1 UNK         0.0600 
    193 H193       -3.2430  -17.7585  -45.6456 H         1 UNK         0.0600 
    194 H194       -4.8559  -18.4036  -45.3923 H         1 UNK         0.0600 
    195 H195       -2.9294  -21.9618  -46.0278 H         1 UNK         0.3000 
    196 H196       -5.5181  -23.0636  -45.4121 H         1 UNK         0.0600 
    197 H197       -3.4446  -23.7014  -44.1956 H         1 UNK         0.0600 
    198 H198       -2.7830  -24.4161  -45.6632 H         1 UNK         0.0600 
    199 H199       -4.2181  -25.1051  -44.9192 H         1 UNK         0.0600 
    200 H200       -6.7638  -22.9229  -47.2640 H         1 UNK         0.3000 
    201 H201       -7.7923  -23.5480  -49.1281 H         1 UNK         0.0600 
    202 H202       -7.7679  -25.9562  -49.7233 H         1 UNK         0.0600 
    203 H203       -7.8254  -25.7633  -47.9799 H         1 UNK         0.0600 
    204 H204       -6.3140  -26.2105  -48.7667 H         1 UNK         0.0600 
    205 H205       -5.5419  -21.9938  -49.5446 H         1 UNK         0.3000 
    206 H206       -4.0930  -21.1982  -51.0150 H         1 UNK         0.0600 
    207 H207       -6.0242  -21.2118  -52.5868 H         1 UNK         0.0600 
    208 H208       -5.6114  -22.8405  -53.1157 H         1 UNK         0.0600 
    209 H209       -4.5204  -21.5057  -53.4454 H         1 UNK         0.0600 
    210 H210       -3.0284  -23.0195  -49.4963 H         1 UNK         0.3000 
    211 H211       -1.3774  -24.4264  -49.0744 H         1 UNK         0.0600 
    212 H212       -0.0507  -22.8080  -50.5097 H         1 UNK         0.0600 
    213 H213        0.6000  -24.4399  -50.5353 H         1 UNK         0.0600 
    214 H214       -0.3305  -23.8418  -51.8991 H         1 UNK         0.0600 
    215 H215       -3.6857  -25.6398  -49.6457 H         1 UNK         0.3000 
    216 H216       -4.8211  -27.4172  -50.3710 H         1 UNK         0.0600 
    217 H217       -3.6756  -29.6069  -50.4511 H         1 UNK         0.0600 
    218 H218       -2.1029  -28.8267  -50.5430 H         1 UNK         0.0600 
    219 H219       -3.0846  -28.6715  -49.0870 H         1 UNK         0.0600 
    220 H220       -4.6828  -25.6047  -52.1951 H         1 UNK         0.3000 
    221 H221       -4.9889  -24.9895  -54.2481 H         1 UNK         0.0600 
    222 H222       -5.1251  -27.9391  -55.0520 H         1 UNK         0.0600 
    223 H223       -6.4633  -27.0071  -54.3796 H         1 UNK         0.0600 
    224 H224       -5.7888  -26.5777  -55.9416 H         1 UNK         0.0600 
    225 H225       -2.0566  -25.9886  -53.3928 H         1 UNK         0.3000 
    226 H226       -0.7613  -26.2830  -55.9710 H         1 UNK         0.0600 
    227 H227        0.1348  -27.2995  -53.8558 H         1 UNK         0.0600 
    228 H228        1.3110  -26.2871  -54.6811 H         1 UNK         0.0600 
    229 H229        0.4946  -25.6826  -53.2498 H         1 UNK         0.0600 
    230 H230       -1.5099  -23.5265  -53.8392 H         1 UNK         0.3000 
    231 H231        0.2131  -21.6654  -55.3436 H         1 UNK         0.0600 
    232 H232       -0.6644  -19.9826  -53.7836 H         1 UNK         0.0600 
    233 H233       -0.1041  -21.3825  -52.8809 H         1 UNK         0.0600 
    234 H234       -1.8287  -21.1229  -53.1318 H         1 UNK         0.0600 
    235 H235       -3.1019  -22.7435  -55.2465 H         1 UNK         0.3000 
    236 H236       -4.9088  -22.4795  -56.5078 H         1 UNK         0.0600 
    237 H237       -3.3190  -23.4822  -58.1412 H         1 UNK         0.0600 
    238 H238       -4.5087  -22.4740  -58.9470 H         1 UNK         0.0600 
    239 H239       -2.8704  -21.8763  -58.7120 H         1 UNK         0.0600 
    240 H240       -4.7321  -20.2747  -54.9845 H         1 UNK         0.3000 
    241 H241       -5.0636  -17.7961  -56.3585 H         1 UNK         0.0600 
    242 H242       -8.4701  -17.5439  -57.3570 H         1 UNK         0.3800 
    243 H243       -6.9513  -16.7149  -57.1723 H         1 UNK         0.3800 
    244 H244       -6.2774  -17.0796  -54.2379 H         1 UNK         0.0800 
    245 H245       -6.1461  -18.7098  -53.6460 H         1 UNK         0.0800 
    246 H246       -3.4068  -19.5215  -52.4814 H         1 UNK         0.0800 
    247 H247       -4.8654  -18.8413  -51.7959 H         1 UNK         0.0800 
@<TRIPOS>BOND
     1    1    2 1    
     2    1  127 1    
     3    1  128 1    
     4    1  129 1    
     5    2    3 2    
     6    2    4 am   BACKBONE|DICT|INTERRES
     7    4    5 1    
     8    4  130 1    
     9    5    6 1    
    10    5   65 1    
    11    5  131 1    
    12    6    7 1    
    13    6  132 1    
    14    6  133 1    
    15    7    8 1    
    16    8    9 1    
    17    8  134 1    
    18    8  135 1    
    19    9   10 ar   
    20    9   14 ar   
    21   10   11 ar   
    22   10  136 1    
    23   11   12 ar   
    24   11  126 1    
    25   12   13 ar   
    26   12  137 1    
    27   13   14 ar   
    28   13   15 1    
    29   14  138 1    
    30   15   16 1    
    31   15  139 1    
    32   15  140 1    
    33   16   17 1    
    34   17   18 1    
    35   17  141 1    
    36   17  142 1    
    37   18   19 1    
    38   18   67 1    
    39   18  143 1    
    40   19   20 am   BACKBONE|DICT|INTERRES
    41   19  144 1    
    42   20   21 2    
    43   20   22 1    
    44   22   23 1    
    45   22   24 1    
    46   22  145 1    
    47   23  146 1    
    48   23  147 1    
    49   23  148 1    
    50   24   25 am   BACKBONE|DICT|INTERRES
    51   24  149 1    
    52   25   26 2    
    53   25   27 1    
    54   27   28 1    
    55   27   29 1    
    56   27  150 1    
    57   28  151 1    
    58   28  152 1    
    59   28  153 1    
    60   29   30 am   BACKBONE|DICT|INTERRES
    61   29  154 1    
    62   30   31 2    
    63   30   32 1    
    64   32   33 1    
    65   32   34 1    
    66   32  155 1    
    67   33  156 1    
    68   33  157 1    
    69   33  158 1    
    70   34   35 am   BACKBONE|DICT|INTERRES
    71   34  159 1    
    72   35   36 2    
    73   35   37 1    
    74   37   38 1    
    75   37   39 1    
    76   37  160 1    
    77   38  161 1    
    78   38  162 1    
    79   38  163 1    
    80   39   40 am   BACKBONE|DICT|INTERRES
    81   39  164 1    
    82   40   41 2    
    83   40   42 1    
    84   42   43 1    
    85   42   44 1    
    86   42  165 1    
    87   43  166 1    
    88   43  167 1    
    89   43  168 1    
    90   44   45 am   BACKBONE|DICT|INTERRES
    91   44  169 1    
    92   45   46 2    
    93   45   47 1    
    94   47   48 1    
    95   47   49 1    
    96   47  170 1    
    97   48  171 1    
    98   48  172 1    
    99   48  173 1    
   100   49   50 am   BACKBONE|DICT|INTERRES
   101   49  174 1    
   102   50   51 2    
   103   50   52 1    
   104   52   53 1    
   105   52   54 1    
   106   52  175 1    
   107   53  176 1    
   108   53  177 1    
   109   53  178 1    
   110   54   55 am   BACKBONE|DICT|INTERRES
   111   54  179 1    
   112   55   56 2    
   113   55   57 1    
   114   57   58 1    
   115   57   59 1    
   116   57  180 1    
   117   58  181 1    
   118   58  182 1    
   119   58  183 1    
   120   59   60 am   BACKBONE|DICT|INTERRES
   121   59  184 1    
   122   60   61 2    
   123   60   62 1    
   124   62   63 1    
   125   62   64 1    
   126   62  185 1    
   127   63  186 1    
   128   63  187 1    
   129   63  188 1    
   130   64   65 am   BACKBONE|DICT|INTERRES
   131   64  189 1    
   132   65   66 2    
   133   67   68 2    
   134   67   69 am   BACKBONE|DICT|INTERRES
   135   69   70 1    
   136   69  190 1    
   137   70   71 1    
   138   70   72 1    
   139   70  191 1    
   140   71  192 1    
   141   71  193 1    
   142   71  194 1    
   143   72   73 2    
   144   72   74 am   BACKBONE|DICT|INTERRES
   145   74   75 1    
   146   74  195 1    
   147   75   76 1    
   148   75   77 1    
   149   75  196 1    
   150   76  197 1    
   151   76  198 1    
   152   76  199 1    
   153   77   78 2    
   154   77   79 am   BACKBONE|DICT|INTERRES
   155   79   80 1    
   156   79  200 1    
   157   80   81 1    
   158   80   82 1    
   159   80  201 1    
   160   81  202 1    
   161   81  203 1    
   162   81  204 1    
   163   82   83 2    
   164   82   84 am   BACKBONE|DICT|INTERRES
   165   84   85 1    
   166   84  205 1    
   167   85   86 1    
   168   85   87 1    
   169   85  206 1    
   170   86  207 1    
   171   86  208 1    
   172   86  209 1    
   173   87   88 2    
   174   87   89 am   BACKBONE|DICT|INTERRES
   175   89   90 1    
   176   89  210 1    
   177   90   91 1    
   178   90   92 1    
   179   90  211 1    
   180   91  212 1    
   181   91  213 1    
   182   91  214 1    
   183   92   93 2    
   184   92   94 am   BACKBONE|DICT|INTERRES
   185   94   95 1    
   186   94  215 1    
   187   95   96 1    
   188   95   97 1    
   189   95  216 1    
   190   96  217 1    
   191   96  218 1    
   192   96  219 1    
   193   97   98 2    
   194   97   99 am   BACKBONE|DICT|INTERRES
   195   99  100 1    
   196   99  220 1    
   197  100  101 1    
   198  100  102 1    
   199  100  221 1    
   200  101  222 1    
   201  101  223 1    
   202  101  224 1    
   203  102  103 2    
   204  102  104 am   BACKBONE|DICT|INTERRES
   205  104  105 1    
   206  104  225 1    
   207  105  106 1    
   208  105  107 1    
   209  105  226 1    
   210  106  227 1    
   211  106  228 1    
   212  106  229 1    
   213  107  108 2    
   214  107  109 am   BACKBONE|DICT|INTERRES
   215  109  110 1    
   216  109  230 1    
   217  110  111 1    
   218  110  112 1    
   219  110  231 1    
   220  111  232 1    
   221  111  233 1    
   222  111  234 1    
   223  112  113 2    
   224  112  114 am   BACKBONE|DICT|INTERRES
   225  114  115 1    
   226  114  235 1    
   227  115  116 1    
   228  115  117 1    
   229  115  236 1    
   230  116  237 1    
   231  116  238 1    
   232  116  239 1    
   233  117  118 2    
   234  117  119 am   BACKBONE|DICT|INTERRES
   235  119  120 1    
   236  119  240 1    
   237  120  121 1    
   238  120  124 1    
   239  120  241 1    
   240  121  122 am   BACKBONE|DICT|INTERRES
   241  121  123 2    
   242  122  242 1    
   243  122  243 1    
   244  124  125 1    
   245  124  244 1    
   246  124  245 1    
   247  125  126 1    
   248  126  246 1    
   249  126  247 1    
@<TRIPOS>SUBSTRUCTURE
     1 UNK         1 GROUP             0       ****    0 ROOT    
