@<TRIPOS>MOLECULE
3R540
247   249    1
SMALL
USER_CHARGES


@<TRIPOS>ATOM
      1 CA          6.9356  -15.6878  -50.0958 C.3       0 UNK        -0.1800 
      2 C           6.0712  -15.3531  -48.8891 C.2       0 UNK         0.5000 
      3 O           5.9012  -16.1914  -48.0027 O.2       0 UNK        -0.5000 
      4 N           5.5249  -14.1317  -48.8450 N.am      1 UNK        -0.5000 
      5 CA          4.6474  -13.6389  -47.7784 C.3       1 UNK         0.1400 
      6 C6          3.6717  -12.5363  -48.2666 C.3       23 UNK        -0.0398 
      7 S7          2.6761  -13.0673  -49.7000 S.3       23 UNK        -0.2404 
      8 C8          1.3897  -14.0750  -48.9006 C.3       23 UNK        -0.0205 
      9 C9          0.9911  -15.2317  -49.8007 C.ar      23 UNK        -0.0193 
     10 C10        -0.1100  -15.1192  -50.6536 C.ar      23 UNK        -0.1150 
     11 C11        -0.4738  -16.1772  -51.4988 C.ar      23 UNK        -0.0193 
     12 C12         0.2922  -17.3487  -51.4806 C.ar      23 UNK        -0.1150 
     13 C13         1.4068  -17.4671  -50.6438 C.ar      23 UNK        -0.0193 
     14 C14         1.7446  -16.4078  -49.7987 C.ar      23 UNK        -0.1150 
     15 C15         2.2806  -18.7139  -50.6893 C.3       23 UNK        -0.0205 
     16 S16         2.1291  -19.7332  -49.1896 S.3       23 UNK        -0.2404 
     17 C17         0.4181  -20.3339  -49.3469 C.3       23 UNK        -0.0398 
     18 CA          0.1250  -21.5338  -48.4156 C.3       11 UNK         0.1400 
     19 N           0.1463  -21.1775  -46.9926 N.am      11 UNK        -0.5000 
     20 C           0.0507  -22.0585  -45.9856 C.2       10 UNK         0.5000 
     21 O          -0.0078  -23.2770  -46.1472 O.2       10 UNK        -0.5000 
     22 CA         -0.0557  -21.4894  -44.5594 C.3       10 UNK         0.1400 
     23 CB          1.3249  -21.0944  -44.0150 C.3       10 UNK        -0.1800 
     24 N          -0.9767  -20.3553  -44.4743 N.am      10 UNK        -0.5000 
     25 C          -2.2923  -20.4323  -44.7240 C.2       9 UNK         0.5000 
     26 O          -2.8736  -21.4809  -45.0005 O.2       9 UNK        -0.5000 
     27 CA         -3.0890  -19.1157  -44.7061 C.3       9 UNK         0.1400 
     28 CB         -3.4615  -18.7203  -43.2696 C.3       9 UNK        -0.1800 
     29 N          -2.3742  -18.0148  -45.3492 N.am      9 UNK        -0.5000 
     30 C          -2.0225  -17.9843  -46.6424 C.2       8 UNK         0.5000 
     31 O          -2.3068  -18.8658  -47.4537 O.2       8 UNK        -0.5000 
     32 CA         -1.1529  -16.7939  -47.0854 C.3       8 UNK         0.1400 
     33 CB         -2.0028  -15.5293  -47.2737 C.3       8 UNK        -0.1800 
     34 N          -0.0653  -16.5169  -46.1453 N.am      8 UNK        -0.5000 
     35 C           0.9223  -17.3766  -45.8582 C.2       7 UNK         0.5000 
     36 O           1.0400  -18.4809  -46.3825 O.2       7 UNK        -0.5000 
     37 CA          1.9080  -16.9577  -44.7548 C.3       7 UNK         0.1400 
     38 CB          3.0129  -16.0583  -45.3217 C.3       7 UNK        -0.1800 
     39 N           1.2368  -16.2910  -43.6365 N.am      7 UNK        -0.5000 
     40 C           0.4091  -16.9299  -42.7949 C.2       6 UNK         0.5000 
     41 O           0.1596  -18.1331  -42.8702 O.2       6 UNK        -0.5000 
     42 CA         -0.2931  -16.0875  -41.7167 C.3       6 UNK         0.1400 
     43 CB          0.6405  -15.8250  -40.5271 C.3       6 UNK        -0.1800 
     44 N          -0.8051  -14.8143  -42.2181 N.am      6 UNK        -0.5000 
     45 C          -1.7397  -14.6654  -43.1630 C.2       5 UNK         0.5000 
     46 O          -2.2612  -15.6115  -43.7515 O.2       5 UNK        -0.5000 
     47 CA         -2.1505  -13.2268  -43.5397 C.3       5 UNK         0.1400 
     48 CB         -3.2450  -12.6971  -42.5944 C.3       5 UNK        -0.1800 
     49 N          -1.0294  -12.2819  -43.6558 N.am      5 UNK        -0.5000 
     50 C          -0.2055  -11.8316  -42.6998 C.2       4 UNK         0.5000 
     51 O          -0.2982  -12.1231  -41.5050 O.2       4 UNK        -0.5000 
     52 CA          0.9510  -10.9331  -43.1704 C.3       4 UNK         0.1400 
     53 CB          0.7284   -9.4804  -42.7232 C.3       4 UNK        -0.1800 
     54 N           2.2435  -11.4014  -42.6676 N.am      4 UNK        -0.5000 
     55 C           2.7827  -12.5988  -42.9294 C.2       3 UNK         0.5000 
     56 O           2.2434  -13.4661  -43.6233 O.2       3 UNK        -0.5000 
     57 CA          4.1616  -12.8777  -42.3229 C.3       3 UNK         0.1400 
     58 CB          4.0653  -13.8203  -41.1129 C.3       3 UNK        -0.1800 
     59 N           4.9848  -13.4862  -43.3580 N.am      3 UNK        -0.5000 
     60 C           6.3087  -13.3500  -43.4812 C.2       2 UNK         0.5000 
     61 O           7.0106  -12.7391  -42.6740 O.2       2 UNK        -0.5000 
     62 CA          6.9674  -13.9970  -44.7167 C.3       2 UNK         0.1400 
     63 CB          7.5672  -15.3624  -44.3479 C.3       2 UNK        -0.1800 
     64 N           6.0711  -14.1740  -45.8634 N.am      2 UNK        -0.5000 
     65 C           5.4838  -13.1926  -46.5610 C.2       1 UNK         0.5000 
     66 O           5.6104  -11.9960  -46.2969 O.2       1 UNK        -0.5000 
     67 C          -1.1998  -22.2133  -48.8129 C.2       11 UNK         0.5000 
     68 O          -1.1646  -23.2581  -49.4622 O.2       11 UNK        -0.5000 
     69 N          -2.3348  -21.6381  -48.3884 N.am      12 UNK        -0.5000 
     70 CA         -3.6744  -22.1848  -48.6156 C.3       12 UNK         0.1400 
     71 CB         -4.7304  -21.1955  -48.1039 C.3       12 UNK        -0.1800 
     72 C          -3.8688  -23.5711  -47.9770 C.2       12 UNK         0.5000 
     73 O          -4.4175  -24.4627  -48.6249 O.2       12 UNK        -0.5000 
     74 N          -3.3845  -23.7377  -46.7381 N.am      13 UNK        -0.5000 
     75 CA         -3.3932  -25.0013  -46.0028 C.3       13 UNK         0.1400 
     76 CB         -2.9679  -24.7592  -44.5469 C.3       13 UNK        -0.1800 
     77 C          -2.5110  -26.0757  -46.6618 C.2       13 UNK         0.5000 
     78 O          -2.9652  -27.2081  -46.8255 O.2       13 UNK        -0.5000 
     79 N          -1.2888  -25.6991  -47.0661 N.am      14 UNK        -0.5000 
     80 CA         -0.3370  -26.5668  -47.7667 C.3       14 UNK         0.1400 
     81 CB          1.0129  -25.8466  -47.9020 C.3       14 UNK        -0.1800 
     82 C          -0.8457  -27.0289  -49.1449 C.2       14 UNK         0.5000 
     83 O          -0.6340  -28.1830  -49.5185 O.2       14 UNK        -0.5000 
     84 N          -1.5402  -26.1314  -49.8548 N.am      15 UNK        -0.5000 
     85 CA         -2.2081  -26.4002  -51.1275 C.3       15 UNK         0.1400 
     86 CB         -2.4120  -25.0665  -51.8605 C.3       15 UNK        -0.1800 
     87 C          -3.5563  -27.1345  -50.9771 C.2       15 UNK         0.5000 
     88 O          -4.1653  -27.4668  -51.9938 O.2       15 UNK        -0.5000 
     89 N          -4.0288  -27.3359  -49.7365 N.am      16 UNK        -0.5000 
     90 CA         -5.3170  -27.9331  -49.3603 C.3       16 UNK         0.1400 
     91 CB         -5.3150  -29.4454  -49.6633 C.3       16 UNK        -0.1800 
     92 C          -6.5275  -27.1973  -49.9789 C.2       16 UNK         0.5000 
     93 O          -7.5197  -27.8302  -50.3433 O.2       16 UNK        -0.5000 
     94 N          -6.3941  -25.8698  -50.1172 N.am      17 UNK        -0.5000 
     95 CA         -7.3119  -24.9222  -50.7568 C.3       17 UNK         0.1400 
     96 CB         -8.6425  -24.8430  -49.9808 C.3       17 UNK        -0.1800 
     97 C          -7.5293  -25.1410  -52.2730 C.2       17 UNK         0.5000 
     98 O          -8.4044  -24.4924  -52.8489 O.2       17 UNK        -0.5000 
     99 N          -6.7317  -26.0103  -52.9141 N.am      18 UNK        -0.5000 
    100 CA        -6.7708  -26.2545  -54.3613 C.3       18 UNK         0.1400 
    101 CB        -6.1954  -27.6485  -54.6549 C.3       18 UNK        -0.1800 
    102 C         -6.0145  -25.1760  -55.1635 C.2       18 UNK         0.5000 
    103 O         -6.2093  -25.0657  -56.3747 O.2       18 UNK        -0.5000 
    104 N         -5.1761  -24.3997  -54.4725 N.am      19 UNK        -0.5000 
    105 CA        -4.4293  -23.2491  -54.9596 C.3       19 UNK         0.1400 
    106 CB        -3.1142  -23.7147  -55.6137 C.3       19 UNK        -0.1800 
    107 C         -4.1917  -22.3098  -53.7645 C.2       19 UNK         0.5000 
    108 O         -4.6247  -22.6224  -52.6506 O.2       19 UNK        -0.5000 
    109 N         -3.5129  -21.1816  -54.0193 N.am      20 UNK        -0.5000 
    110 CA        -3.1942  -20.1164  -53.0610 C.3       20 UNK         0.1400 
    111 CB        -2.1863  -20.6008  -52.0003 C.3       20 UNK        -0.1800 
    112 C         -4.4666  -19.4890  -52.4578 C.2       20 UNK         0.5000 
    113 O         -4.6806  -19.5230  -51.2442 O.2       20 UNK        -0.5000 
    114 N         -5.2873  -18.9119  -53.3481 N.am      21 UNK        -0.5000 
    115 CA        -6.5858  -18.2824  -53.0705 C.3       21 UNK         0.1400 
    116 CB        -7.2077  -17.8393  -54.4045 C.3       21 UNK        -0.1800 
    117 C         -6.5566  -17.1066  -52.0683 C.2       21 UNK         0.5000 
    118 O         -7.6171  -16.6789  -51.6102 O.2       21 UNK        -0.5000 
    119 N         -5.3548  -16.6229  -51.7321 N.am      22 UNK        -0.5000 
    120 CA        -5.0748  -15.6924  -50.6295 C.3       22 UNK         0.1400 
    121 C         -5.5101  -16.2185  -49.2289 C.2       22 UNK         0.5000 
    122 N         -5.5498  -17.5276  -49.0039 N.am      22 UNK        -0.7600 
    123 O         -5.8060  -15.4270  -48.3387 O.2       22 UNK        -0.5000 
    124 C124       -3.5749  -15.3030  -50.5720 C.3       23 UNK        -0.0398 
    125 S125       -2.8668  -14.7604  -52.1638 S.3       23 UNK        -0.2404 
    126 C126       -1.6491  -16.0900  -52.4785 C.3       23 UNK        -0.0205 
    127 H127        6.9942  -14.8544  -50.7962 H         1 UNK         0.0600 
    128 H128        7.9473  -15.9355  -49.7752 H         1 UNK         0.0600 
    129 H129        6.5235  -16.5475  -50.6240 H         1 UNK         0.0600 
    130 H130        5.7078  -13.4791  -49.5939 H         1 UNK         0.3000 
    131 H131        4.0320  -14.4741  -47.4452 H         1 UNK         0.0600 
    132 H132        2.9987  -12.2319  -47.4629 H         1 UNK         0.0800 
    133 H133        4.2216  -11.6404  -48.5602 H         1 UNK         0.0800 
    134 H134        1.7396  -14.4679  -47.9460 H         1 UNK         0.0800 
    135 H135        0.5283  -13.4448  -48.6749 H         1 UNK         0.0800 
    136 H136       -0.6668  -14.1940  -50.6618 H         1 UNK         0.1150 
    137 H137        0.0348  -18.1640  -52.1422 H         1 UNK         0.1150 
    138 H138        2.6083  -16.4925  -49.1534 H         1 UNK         0.1150 
    139 H139        2.0494  -19.3208  -51.5660 H         1 UNK         0.0800 
    140 H140        3.3226  -18.4101  -50.7988 H         1 UNK         0.0800 
    141 H141        0.2690  -20.6192  -50.3894 H         1 UNK         0.0800 
    142 H142       -0.2666  -19.5079  -49.1478 H         1 UNK         0.0800 
    143 H143        0.9129  -22.2744  -48.5695 H         1 UNK         0.0600 
    144 H144        0.2557  -20.1900  -46.7751 H         1 UNK         0.3000 
    145 H145       -0.4515  -22.2803  -43.9189 H         1 UNK         0.0600 
    146 H146        1.2579  -20.7494  -42.9832 H         1 UNK         0.0600 
    147 H147        2.0062  -21.9459  -44.0300 H         1 UNK         0.0600 
    148 H148        1.7819  -20.3005  -44.6044 H         1 UNK         0.0600 
    149 H149       -0.5781  -19.4623  -44.2034 H         1 UNK         0.3000 
    150 H150       -4.0133  -19.2799  -45.2636 H         1 UNK         0.0600 
    151 H151       -4.0150  -19.5195  -42.7754 H         1 UNK         0.0600 
    152 H152       -4.0919  -17.8310  -43.2574 H         1 UNK         0.0600 
    153 H153       -2.5774  -18.5103  -42.6671 H         1 UNK         0.0600 
    154 H154       -2.1399  -17.2207  -44.7591 H         1 UNK         0.3000 
    155 H155       -0.7106  -17.0550  -48.0493 H         1 UNK         0.0600 
    156 H156       -2.3369  -15.1156  -46.3237 H         1 UNK         0.0600 
    157 H157       -1.4488  -14.7542  -47.8020 H         1 UNK         0.0600 
    158 H158       -2.8977  -15.7477  -47.8529 H         1 UNK         0.0600 
    159 H159       -0.1158  -15.6531  -45.6276 H         1 UNK         0.3000 
    160 H160        2.3822  -17.8647  -44.3741 H         1 UNK         0.0600 
    161 H161        2.6106  -15.1097  -45.6764 H         1 UNK         0.0600 
    162 H162        3.5165  -16.5415  -46.1604 H         1 UNK         0.0600 
    163 H163        3.7691  -15.8476  -44.5663 H         1 UNK         0.0600 
    164 H164        1.4044  -15.2957  -43.5239 H         1 UNK         0.3000 
    165 H165       -1.1461  -16.6658  -41.3557 H         1 UNK         0.0600 
    166 H166        1.4645  -15.1691  -40.8047 H         1 UNK         0.0600 
    167 H167        0.1038  -15.3540  -39.7034 H         1 UNK         0.0600 
    168 H168        1.0681  -16.7544  -40.1485 H         1 UNK         0.0600 
    169 H169       -0.4441  -13.9668  -41.7884 H         1 UNK         0.3000 
    170 H170       -2.5877  -13.2834  -44.5378 H         1 UNK         0.0600 
    171 H171       -4.1181  -13.3508  -42.6091 H         1 UNK         0.0600 
    172 H172       -2.9026  -12.6389  -41.5610 H         1 UNK         0.0600 
    173 H173       -3.5781  -11.7036  -42.8944 H         1 UNK         0.0600 
    174 H174       -0.8323  -11.9918  -44.6034 H         1 UNK         0.3000 
    175 H175        0.9956  -10.9527  -44.2613 H         1 UNK         0.0600 
    176 H176        1.5144   -8.8257  -43.1001 H         1 UNK         0.0600 
    177 H177       -0.2209   -9.0972  -43.0999 H         1 UNK         0.0600 
    178 H178        0.7095   -9.3922  -41.6361 H         1 UNK         0.0600 
    179 H179        2.7408  -10.7638  -42.0634 H         1 UNK         0.3000 
    180 H180        4.6041  -11.9301  -42.0079 H         1 UNK         0.0600 
    181 H181        3.7110  -14.8093  -41.4051 H         1 UNK         0.0600 
    182 H182        3.3797  -13.4274  -40.3611 H         1 UNK         0.0600 
    183 H183        5.0370  -13.9446  -40.6349 H         1 UNK         0.0600 
    184 H184        4.4675  -13.9675  -44.0804 H         1 UNK         0.3000 
    185 H185        7.7806  -13.3399  -45.0317 H         1 UNK         0.0600 
    186 H186        8.1145  -15.7930  -45.1868 H         1 UNK         0.0600 
    187 H187        8.2677  -15.2715  -43.5166 H         1 UNK         0.0600 
    188 H188        6.7945  -16.0727  -44.0507 H         1 UNK         0.0600 
    189 H189        5.9698  -15.1194  -46.2171 H         1 UNK         0.3000 
    190 H190       -2.2839  -20.7540  -47.8890 H         1 UNK         0.3000 
    191 H191       -3.8136  -22.2973  -49.6922 H         1 UNK         0.0600 
    192 H192       -4.6194  -20.2247  -48.5854 H         1 UNK         0.0600 
    193 H193       -5.7375  -21.5538  -48.3201 H         1 UNK         0.0600 
    194 H194       -4.6565  -21.0437  -47.0272 H         1 UNK         0.0600 
    195 H195       -2.9939  -22.9336  -46.2538 H         1 UNK         0.3000 
    196 H196       -4.4197  -25.3738  -45.9966 H         1 UNK         0.0600 
    197 H197       -2.9787  -25.6887  -43.9763 H         1 UNK         0.0600 
    198 H198       -3.6451  -24.0644  -44.0500 H         1 UNK         0.0600 
    199 H199       -1.9611  -24.3457  -44.4837 H         1 UNK         0.0600 
    200 H200       -0.9727  -24.7537  -46.8631 H         1 UNK         0.3000 
    201 H201       -0.1870  -27.4581  -47.1540 H         1 UNK         0.0600 
    202 H202        1.4253  -25.5963  -46.9245 H         1 UNK         0.0600 
    203 H203        0.9192  -24.9215  -48.4720 H         1 UNK         0.0600 
    204 H204        1.7436  -26.4756  -48.4119 H         1 UNK         0.0600 
    205 H205       -1.6093  -25.1799  -49.5041 H         1 UNK         0.3000 
    206 H206       -1.5609  -27.0308  -51.7402 H         1 UNK         0.0600 
    207 H207       -1.4624  -24.5632  -52.0428 H         1 UNK         0.0600 
    208 H208       -2.8891  -25.2220  -52.8274 H         1 UNK         0.0600 
    209 H209       -3.0442  -24.3886  -51.2856 H         1 UNK         0.0600 
    210 H210       -3.4681  -27.0067  -48.9606 H         1 UNK         0.3000 
    211 H211       -5.4066  -27.8101  -48.2802 H         1 UNK         0.0600 
    212 H212       -5.2809  -29.6431  -50.7351 H         1 UNK         0.0600 
    213 H213       -6.2117  -29.9253  -49.2698 H         1 UNK         0.0600 
    214 H214       -4.4574  -29.9368  -49.2039 H         1 UNK         0.0600 
    215 H215       -5.5508  -25.4482  -49.7307 H         1 UNK         0.3000 
    216 H216       -6.8264  -23.9487  -50.6705 H         1 UNK         0.0600 
    217 H217       -8.4694  -24.6608  -48.9202 H         1 UNK         0.0600 
    218 H218       -9.2219  -25.7617  -50.0745 H         1 UNK         0.0600 
    219 H219       -9.2645  -24.0270  -50.3502 H         1 UNK         0.0600 
    220 H220       -6.0231  -26.5141  -52.3919 H         1 UNK         0.3000 
    221 H221       -7.8113  -26.2449  -54.6926 H         1 UNK         0.0600 
    222 H222       -5.1296  -27.7007  -54.4318 H         1 UNK         0.0600 
    223 H223       -6.7002  -28.4175  -54.0698 H         1 UNK         0.0600 
    224 H224       -6.3195  -27.9056  -55.7075 H         1 UNK         0.0600 
    225 H225       -5.1382  -24.5067  -53.4666 H         1 UNK         0.3000 
    226 H226       -5.0347  -22.7123  -55.6927 H         1 UNK         0.0600 
    227 H227       -3.3027  -24.4311  -56.4134 H         1 UNK         0.0600 
    228 H228       -2.5740  -22.8778  -56.0568 H         1 UNK         0.0600 
    229 H229       -2.4483  -24.1888  -54.8929 H         1 UNK         0.0600 
    230 H230       -3.2054  -21.0164  -54.9675 H         1 UNK         0.3000 
    231 H231       -2.7026  -19.3244  -53.6280 H         1 UNK         0.0600 
    232 H232       -1.2493  -20.9104  -52.4626 H         1 UNK         0.0600 
    233 H233       -2.5692  -21.4468  -51.4325 H         1 UNK         0.0600 
    234 H234       -1.9552  -19.8068  -51.2891 H         1 UNK         0.0600 
    235 H235       -5.0200  -18.9404  -54.3213 H         1 UNK         0.3000 
    236 H236       -7.2278  -19.0495  -52.6331 H         1 UNK         0.0600 
    237 H237       -8.1961  -17.4035  -54.2526 H         1 UNK         0.0600 
    238 H238       -6.5923  -17.0901  -54.9040 H         1 UNK         0.0600 
    239 H239       -7.3298  -18.6831  -55.0839 H         1 UNK         0.0600 
    240 H240       -4.5480  -17.0261  -52.1802 H         1 UNK         0.3000 
    241 H241       -5.6523  -14.7872  -50.8249 H         1 UNK         0.0600 
    242 H242       -5.2910  -18.1871  -49.7295 H         1 UNK         0.3800 
    243 H243       -5.8322  -17.8645  -48.0986 H         1 UNK         0.3800 
    244 H244       -3.4294  -14.4888  -49.8601 H         1 UNK         0.0800 
    245 H245       -2.9862  -16.1420  -50.1963 H         1 UNK         0.0800 
    246 H246       -2.1778  -17.0435  -52.4947 H         1 UNK         0.0800 
    247 H247       -1.2437  -15.9467  -53.4809 H         1 UNK         0.0800 
@<TRIPOS>BOND
     1    1    2 1    
     2    1  127 1    
     3    1  128 1    
     4    1  129 1    
     5    2    3 2    
     6    2    4 am   BACKBONE|DICT|INTERRES
     7    4    5 1    
     8    4  130 1    
     9    5    6 1    
    10    5   65 1    
    11    5  131 1    
    12    6    7 1    
    13    6  132 1    
    14    6  133 1    
    15    7    8 1    
    16    8    9 1    
    17    8  134 1    
    18    8  135 1    
    19    9   10 ar   
    20    9   14 ar   
    21   10   11 ar   
    22   10  136 1    
    23   11   12 ar   
    24   11  126 1    
    25   12   13 ar   
    26   12  137 1    
    27   13   14 ar   
    28   13   15 1    
    29   14  138 1    
    30   15   16 1    
    31   15  139 1    
    32   15  140 1    
    33   16   17 1    
    34   17   18 1    
    35   17  141 1    
    36   17  142 1    
    37   18   19 1    
    38   18   67 1    
    39   18  143 1    
    40   19   20 am   BACKBONE|DICT|INTERRES
    41   19  144 1    
    42   20   21 2    
    43   20   22 1    
    44   22   23 1    
    45   22   24 1    
    46   22  145 1    
    47   23  146 1    
    48   23  147 1    
    49   23  148 1    
    50   24   25 am   BACKBONE|DICT|INTERRES
    51   24  149 1    
    52   25   26 2    
    53   25   27 1    
    54   27   28 1    
    55   27   29 1    
    56   27  150 1    
    57   28  151 1    
    58   28  152 1    
    59   28  153 1    
    60   29   30 am   BACKBONE|DICT|INTERRES
    61   29  154 1    
    62   30   31 2    
    63   30   32 1    
    64   32   33 1    
    65   32   34 1    
    66   32  155 1    
    67   33  156 1    
    68   33  157 1    
    69   33  158 1    
    70   34   35 am   BACKBONE|DICT|INTERRES
    71   34  159 1    
    72   35   36 2    
    73   35   37 1    
    74   37   38 1    
    75   37   39 1    
    76   37  160 1    
    77   38  161 1    
    78   38  162 1    
    79   38  163 1    
    80   39   40 am   BACKBONE|DICT|INTERRES
    81   39  164 1    
    82   40   41 2    
    83   40   42 1    
    84   42   43 1    
    85   42   44 1    
    86   42  165 1    
    87   43  166 1    
    88   43  167 1    
    89   43  168 1    
    90   44   45 am   BACKBONE|DICT|INTERRES
    91   44  169 1    
    92   45   46 2    
    93   45   47 1    
    94   47   48 1    
    95   47   49 1    
    96   47  170 1    
    97   48  171 1    
    98   48  172 1    
    99   48  173 1    
   100   49   50 am   BACKBONE|DICT|INTERRES
   101   49  174 1    
   102   50   51 2    
   103   50   52 1    
   104   52   53 1    
   105   52   54 1    
   106   52  175 1    
   107   53  176 1    
   108   53  177 1    
   109   53  178 1    
   110   54   55 am   BACKBONE|DICT|INTERRES
   111   54  179 1    
   112   55   56 2    
   113   55   57 1    
   114   57   58 1    
   115   57   59 1    
   116   57  180 1    
   117   58  181 1    
   118   58  182 1    
   119   58  183 1    
   120   59   60 am   BACKBONE|DICT|INTERRES
   121   59  184 1    
   122   60   61 2    
   123   60   62 1    
   124   62   63 1    
   125   62   64 1    
   126   62  185 1    
   127   63  186 1    
   128   63  187 1    
   129   63  188 1    
   130   64   65 am   BACKBONE|DICT|INTERRES
   131   64  189 1    
   132   65   66 2    
   133   67   68 2    
   134   67   69 am   BACKBONE|DICT|INTERRES
   135   69   70 1    
   136   69  190 1    
   137   70   71 1    
   138   70   72 1    
   139   70  191 1    
   140   71  192 1    
   141   71  193 1    
   142   71  194 1    
   143   72   73 2    
   144   72   74 am   BACKBONE|DICT|INTERRES
   145   74   75 1    
   146   74  195 1    
   147   75   76 1    
   148   75   77 1    
   149   75  196 1    
   150   76  197 1    
   151   76  198 1    
   152   76  199 1    
   153   77   78 2    
   154   77   79 am   BACKBONE|DICT|INTERRES
   155   79   80 1    
   156   79  200 1    
   157   80   81 1    
   158   80   82 1    
   159   80  201 1    
   160   81  202 1    
   161   81  203 1    
   162   81  204 1    
   163   82   83 2    
   164   82   84 am   BACKBONE|DICT|INTERRES
   165   84   85 1    
   166   84  205 1    
   167   85   86 1    
   168   85   87 1    
   169   85  206 1    
   170   86  207 1    
   171   86  208 1    
   172   86  209 1    
   173   87   88 2    
   174   87   89 am   BACKBONE|DICT|INTERRES
   175   89   90 1    
   176   89  210 1    
   177   90   91 1    
   178   90   92 1    
   179   90  211 1    
   180   91  212 1    
   181   91  213 1    
   182   91  214 1    
   183   92   93 2    
   184   92   94 am   BACKBONE|DICT|INTERRES
   185   94   95 1    
   186   94  215 1    
   187   95   96 1    
   188   95   97 1    
   189   95  216 1    
   190   96  217 1    
   191   96  218 1    
   192   96  219 1    
   193   97   98 2    
   194   97   99 am   BACKBONE|DICT|INTERRES
   195   99  100 1    
   196   99  220 1    
   197  100  101 1    
   198  100  102 1    
   199  100  221 1    
   200  101  222 1    
   201  101  223 1    
   202  101  224 1    
   203  102  103 2    
   204  102  104 am   BACKBONE|DICT|INTERRES
   205  104  105 1    
   206  104  225 1    
   207  105  106 1    
   208  105  107 1    
   209  105  226 1    
   210  106  227 1    
   211  106  228 1    
   212  106  229 1    
   213  107  108 2    
   214  107  109 am   BACKBONE|DICT|INTERRES
   215  109  110 1    
   216  109  230 1    
   217  110  111 1    
   218  110  112 1    
   219  110  231 1    
   220  111  232 1    
   221  111  233 1    
   222  111  234 1    
   223  112  113 2    
   224  112  114 am   BACKBONE|DICT|INTERRES
   225  114  115 1    
   226  114  235 1    
   227  115  116 1    
   228  115  117 1    
   229  115  236 1    
   230  116  237 1    
   231  116  238 1    
   232  116  239 1    
   233  117  118 2    
   234  117  119 am   BACKBONE|DICT|INTERRES
   235  119  120 1    
   236  119  240 1    
   237  120  121 1    
   238  120  124 1    
   239  120  241 1    
   240  121  122 am   BACKBONE|DICT|INTERRES
   241  121  123 2    
   242  122  242 1    
   243  122  243 1    
   244  124  125 1    
   245  124  244 1    
   246  124  245 1    
   247  125  126 1    
   248  126  246 1    
   249  126  247 1    
@<TRIPOS>SUBSTRUCTURE
     1 UNK         1 GROUP             0       ****    0 ROOT    
