@<TRIPOS>MOLECULE
3R540
247   249    1
SMALL
USER_CHARGES


@<TRIPOS>ATOM
      1 CA          5.2645  -10.7729  -48.3681 C.3       0 UNK        -0.1800 
      2 C           4.2200  -11.5065  -47.5410 C.2       0 UNK         0.5000 
      3 O           4.1316  -11.2889  -46.3327 O.2       0 UNK        -0.5000 
      4 N           3.4107  -12.3577  -48.1850 N.am      1 UNK        -0.5000 
      5 CA          2.3641  -13.1824  -47.5621 C.3       1 UNK         0.1400 
      6 C6          1.8125  -14.2426  -48.5476 C.3       23 UNK        -0.0398 
      7 S7          0.9811  -13.5476  -50.0171 S.3       23 UNK        -0.2404 
      8 C8          1.0069  -14.9763  -51.1480 C.3       23 UNK        -0.0205 
      9 C9          0.2929  -16.2028  -50.5900 C.ar      23 UNK        -0.0193 
     10 C10        -1.0546  -16.1341  -50.2174 C.ar      23 UNK        -0.1150 
     11 C11        -1.7245  -17.2759  -49.7660 C.ar      23 UNK        -0.0193 
     12 C12        -1.0343  -18.4848  -49.6715 C.ar      23 UNK        -0.1150 
     13 C13         0.3065  -18.5692  -50.0451 C.ar      23 UNK        -0.0193 
     14 C14         0.9693  -17.4243  -50.4963 C.ar      23 UNK        -0.1150 
     15 C15         1.0168  -19.9088  -49.9753 C.3       23 UNK        -0.0205 
     16 S16         1.7056  -20.1713  -48.3191 S.3       23 UNK        -0.2404 
     17 C17         1.9880  -21.9684  -48.3087 C.3       23 UNK        -0.0398 
     18 CA          0.9852  -22.7862  -47.4574 C.3       11 UNK         0.1400 
     19 N           0.9068  -22.3754  -46.0490 N.am      11 UNK        -0.5000 
     20 C           0.4763  -23.1959  -45.0782 C.2       10 UNK         0.5000 
     21 O           0.1209  -24.3563  -45.2853 O.2       10 UNK        -0.5000 
     22 CA          0.3892  -22.6371  -43.6470 C.3       10 UNK         0.1400 
     23 CB          1.7783  -22.5358  -42.9991 C.3       10 UNK        -0.1800 
     24 N          -0.2974  -21.3487  -43.5787 N.am      10 UNK        -0.5000 
     25 C          -1.5916  -21.1687  -43.8788 C.2       9 UNK         0.5000 
     26 O          -2.3412  -22.0738  -44.2414 O.2       9 UNK        -0.5000 
     27 CA         -2.1381  -19.7330  -43.7945 C.3       9 UNK         0.1400 
     28 CB         -2.5101  -19.3753  -42.3481 C.3       9 UNK        -0.1800 
     29 N          -1.2032  -18.7412  -44.3195 N.am      9 UNK        -0.5000 
     30 C          -0.7662  -18.7045  -45.5863 C.2       8 UNK         0.5000 
     31 O          -1.1432  -19.4800  -46.4627 O.2       8 UNK        -0.5000 
     32 CA          0.3132  -17.6564  -45.9035 C.3       8 UNK         0.1400 
     33 CB         -0.3122  -16.2580  -46.0016 C.3       8 UNK        -0.1800 
     34 N           1.3885  -17.6478  -44.9081 N.am      8 UNK        -0.5000 
     35 C           2.1576  -18.7004  -44.5865 C.2       7 UNK         0.5000 
     36 O           2.0777  -19.8071  -45.1170 O.2       7 UNK        -0.5000 
     37 CA          3.1438  -18.5009  -43.4254 C.3       7 UNK         0.1400 
     38 CB          4.4248  -17.7995  -43.9016 C.3       7 UNK        -0.1800 
     39 N           2.5316  -17.7462  -42.3328 N.am      7 UNK        -0.5000 
     40 C           1.5799  -18.2363  -41.5249 C.2       6 UNK         0.5000 
     41 O           1.1657  -19.3945  -41.5802 O.2       6 UNK        -0.5000 
     42 CA          0.9597  -17.2539  -40.5139 C.3       6 UNK         0.1400 
     43 CB          1.8269  -17.1553  -39.2501 C.3       6 UNK        -0.1800 
     44 N           0.7688  -15.9165  -41.0782 N.am      6 UNK        -0.5000 
     45 C          -0.0992  -15.6289  -42.0585 C.2       5 UNK         0.5000 
     46 O          -0.8683  -16.4548  -42.5485 O.2       5 UNK        -0.5000 
     47 CA         -0.0774  -14.1917  -42.6123 C.3       5 UNK         0.1400 
     48 CB         -1.0716  -13.3017  -41.8530 C.3       5 UNK        -0.1800 
     49 N           1.2461  -13.5655  -42.5839 N.am      5 UNK        -0.5000 
     50 C           2.3241  -14.0034  -43.2462 C.2       4 UNK         0.5000 
     51 O           2.3380  -15.0453  -43.9042 O.2       4 UNK        -0.5000 
     52 CA          3.5852  -13.1210  -43.1526 C.3       4 UNK         0.1400 
     53 CB          4.7812  -13.7094  -43.9219 C.3       4 UNK        -0.1800 
     54 N           3.3270  -11.7701  -43.6493 N.am      4 UNK        -0.5000 
     55 C           2.7356  -10.7831  -42.9629 C.2       3 UNK         0.5000 
     56 O           2.3332  -10.9055  -41.8051 O.2       3 UNK        -0.5000 
     57 CA          2.5214   -9.4592  -43.7117 C.3       3 UNK         0.1400 
     58 CB          3.8490   -8.7054  -43.8912 C.3       3 UNK        -0.1800 
     59 N           1.9212   -9.7109  -45.0200 N.am      3 UNK        -0.5000 
     60 C           0.6027   -9.7196  -45.2623 C.2       2 UNK         0.5000 
     61 O          -0.2499   -9.4233  -44.4245 O.2       2 UNK        -0.5000 
     62 CA          0.1551  -10.1377  -46.6779 C.3       2 UNK         0.1400 
     63 CB          0.0249   -8.9074  -47.5884 C.3       2 UNK        -0.1800 
     64 N           1.0652  -11.0987  -47.3017 N.am      2 UNK        -0.5000 
     65 C           1.2351  -12.3635  -46.8900 C.2       1 UNK         0.5000 
     66 O           0.5648  -12.8748  -45.9945 O.2       1 UNK        -0.5000 
     67 C          -0.4063  -22.9350  -48.1121 C.2       11 UNK         0.5000 
     68 O          -0.5786  -23.8316  -48.9390 O.2       11 UNK        -0.5000 
     69 N          -1.3936  -22.1253  -47.6957 N.am      12 UNK        -0.5000 
     70 CA         -2.7986  -22.2895  -48.0812 C.3       12 UNK         0.1400 
     71 CB         -3.6325  -21.0953  -47.5951 C.3       12 UNK        -0.1800 
     72 C          -3.3986  -23.6105  -47.5651 C.2       12 UNK         0.5000 
     73 O          -4.0864  -24.2947  -48.3216 O.2       12 UNK        -0.5000 
     74 N          -3.0985  -23.9679  -46.3077 N.am      13 UNK        -0.5000 
     75 CA         -3.4970  -25.2329  -45.6877 C.3       13 UNK         0.1400 
     76 CB         -3.2305  -25.1826  -44.1760 C.3       13 UNK        -0.1800 
     77 C          -2.8072  -26.4540  -46.3218 C.2       13 UNK         0.5000 
     78 O          -3.4493  -27.4934  -46.4697 O.2       13 UNK        -0.5000 
     79 N          -1.5338  -26.3039  -46.7153 N.am      14 UNK        -0.5000 
     80 CA         -0.7651  -27.3181  -47.4415 C.3       14 UNK         0.1400 
     81 CB          0.7143  -26.9101  -47.4994 C.3       14 UNK        -0.1800 
     82 C          -1.3172  -27.5747  -48.8566 C.2       14 UNK         0.5000 
     83 O          -1.3853  -28.7291  -49.2804 O.2       14 UNK        -0.5000 
     84 N          -1.7345  -26.5022  -49.5458 N.am      15 UNK        -0.5000 
     85 CA         -2.4422  -26.5634  -50.8276 C.3       15 UNK         0.1400 
     86 CB         -2.4589  -25.1645  -51.4614 C.3       15 UNK        -0.1800 
     87 C          -3.8799  -27.1052  -50.6944 C.2       15 UNK         0.5000 
     88 O          -4.4201  -27.6388  -51.6638 O.2       15 UNK        -0.5000 
     89 N          -4.4735  -26.9346  -49.5052 N.am      16 UNK        -0.5000 
     90 CA         -5.8047  -27.3378  -49.0390 C.3       16 UNK         0.1400 
     91 CB         -6.0127  -28.8589  -49.1587 C.3       16 UNK        -0.1800 
     92 C          -6.9601  -26.5553  -49.6873 C.2       16 UNK         0.5000 
     93 O          -7.8703  -26.1219  -48.9800 O.2       16 UNK        -0.5000 
     94 N          -6.9012  -26.3734  -51.0104 N.am      17 UNK        -0.5000 
     95 CA         -7.8685  -25.6105  -51.7969 C.3       17 UNK         0.1400 
     96 CB         -7.7479  -26.0350  -53.2688 C.3       17 UNK        -0.1800 
     97 C          -7.6876  -24.0861  -51.6675 C.2       17 UNK         0.5000 
     98 O          -8.6393  -23.3516  -51.9358 O.2       17 UNK        -0.5000 
     99 N          -6.4765  -23.6434  -51.2868 N.am      18 UNK        -0.5000 
    100 CA        -6.0093  -22.2521  -51.2760 C.3       18 UNK         0.1400 
    101 CB        -6.7154  -21.4465  -50.1633 C.3       18 UNK        -0.1800 
    102 C         -6.1251  -21.6416  -52.6907 C.2       18 UNK         0.5000 
    103 O         -5.5702  -22.2258  -53.6237 O.2       18 UNK        -0.5000 
    104 N         -6.8594  -20.5270  -52.8337 N.am      19 UNK        -0.5000 
    105 CA        -7.3111  -19.9043  -54.0849 C.3       19 UNK         0.1400 
    106 CB        -8.4422  -20.7498  -54.7101 C.3       19 UNK        -0.1800 
    107 C         -6.1614  -19.6096  -55.0683 C.2       19 UNK         0.5000 
    108 O         -5.4833  -18.5932  -54.9177 O.2       19 UNK        -0.5000 
    109 N         -5.9338  -20.5151  -56.0295 N.am      20 UNK        -0.5000 
    110 CA        -4.8389  -20.4748  -57.0012 C.3       20 UNK         0.1400 
    111 CB        -5.0193  -21.6268  -58.0012 C.3       20 UNK        -0.1800 
    112 C         -3.4341  -20.5261  -56.3652 C.2       20 UNK         0.5000 
    113 O         -2.4844  -20.0317  -56.9734 O.2       20 UNK        -0.5000 
    114 N         -3.3244  -21.0922  -55.1534 N.am      21 UNK        -0.5000 
    115 CA        -2.1057  -21.0625  -54.3421 C.3       21 UNK         0.1400 
    116 CB        -2.2220  -22.0855  -53.2026 C.3       21 UNK        -0.1800 
    117 C         -1.8073  -19.6609  -53.7754 C.2       21 UNK         0.5000 
    118 O         -0.6363  -19.3224  -53.6023 O.2       21 UNK        -0.5000 
    119 N         -2.8621  -18.8787  -53.5097 N.am      22 UNK        -0.5000 
    120 CA        -2.7695  -17.4825  -53.0637 C.3       22 UNK         0.1400 
    121 C         -2.6320  -16.4967  -54.2536 C.2       22 UNK         0.5000 
    122 N         -3.3805  -16.6846  -55.3335 N.am      22 UNK        -0.7600 
    123 O         -1.8437  -15.5572  -54.1985 O.2       22 UNK        -0.5000 
    124 C124       -3.9581  -17.0641  -52.1564 C.3       23 UNK        -0.0398 
    125 S125       -4.1859  -18.1278  -50.6881 S.3       23 UNK        -0.2404 
    126 C126       -3.2071  -17.2321  -49.4360 C.3       23 UNK        -0.0205 
    127 H127        6.2636  -11.0085  -48.0017 H         1 UNK         0.0600 
    128 H128        5.2137  -11.0477  -49.4219 H         1 UNK         0.0600 
    129 H129        5.1161   -9.6960  -48.2885 H         1 UNK         0.0600 
    130 H130        3.5119  -12.4745  -49.1836 H         1 UNK         0.3000 
    131 H131        2.8475  -13.7310  -46.7510 H         1 UNK         0.0600 
    132 H132        1.1091  -14.9063  -48.0480 H         1 UNK         0.0800 
    133 H133        2.6301  -14.8838  -48.8800 H         1 UNK         0.0800 
    134 H134        2.0435  -15.2093  -51.3959 H         1 UNK         0.0800 
    135 H135        0.5256  -14.6909  -52.0846 H         1 UNK         0.0800 
    136 H136       -1.5865  -15.1976  -50.3095 H         1 UNK         0.1150 
    137 H137       -1.5484  -19.3712  -49.3294 H         1 UNK         0.1150 
    138 H138        2.0067  -17.4920  -50.7922 H         1 UNK         0.1150 
    139 H139        0.3134  -20.7075  -50.2170 H         1 UNK         0.0800 
    140 H140        1.8145  -19.9605  -50.7177 H         1 UNK         0.0800 
    141 H141        2.9926  -22.1273  -47.9150 H         1 UNK         0.0800 
    142 H142        2.0183  -22.3447  -49.3328 H         1 UNK         0.0800 
    143 H143        1.3993  -23.7963  -47.4499 H         1 UNK         0.0600 
    144 H144        1.1909  -21.4247  -45.8234 H         1 UNK         0.3000 
    145 H145       -0.1954  -23.3463  -43.0570 H         1 UNK         0.0600 
    146 H146        1.7073  -22.1960  -41.9657 H         1 UNK         0.0600 
    147 H147        2.2727  -23.5079  -42.9884 H         1 UNK         0.0600 
    148 H148        2.4298  -21.8457  -43.5334 H         1 UNK         0.0600 
    149 H149        0.2523  -20.5527  -43.2799 H         1 UNK         0.3000 
    150 H150       -3.0450  -19.6864  -44.4005 H         1 UNK         0.0600 
    151 H151       -3.2177  -20.0961  -41.9366 H         1 UNK         0.0600 
    152 H152       -2.9782  -18.3922  -42.2939 H         1 UNK         0.0600 
    153 H153       -1.6348  -19.3642  -41.6980 H         1 UNK         0.0600 
    154 H154       -0.8810  -18.0298  -43.6694 H         1 UNK         0.3000 
    155 H155        0.7615  -17.8935  -46.8685 H         1 UNK         0.0600 
    156 H156       -0.9953  -16.0520  -45.1783 H         1 UNK         0.0600 
    157 H157       -0.8791  -16.1526  -46.9272 H         1 UNK         0.0600 
    158 H158        0.4527  -15.4847  -45.9875 H         1 UNK         0.0600 
    159 H159        1.5665  -16.7650  -44.4385 H         1 UNK         0.3000 
    160 H160        3.4222  -19.4862  -43.0452 H         1 UNK         0.0600 
    161 H161        5.1206  -17.6416  -43.0776 H         1 UNK         0.0600 
    162 H162        4.2148  -16.8320  -44.3566 H         1 UNK         0.0600 
    163 H163        4.9383  -18.4036  -44.6504 H         1 UNK         0.0600 
    164 H164        2.7680  -16.7667  -42.2709 H         1 UNK         0.3000 
    165 H165       -0.0187  -17.6455  -40.2271 H         1 UNK         0.0600 
    166 H166        1.3576  -16.5200  -38.4987 H         1 UNK         0.0600 
    167 H167        1.9711  -18.1381  -38.7991 H         1 UNK         0.0600 
    168 H168        2.8141  -16.7458  -39.4677 H         1 UNK         0.0600 
    169 H169        1.3612  -15.1785  -40.7275 H         1 UNK         0.3000 
    170 H170       -0.3930  -14.2378  -43.6562 H         1 UNK         0.0600 
    171 H171       -2.0754  -13.7280  -41.8775 H         1 UNK         0.0600 
    172 H172       -0.7886  -13.1840  -40.8063 H         1 UNK         0.0600 
    173 H173       -1.1300  -12.3086  -42.2994 H         1 UNK         0.0600 
    174 H174        1.3285  -12.6860  -42.0857 H         1 UNK         0.3000 
    175 H175        3.8658  -13.0644  -42.0989 H         1 UNK         0.0600 
    176 H176        4.5610  -13.8290  -44.9831 H         1 UNK         0.0600 
    177 H177        5.6589  -13.0689  -43.8345 H         1 UNK         0.0600 
    178 H178        5.0555  -14.6882  -43.5279 H         1 UNK         0.0600 
    179 H179        3.6117  -11.5900  -44.6098 H         1 UNK         0.3000 
    180 H180        1.8599   -8.8319  -43.1104 H         1 UNK         0.0600 
    181 H181        4.5632   -9.2716  -44.4902 H         1 UNK         0.0600 
    182 H182        4.3161   -8.5047  -42.9263 H         1 UNK         0.0600 
    183 H183        3.6908   -7.7449  -44.3817 H         1 UNK         0.0600 
    184 H184        2.5516  -10.0254  -45.7474 H         1 UNK         0.3000 
    185 H185       -0.8278  -10.6056  -46.5911 H         1 UNK         0.0600 
    186 H186       -0.6679   -8.1796  -47.1638 H         1 UNK         0.0600 
    187 H187        0.9834   -8.4059  -47.7278 H         1 UNK         0.0600 
    188 H188       -0.3571   -9.1829  -48.5716 H         1 UNK         0.0600 
    189 H189        1.6456  -10.7595  -48.0546 H         1 UNK         0.3000 
    190 H190       -1.1803  -21.3609  -47.0604 H         1 UNK         0.3000 
    191 H191       -2.8452  -22.3089  -49.1721 H         1 UNK         0.0600 
    192 H192       -3.5764  -20.9790  -46.5129 H         1 UNK         0.0600 
    193 H193       -4.6835  -21.2178  -47.8567 H         1 UNK         0.0600 
    194 H194       -3.2957  -20.1650  -48.0492 H         1 UNK         0.0600 
    195 H195       -2.5781  -23.3223  -45.7204 H         1 UNK         0.3000 
    196 H196       -4.5727  -25.3510  -45.8348 H         1 UNK         0.0600 
    197 H197       -3.5249  -26.1162  -43.6952 H         1 UNK         0.0600 
    198 H198       -3.7987  -24.3814  -43.7033 H         1 UNK         0.0600 
    199 H199       -2.1752  -25.0182  -43.9573 H         1 UNK         0.0600 
    200 H200       -1.0491  -25.4452  -46.4741 H         1 UNK         0.3000 
    201 H201       -0.8355  -28.2526  -46.8809 H         1 UNK         0.0600 
    202 H202        1.1166  -26.7330  -46.5018 H         1 UNK         0.0600 
    203 H203        0.8597  -26.0048  -48.0877 H         1 UNK         0.0600 
    204 H204        1.3153  -27.6960  -47.9582 H         1 UNK         0.0600 
    205 H205       -1.5701  -25.5777  -49.1597 H         1 UNK         0.3000 
    206 H206       -1.8950  -27.2349  -51.4923 H         1 UNK         0.0600 
    207 H207       -1.4465  -24.7971  -51.6306 H         1 UNK         0.0600 
    208 H208       -2.9661  -25.1805  -52.4268 H         1 UNK         0.0600 
    209 H209       -2.9745  -24.4396  -50.8310 H         1 UNK         0.0600 
    210 H210       -3.9589  -26.3795  -48.8324 H         1 UNK         0.3000 
    211 H211       -5.8230  -27.0908  -47.9763 H         1 UNK         0.0600 
    212 H212       -6.0307  -29.1904  -50.1971 H         1 UNK         0.0600 
    213 H213       -6.9590  -29.1572  -48.7062 H         1 UNK         0.0600 
    214 H214       -5.2202  -29.4037  -48.6453 H         1 UNK         0.0600 
    215 H215       -6.1174  -26.7895  -51.5061 H         1 UNK         0.3000 
    216 H216       -8.8746  -25.8565  -51.4507 H         1 UNK         0.0600 
    217 H217       -8.4737  -25.5074  -53.8891 H         1 UNK         0.0600 
    218 H218       -7.9339  -27.1025  -53.3883 H         1 UNK         0.0600 
    219 H219       -6.7560  -25.8195  -53.6687 H         1 UNK         0.0600 
    220 H220       -5.7735  -24.3403  -51.0910 H         1 UNK         0.3000 
    221 H221       -4.9457  -22.2836  -51.0365 H         1 UNK         0.0600 
    222 H222       -7.7848  -21.3355  -50.3452 H         1 UNK         0.0600 
    223 H223       -6.5999  -21.9403  -49.1986 H         1 UNK         0.0600 
    224 H224       -6.2854  -20.4489  -50.0658 H         1 UNK         0.0600 
    225 H225       -7.2383  -20.1149  -51.9932 H         1 UNK         0.3000 
    226 H226       -7.7358  -18.9362  -53.8152 H         1 UNK         0.0600 
    227 H227       -9.3008  -20.8013  -54.0404 H         1 UNK         0.0600 
    228 H228       -8.7911  -20.3126  -55.6467 H         1 UNK         0.0600 
    229 H229       -8.1299  -21.7745  -54.9148 H         1 UNK         0.0600 
    230 H230       -6.5101  -21.3440  -56.0402 H         1 UNK         0.3000 
    231 H231       -4.9150  -19.5316  -57.5458 H         1 UNK         0.0600 
    232 H232       -5.9747  -21.5528  -58.5212 H         1 UNK         0.0600 
    233 H233       -4.9795  -22.5978  -57.5059 H         1 UNK         0.0600 
    234 H234       -4.2358  -21.6126  -58.7601 H         1 UNK         0.0600 
    235 H235       -4.1516  -21.4995  -54.7246 H         1 UNK         0.3000 
    236 H236       -1.2654  -21.3547  -54.9754 H         1 UNK         0.0600 
    237 H237       -1.2909  -22.1484  -52.6378 H         1 UNK         0.0600 
    238 H238       -3.0109  -21.8191  -52.4998 H         1 UNK         0.0600 
    239 H239       -2.4371  -23.0804  -53.5913 H         1 UNK         0.0600 
    240 H240       -3.7891  -19.2031  -53.7475 H         1 UNK         0.3000 
    241 H241       -1.8558  -17.3814  -52.4800 H         1 UNK         0.0600 
    242 H242       -3.2989  -16.0546  -56.1152 H         1 UNK         0.3800 
    243 H243       -4.0875  -17.4150  -55.3399 H         1 UNK         0.3800 
    244 H244       -3.8368  -16.0315  -51.8247 H         1 UNK         0.0800 
    245 H245       -4.8904  -17.0866  -52.7226 H         1 UNK         0.0800 
    246 H246       -3.5622  -16.2036  -49.3558 H         1 UNK         0.0800 
    247 H247       -3.3697  -17.6908  -48.4596 H         1 UNK         0.0800 
@<TRIPOS>BOND
     1    1    2 1    
     2    1  127 1    
     3    1  128 1    
     4    1  129 1    
     5    2    3 2    
     6    2    4 am   BACKBONE|DICT|INTERRES
     7    4    5 1    
     8    4  130 1    
     9    5    6 1    
    10    5   65 1    
    11    5  131 1    
    12    6    7 1    
    13    6  132 1    
    14    6  133 1    
    15    7    8 1    
    16    8    9 1    
    17    8  134 1    
    18    8  135 1    
    19    9   10 ar   
    20    9   14 ar   
    21   10   11 ar   
    22   10  136 1    
    23   11   12 ar   
    24   11  126 1    
    25   12   13 ar   
    26   12  137 1    
    27   13   14 ar   
    28   13   15 1    
    29   14  138 1    
    30   15   16 1    
    31   15  139 1    
    32   15  140 1    
    33   16   17 1    
    34   17   18 1    
    35   17  141 1    
    36   17  142 1    
    37   18   19 1    
    38   18   67 1    
    39   18  143 1    
    40   19   20 am   BACKBONE|DICT|INTERRES
    41   19  144 1    
    42   20   21 2    
    43   20   22 1    
    44   22   23 1    
    45   22   24 1    
    46   22  145 1    
    47   23  146 1    
    48   23  147 1    
    49   23  148 1    
    50   24   25 am   BACKBONE|DICT|INTERRES
    51   24  149 1    
    52   25   26 2    
    53   25   27 1    
    54   27   28 1    
    55   27   29 1    
    56   27  150 1    
    57   28  151 1    
    58   28  152 1    
    59   28  153 1    
    60   29   30 am   BACKBONE|DICT|INTERRES
    61   29  154 1    
    62   30   31 2    
    63   30   32 1    
    64   32   33 1    
    65   32   34 1    
    66   32  155 1    
    67   33  156 1    
    68   33  157 1    
    69   33  158 1    
    70   34   35 am   BACKBONE|DICT|INTERRES
    71   34  159 1    
    72   35   36 2    
    73   35   37 1    
    74   37   38 1    
    75   37   39 1    
    76   37  160 1    
    77   38  161 1    
    78   38  162 1    
    79   38  163 1    
    80   39   40 am   BACKBONE|DICT|INTERRES
    81   39  164 1    
    82   40   41 2    
    83   40   42 1    
    84   42   43 1    
    85   42   44 1    
    86   42  165 1    
    87   43  166 1    
    88   43  167 1    
    89   43  168 1    
    90   44   45 am   BACKBONE|DICT|INTERRES
    91   44  169 1    
    92   45   46 2    
    93   45   47 1    
    94   47   48 1    
    95   47   49 1    
    96   47  170 1    
    97   48  171 1    
    98   48  172 1    
    99   48  173 1    
   100   49   50 am   BACKBONE|DICT|INTERRES
   101   49  174 1    
   102   50   51 2    
   103   50   52 1    
   104   52   53 1    
   105   52   54 1    
   106   52  175 1    
   107   53  176 1    
   108   53  177 1    
   109   53  178 1    
   110   54   55 am   BACKBONE|DICT|INTERRES
   111   54  179 1    
   112   55   56 2    
   113   55   57 1    
   114   57   58 1    
   115   57   59 1    
   116   57  180 1    
   117   58  181 1    
   118   58  182 1    
   119   58  183 1    
   120   59   60 am   BACKBONE|DICT|INTERRES
   121   59  184 1    
   122   60   61 2    
   123   60   62 1    
   124   62   63 1    
   125   62   64 1    
   126   62  185 1    
   127   63  186 1    
   128   63  187 1    
   129   63  188 1    
   130   64   65 am   BACKBONE|DICT|INTERRES
   131   64  189 1    
   132   65   66 2    
   133   67   68 2    
   134   67   69 am   BACKBONE|DICT|INTERRES
   135   69   70 1    
   136   69  190 1    
   137   70   71 1    
   138   70   72 1    
   139   70  191 1    
   140   71  192 1    
   141   71  193 1    
   142   71  194 1    
   143   72   73 2    
   144   72   74 am   BACKBONE|DICT|INTERRES
   145   74   75 1    
   146   74  195 1    
   147   75   76 1    
   148   75   77 1    
   149   75  196 1    
   150   76  197 1    
   151   76  198 1    
   152   76  199 1    
   153   77   78 2    
   154   77   79 am   BACKBONE|DICT|INTERRES
   155   79   80 1    
   156   79  200 1    
   157   80   81 1    
   158   80   82 1    
   159   80  201 1    
   160   81  202 1    
   161   81  203 1    
   162   81  204 1    
   163   82   83 2    
   164   82   84 am   BACKBONE|DICT|INTERRES
   165   84   85 1    
   166   84  205 1    
   167   85   86 1    
   168   85   87 1    
   169   85  206 1    
   170   86  207 1    
   171   86  208 1    
   172   86  209 1    
   173   87   88 2    
   174   87   89 am   BACKBONE|DICT|INTERRES
   175   89   90 1    
   176   89  210 1    
   177   90   91 1    
   178   90   92 1    
   179   90  211 1    
   180   91  212 1    
   181   91  213 1    
   182   91  214 1    
   183   92   93 2    
   184   92   94 am   BACKBONE|DICT|INTERRES
   185   94   95 1    
   186   94  215 1    
   187   95   96 1    
   188   95   97 1    
   189   95  216 1    
   190   96  217 1    
   191   96  218 1    
   192   96  219 1    
   193   97   98 2    
   194   97   99 am   BACKBONE|DICT|INTERRES
   195   99  100 1    
   196   99  220 1    
   197  100  101 1    
   198  100  102 1    
   199  100  221 1    
   200  101  222 1    
   201  101  223 1    
   202  101  224 1    
   203  102  103 2    
   204  102  104 am   BACKBONE|DICT|INTERRES
   205  104  105 1    
   206  104  225 1    
   207  105  106 1    
   208  105  107 1    
   209  105  226 1    
   210  106  227 1    
   211  106  228 1    
   212  106  229 1    
   213  107  108 2    
   214  107  109 am   BACKBONE|DICT|INTERRES
   215  109  110 1    
   216  109  230 1    
   217  110  111 1    
   218  110  112 1    
   219  110  231 1    
   220  111  232 1    
   221  111  233 1    
   222  111  234 1    
   223  112  113 2    
   224  112  114 am   BACKBONE|DICT|INTERRES
   225  114  115 1    
   226  114  235 1    
   227  115  116 1    
   228  115  117 1    
   229  115  236 1    
   230  116  237 1    
   231  116  238 1    
   232  116  239 1    
   233  117  118 2    
   234  117  119 am   BACKBONE|DICT|INTERRES
   235  119  120 1    
   236  119  240 1    
   237  120  121 1    
   238  120  124 1    
   239  120  241 1    
   240  121  122 am   BACKBONE|DICT|INTERRES
   241  121  123 2    
   242  122  242 1    
   243  122  243 1    
   244  124  125 1    
   245  124  244 1    
   246  124  245 1    
   247  125  126 1    
   248  126  246 1    
   249  126  247 1    
@<TRIPOS>SUBSTRUCTURE
     1 UNK         1 GROUP             0       ****    0 ROOT    
