@<TRIPOS>MOLECULE
3R540
247   249    1
SMALL
USER_CHARGES


@<TRIPOS>ATOM
      1 CA          7.9571  -13.6572  -45.1977 C.3       0 UNK        -0.1800 
      2 C           6.4464  -13.8389  -45.1817 C.2       0 UNK         0.5000 
      3 O           5.8526  -13.9543  -44.1096 O.2       0 UNK        -0.5000 
      4 N           5.8174  -13.8479  -46.3629 N.am      1 UNK        -0.5000 
      5 CA          4.3766  -14.0488  -46.5757 C.3       1 UNK         0.1400 
      6 C6          4.0742  -14.6255  -47.9874 C.3       23 UNK        -0.0398 
      7 S7          5.0895  -16.0795  -48.4261 S.3       23 UNK        -0.2404 
      8 C8          4.5251  -16.4157  -50.1249 C.3       23 UNK        -0.0205 
      9 C9          3.2660  -17.2714  -50.1597 C.ar      23 UNK        -0.0193 
     10 C10         2.0025  -16.6753  -50.1553 C.ar      23 UNK        -0.1150 
     11 C11         0.8461  -17.4585  -50.2159 C.ar      23 UNK        -0.0193 
     12 C12         0.9579  -18.8516  -50.2799 C.ar      23 UNK        -0.1150 
     13 C13         2.2169  -19.4609  -50.2842 C.ar      23 UNK        -0.0193 
     14 C14         3.3652  -18.6645  -50.2257 C.ar      23 UNK        -0.1150 
     15 C15         2.3475  -20.9750  -50.3822 C.3       23 UNK        -0.0205 
     16 S16         2.4610  -21.7689  -48.7460 S.3       23 UNK        -0.2404 
     17 C17         0.7037  -21.8689  -48.2796 C.3       23 UNK        -0.0398 
     18 CA          0.4620  -22.7662  -47.0409 C.3       11 UNK         0.1400 
     19 N           1.0524  -22.1906  -45.8338 N.am      11 UNK        -0.5000 
     20 C           1.5530  -22.8725  -44.7977 C.2       10 UNK         0.5000 
     21 O           1.5823  -24.1029  -44.7422 O.2       10 UNK        -0.5000 
     22 CA          2.0903  -22.0228  -43.6234 C.3       10 UNK         0.1400 
     23 CB          3.1470  -22.7578  -42.7734 C.3       10 UNK        -0.1800 
     24 N           2.5687  -20.7019  -44.0505 N.am      10 UNK        -0.5000 
     25 C           3.6018  -20.4246  -44.8620 C.2       9 UNK         0.5000 
     26 O           4.3987  -21.2669  -45.2757 O.2       9 UNK        -0.5000 
     27 CA          3.7488  -18.9621  -45.3288 C.3       9 UNK         0.1400 
     28 CB          3.2438  -18.8377  -46.7711 C.3       9 UNK        -0.1800 
     29 N           3.0134  -18.0052  -44.5022 N.am      9 UNK        -0.5000 
     30 C           3.3718  -17.6220  -43.2698 C.2       8 UNK         0.5000 
     31 O           4.4060  -17.9889  -42.7113 O.2       8 UNK        -0.5000 
     32 CA          2.3786  -16.7155  -42.5185 C.3       8 UNK         0.1400 
     33 CB          2.5785  -15.2445  -42.9069 C.3       8 UNK        -0.1800 
     34 N           0.9829  -17.0911  -42.7523 N.am      8 UNK        -0.5000 
     35 C           0.4282  -18.2572  -42.3923 C.2       7 UNK         0.5000 
     36 O           1.0222  -19.1392  -41.7732 O.2       7 UNK        -0.5000 
     37 CA         -1.0146  -18.5056  -42.8576 C.3       7 UNK         0.1400 
     38 CB         -2.0275  -17.8447  -41.9109 C.3       7 UNK        -0.1800 
     39 N          -1.2216  -18.0232  -44.2219 N.am      7 UNK        -0.5000 
     40 C          -0.7879  -18.6609  -45.3168 C.2       6 UNK         0.5000 
     41 O          -0.2010  -19.7421  -45.2878 O.2       6 UNK        -0.5000 
     42 CA         -1.0629  -17.9903  -46.6725 C.3       6 UNK         0.1400 
     43 CB         -2.4433  -18.4170  -47.1945 C.3       6 UNK        -0.1800 
     44 N          -0.9867  -16.5298  -46.6122 N.am      6 UNK        -0.5000 
     45 C           0.1475  -15.8509  -46.3905 C.2       5 UNK         0.5000 
     46 O           1.2391  -16.3824  -46.1955 O.2       5 UNK        -0.5000 
     47 CA          0.0394  -14.3194  -46.3324 C.3       5 UNK         0.1400 
     48 CB         -0.0427  -13.7227  -47.7453 C.3       5 UNK        -0.1800 
     49 N          -1.0701  -13.7986  -45.5340 N.am      5 UNK        -0.5000 
     50 C          -1.3839  -14.1424  -44.2788 C.2       4 UNK         0.5000 
     51 O          -0.8901  -15.0972  -43.6775 O.2       4 UNK        -0.5000 
     52 CA         -2.3707  -13.2020  -43.5607 C.3       4 UNK         0.1400 
     53 CB         -3.0150  -13.8585  -42.3271 C.3       4 UNK        -0.1800 
     54 N          -1.6657  -11.9918  -43.1404 N.am      4 UNK        -0.5000 
     55 C          -1.2714  -11.0028  -43.9541 C.2       3 UNK         0.5000 
     56 O          -1.6152  -10.9164  -45.1351 O.2       3 UNK        -0.5000 
     57 CA         -0.3025   -9.9495  -43.3770 C.3       3 UNK         0.1400 
     58 CB         -0.1713   -9.9864  -41.8371 C.3       3 UNK        -0.1800 
     59 N           1.0238  -10.0304  -44.0033 N.am      3 UNK        -0.5000 
     60 C           1.8378  -11.0970  -44.0450 C.2       2 UNK         0.5000 
     61 O           1.5679  -12.1931  -43.5517 O.2       2 UNK        -0.5000 
     62 CA          3.2112  -10.8720  -44.7021 C.3       2 UNK         0.1400 
     63 CB          4.1706  -10.1917  -43.7124 C.3       2 UNK        -0.1800 
     64 N           3.8199  -12.1285  -45.1365 N.am      2 UNK        -0.5000 
     65 C           3.5866  -12.7429  -46.3010 C.2       1 UNK         0.5000 
     66 O           2.8215  -12.2901  -47.1534 O.2       1 UNK        -0.5000 
     67 C          -1.0505  -23.0009  -46.8645 C.2       11 UNK         0.5000 
     68 O          -1.6026  -23.8438  -47.5712 O.2       11 UNK        -0.5000 
     69 N          -1.6979  -22.2531  -45.9548 N.am      12 UNK        -0.5000 
     70 CA         -3.1529  -22.1571  -45.7539 C.3       12 UNK         0.1400 
     71 CB         -3.4322  -21.2306  -44.5594 C.3       12 UNK        -0.1800 
     72 C          -3.9199  -23.4831  -45.5748 C.2       12 UNK         0.5000 
     73 O          -5.1230  -23.5161  -45.8319 O.2       12 UNK        -0.5000 
     74 N          -3.2243  -24.5497  -45.1593 N.am      13 UNK        -0.5000 
     75 CA         -3.7584  -25.9102  -45.0668 C.3       13 UNK         0.1400 
     76 CB         -2.7268  -26.8008  -44.3577 C.3       13 UNK        -0.1800 
     77 C          -4.1447  -26.5163  -46.4337 C.2       13 UNK         0.5000 
     78 O          -5.0265  -27.3749  -46.4803 O.2       13 UNK        -0.5000 
     79 N          -3.4869  -26.0619  -47.5088 N.am      14 UNK        -0.5000 
     80 CA         -3.7416  -26.4699  -48.8904 C.3       14 UNK         0.1400 
     81 CB         -2.4686  -27.1182  -49.4556 C.3       14 UNK        -0.1800 
     82 C          -4.1695  -25.2676  -49.7487 C.2       14 UNK         0.5000 
     83 O          -5.0721  -25.3925  -50.5795 O.2       14 UNK        -0.5000 
     84 N          -3.5449  -24.1045  -49.5234 N.am      15 UNK        -0.5000 
     85 CA         -3.8160  -22.8394  -50.2047 C.3       15 UNK         0.1400 
     86 CB         -2.5437  -21.9750  -50.1867 C.3       15 UNK        -0.1800 
     87 C          -5.0405  -22.1137  -49.6106 C.2       15 UNK         0.5000 
     88 O          -4.9904  -20.9118  -49.3488 O.2       15 UNK        -0.5000 
     89 N          -6.1450  -22.8487  -49.4515 N.am      16 UNK        -0.5000 
     90 CA         -7.4678  -22.3337  -49.0948 C.3       16 UNK         0.1400 
     91 CB         -8.1544  -23.3493  -48.1641 C.3       16 UNK        -0.1800 
     92 C          -8.2752  -22.0625  -50.3817 C.2       16 UNK         0.5000 
     93 O          -9.4214  -22.4966  -50.4978 O.2       16 UNK        -0.5000 
     94 N          -7.6133  -21.4260  -51.3619 N.am      17 UNK        -0.5000 
     95 CA         -8.0105  -21.2184  -52.7622 C.3       17 UNK         0.1400 
     96 CB         -9.3389  -20.4419  -52.8636 C.3       17 UNK        -0.1800 
     97 C          -8.0292  -22.5102  -53.6142 C.2       17 UNK         0.5000 
     98 O          -8.3114  -22.4334  -54.8105 O.2       17 UNK        -0.5000 
     99 N          -7.7340  -23.6653  -53.0009 N.am      18 UNK        -0.5000 
    100 CA        -7.7728  -24.9870  -53.6179 C.3       18 UNK         0.1400 
    101 CB        -8.0964  -26.0426  -52.5459 C.3       18 UNK        -0.1800 
    102 C         -6.4652  -25.2965  -54.3628 C.2       18 UNK         0.5000 
    103 O         -6.4663  -25.3299  -55.5940 O.2       18 UNK        -0.5000 
    104 N         -5.3736  -25.5222  -53.6152 N.am      19 UNK        -0.5000 
    105 CA        -4.0706  -25.8908  -54.1814 C.3       19 UNK         0.1400 
    106 CB        -3.2005  -26.5305  -53.0921 C.3       19 UNK        -0.1800 
    107 C         -3.3286  -24.7053  -54.8240 C.2       19 UNK         0.5000 
    108 O         -2.4953  -24.9186  -55.7056 O.2       19 UNK        -0.5000 
    109 N         -3.6435  -23.4856  -54.3779 N.am      20 UNK        -0.5000 
    110 CA        -3.1143  -22.2346  -54.8980 C.3       20 UNK         0.1400 
    111 CB        -1.7795  -21.8970  -54.2111 C.3       20 UNK        -0.1800 
    112 C         -4.1533  -21.1436  -54.6346 C.2       20 UNK         0.5000 
    113 O         -4.7465  -21.1231  -53.5517 O.2       20 UNK        -0.5000 
    114 N         -4.3191  -20.2335  -55.6034 N.am      21 UNK        -0.5000 
    115 CA        -5.2488  -19.0981  -55.5548 C.3       21 UNK         0.1400 
    116 CB        -5.2866  -18.4251  -56.9353 C.3       21 UNK        -0.1800 
    117 C         -4.9185  -18.0651  -54.4581 C.2       21 UNK         0.5000 
    118 O         -5.8042  -17.3162  -54.0450 O.2       21 UNK        -0.5000 
    119 N         -3.6630  -18.0686  -53.9904 N.am      22 UNK        -0.5000 
    120 CA        -3.2039  -17.3613  -52.7859 C.3       22 UNK         0.1400 
    121 C         -3.8545  -17.8796  -51.4661 C.2       22 UNK         0.5000 
    122 N         -4.3731  -19.1009  -51.4253 N.am      22 UNK        -0.7600 
    123 O         -3.8964  -17.1620  -50.4719 O.2       22 UNK        -0.5000 
    124 C124       -1.6522  -17.3909  -52.7009 C.3       23 UNK        -0.0398 
    125 S125       -0.9482  -15.9931  -51.7630 S.3       23 UNK        -0.2404 
    126 C126       -0.5194  -16.7916  -50.1840 C.3       23 UNK        -0.0205 
    127 H127        8.3441  -13.5682  -46.2131 H         1 UNK         0.0600 
    128 H128        8.4418  -14.5101  -44.7226 H         1 UNK         0.0600 
    129 H129        8.2323  -12.7571  -44.6481 H         1 UNK         0.0600 
    130 H130        6.3609  -13.7346  -47.2066 H         1 UNK         0.3000 
    131 H131        4.0258  -14.7857  -45.8495 H         1 UNK         0.0600 
    132 H132        4.2328  -13.8653  -48.7545 H         1 UNK         0.0800 
    133 H133        3.0249  -14.9159  -48.0468 H         1 UNK         0.0800 
    134 H134        5.3268  -16.9272  -50.6597 H         1 UNK         0.0800 
    135 H135        4.3623  -15.4777  -50.6578 H         1 UNK         0.0800 
    136 H136        1.9161  -15.5990  -50.1120 H         1 UNK         0.1150 
    137 H137        0.0670  -19.4618  -50.3271 H         1 UNK         0.1150 
    138 H138        4.3401  -19.1314  -50.2308 H         1 UNK         0.1150 
    139 H139        1.5142  -21.3950  -50.9477 H         1 UNK         0.0800 
    140 H140        3.2461  -21.2237  -50.9486 H         1 UNK         0.0800 
    141 H141        0.1677  -22.2658  -49.1421 H         1 UNK         0.0800 
    142 H142        0.3242  -20.8595  -48.1106 H         1 UNK         0.0800 
    143 H143        0.9158  -23.7409  -47.2324 H         1 UNK         0.0600 
    144 H144        0.9996  -21.1804  -45.7514 H         1 UNK         0.3000 
    145 H145        1.2312  -21.8307  -42.9791 H         1 UNK         0.0600 
    146 H146        3.5088  -22.1254  -41.9626 H         1 UNK         0.0600 
    147 H147        2.7263  -23.6560  -42.3202 H         1 UNK         0.0600 
    148 H148        4.0063  -23.0668  -43.3688 H         1 UNK         0.0600 
    149 H149        1.9922  -19.9247  -43.7572 H         1 UNK         0.3000 
    150 H150        4.8083  -18.6995  -45.3064 H         1 UNK         0.0600 
    151 H151        3.8610  -19.4272  -47.4490 H         1 UNK         0.0600 
    152 H152        3.2760  -17.8073  -47.1173 H         1 UNK         0.0600 
    153 H153        2.2144  -19.1831  -46.8734 H         1 UNK         0.0600 
    154 H154        2.1884  -17.5890  -44.9238 H         1 UNK         0.3000 
    155 H155        2.5783  -16.8170  -41.4499 H         1 UNK         0.0600 
    156 H156        3.6092  -14.9294  -42.7407 H         1 UNK         0.0600 
    157 H157        1.9392  -14.5932  -42.3109 H         1 UNK         0.0600 
    158 H158        2.3447  -15.0673  -43.9568 H         1 UNK         0.0600 
    159 H159        0.3985  -16.4061  -43.2258 H         1 UNK         0.3000 
    160 H160       -1.1927  -19.5831  -42.8384 H         1 UNK         0.0600 
    161 H161       -1.8919  -16.7645  -41.8587 H         1 UNK         0.0600 
    162 H162       -1.9233  -18.2355  -40.8980 H         1 UNK         0.0600 
    163 H163       -3.0510  -18.0396  -42.2311 H         1 UNK         0.0600 
    164 H164       -1.6149  -17.0966  -44.3185 H         1 UNK         0.3000 
    165 H165       -0.3049  -18.3389  -47.3773 H         1 UNK         0.0600 
    166 H166       -2.6790  -17.9432  -48.1457 H         1 UNK         0.0600 
    167 H167       -2.4833  -19.4951  -47.3544 H         1 UNK         0.0600 
    168 H168       -3.2382  -18.1587  -46.4938 H         1 UNK         0.0600 
    169 H169       -1.8466  -16.0154  -46.7359 H         1 UNK         0.3000 
    170 H170        0.9532  -13.9561  -45.8610 H         1 UNK         0.0600 
    171 H171        0.7627  -14.0936  -48.3795 H         1 UNK         0.0600 
    172 H172       -0.9876  -13.9650  -48.2325 H         1 UNK         0.0600 
    173 H173        0.0474  -12.6365  -47.7161 H         1 UNK         0.0600 
    174 H174       -1.4938  -12.9480  -45.8846 H         1 UNK         0.3000 
    175 H175       -3.1669  -12.9363  -44.2593 H         1 UNK         0.0600 
    176 H176       -3.5392  -14.7745  -42.6025 H         1 UNK         0.0600 
    177 H177       -2.2728  -14.1192  -41.5714 H         1 UNK         0.0600 
    178 H178       -3.7441  -13.1938  -41.8637 H         1 UNK         0.0600 
    179 H179       -1.2898  -12.0045  -42.2036 H         1 UNK         0.3000 
    180 H180       -0.7167   -8.9771  -43.6474 H         1 UNK         0.0600 
    181 H181        0.2784  -10.9135  -41.4800 H         1 UNK         0.0600 
    182 H182       -1.1444   -9.8790  -41.3559 H         1 UNK         0.0600 
    183 H183        0.4512   -9.1648  -41.4827 H         1 UNK         0.0600 
    184 H184        1.3320   -9.1816  -44.4564 H         1 UNK         0.3000 
    185 H185        3.0816  -10.2183  -45.5673 H         1 UNK         0.0600 
    186 H186        3.7779   -9.2303  -43.3791 H         1 UNK         0.0600 
    187 H187        4.3331  -10.8054  -42.8251 H         1 UNK         0.0600 
    188 H188        5.1414  -10.0031  -44.1711 H         1 UNK         0.0600 
    189 H189        4.4403  -12.5891  -44.4787 H         1 UNK         0.3000 
    190 H190       -1.1435  -21.5749  -45.4452 H         1 UNK         0.3000 
    191 H191       -3.5643  -21.6866  -46.6492 H         1 UNK         0.0600 
    192 H192       -2.9208  -21.5710  -43.6584 H         1 UNK         0.0600 
    193 H193       -4.4986  -21.1846  -44.3338 H         1 UNK         0.0600 
    194 H194       -3.1134  -20.2112  -44.7647 H         1 UNK         0.0600 
    195 H195       -2.2392  -24.4333  -44.9733 H         1 UNK         0.3000 
    196 H196       -4.6619  -25.8769  -44.4545 H         1 UNK         0.0600 
    197 H197       -3.1003  -27.8198  -44.2473 H         1 UNK         0.0600 
    198 H198       -2.5036  -26.4278  -43.3580 H         1 UNK         0.0600 
    199 H199       -1.7903  -26.8528  -44.9147 H         1 UNK         0.0600 
    200 H200       -2.7856  -25.3400  -47.3740 H         1 UNK         0.3000 
    201 H201       -4.5481  -27.2045  -48.9346 H         1 UNK         0.0600 
    202 H202       -2.1514  -27.9598  -48.8396 H         1 UNK         0.0600 
    203 H203       -1.6402  -26.4099  -49.5041 H         1 UNK         0.0600 
    204 H204       -2.6362  -27.5032  -50.4605 H         1 UNK         0.0600 
    205 H205       -2.8178  -24.0681  -48.8123 H         1 UNK         0.3000 
    206 H206       -4.0484  -23.0499  -51.2508 H         1 UNK         0.0600 
    207 H207       -1.6893  -22.5299  -50.5735 H         1 UNK         0.0600 
    208 H208       -2.6583  -21.0920  -50.8139 H         1 UNK         0.0600 
    209 H209       -2.3041  -21.6298  -49.1813 H         1 UNK         0.0600 
    210 H210       -6.0915  -23.8290  -49.7037 H         1 UNK         0.3000 
    211 H211       -7.3759  -21.3885  -48.5559 H         1 UNK         0.0600 
    212 H212       -8.3034  -24.3114  -48.6561 H         1 UNK         0.0600 
    213 H213       -9.1312  -22.9877  -47.8406 H         1 UNK         0.0600 
    214 H214       -7.5603  -23.5222  -47.2665 H         1 UNK         0.0600 
    215 H215       -6.6773  -21.1123  -51.1453 H         1 UNK         0.3000 
    216 H216       -7.2403  -20.5810  -53.1958 H         1 UNK         0.0600 
    217 H217       -9.5336  -20.1387  -53.8929 H         1 UNK         0.0600 
    218 H218       -9.3132  -19.5351  -52.2594 H         1 UNK         0.0600 
    219 H219      -10.1893  -21.0410  -52.5380 H         1 UNK         0.0600 
    220 H220       -7.5142  -23.6322  -52.0181 H         1 UNK         0.3000 
    221 H221       -8.5821  -25.0115  -54.3512 H         1 UNK         0.0600 
    222 H222       -7.3853  -26.0275  -51.7204 H         1 UNK         0.0600 
    223 H223       -9.0893  -25.8788  -52.1267 H         1 UNK         0.0600 
    224 H224       -8.0865  -27.0471  -52.9709 H         1 UNK         0.0600 
    225 H225       -5.4362  -25.4861  -52.6028 H         1 UNK         0.3000 
    226 H226       -4.2340  -26.6395  -54.9597 H         1 UNK         0.0600 
    227 H227       -3.7224  -27.3532  -52.6035 H         1 UNK         0.0600 
    228 H228       -2.2806  -26.9343  -53.5167 H         1 UNK         0.0600 
    229 H229       -2.9140  -25.8043  -52.3316 H         1 UNK         0.0600 
    230 H230       -4.3726  -23.3836  -53.6852 H         1 UNK         0.3000 
    231 H231       -2.9592  -22.3240  -55.9754 H         1 UNK         0.0600 
    232 H232       -1.0318  -22.6672  -54.4003 H         1 UNK         0.0600 
    233 H233       -1.8954  -21.8039  -53.1310 H         1 UNK         0.0600 
    234 H234       -1.3747  -20.9546  -54.5816 H         1 UNK         0.0600 
    235 H235       -3.7796  -20.3243  -56.4526 H         1 UNK         0.3000 
    236 H236       -6.2440  -19.4923  -55.3388 H         1 UNK         0.0600 
    237 H237       -5.9923  -17.5932  -56.9459 H         1 UNK         0.0600 
    238 H238       -4.3098  -18.0303  -57.2174 H         1 UNK         0.0600 
    239 H239       -5.6030  -19.1260  -57.7080 H         1 UNK         0.0600 
    240 H240       -3.0090  -18.7122  -54.4082 H         1 UNK         0.3000 
    241 H241       -3.5197  -16.3227  -52.9015 H         1 UNK         0.0600 
    242 H242       -4.7262  -19.4595  -50.5442 H         1 UNK         0.3800 
    243 H243       -4.3921  -19.6958  -52.2450 H         1 UNK         0.3800 
    244 H244       -1.2930  -18.3413  -52.3021 H         1 UNK         0.0800 
    245 H245       -1.2266  -17.3176  -53.7026 H         1 UNK         0.0800 
    246 H246       -0.5276  -16.0351  -49.4019 H         1 UNK         0.0800 
    247 H247       -1.2887  -17.5130  -49.9133 H         1 UNK         0.0800 
@<TRIPOS>BOND
     1    1    2 1    
     2    1  127 1    
     3    1  128 1    
     4    1  129 1    
     5    2    3 2    
     6    2    4 am   BACKBONE|DICT|INTERRES
     7    4    5 1    
     8    4  130 1    
     9    5    6 1    
    10    5   65 1    
    11    5  131 1    
    12    6    7 1    
    13    6  132 1    
    14    6  133 1    
    15    7    8 1    
    16    8    9 1    
    17    8  134 1    
    18    8  135 1    
    19    9   10 ar   
    20    9   14 ar   
    21   10   11 ar   
    22   10  136 1    
    23   11   12 ar   
    24   11  126 1    
    25   12   13 ar   
    26   12  137 1    
    27   13   14 ar   
    28   13   15 1    
    29   14  138 1    
    30   15   16 1    
    31   15  139 1    
    32   15  140 1    
    33   16   17 1    
    34   17   18 1    
    35   17  141 1    
    36   17  142 1    
    37   18   19 1    
    38   18   67 1    
    39   18  143 1    
    40   19   20 am   BACKBONE|DICT|INTERRES
    41   19  144 1    
    42   20   21 2    
    43   20   22 1    
    44   22   23 1    
    45   22   24 1    
    46   22  145 1    
    47   23  146 1    
    48   23  147 1    
    49   23  148 1    
    50   24   25 am   BACKBONE|DICT|INTERRES
    51   24  149 1    
    52   25   26 2    
    53   25   27 1    
    54   27   28 1    
    55   27   29 1    
    56   27  150 1    
    57   28  151 1    
    58   28  152 1    
    59   28  153 1    
    60   29   30 am   BACKBONE|DICT|INTERRES
    61   29  154 1    
    62   30   31 2    
    63   30   32 1    
    64   32   33 1    
    65   32   34 1    
    66   32  155 1    
    67   33  156 1    
    68   33  157 1    
    69   33  158 1    
    70   34   35 am   BACKBONE|DICT|INTERRES
    71   34  159 1    
    72   35   36 2    
    73   35   37 1    
    74   37   38 1    
    75   37   39 1    
    76   37  160 1    
    77   38  161 1    
    78   38  162 1    
    79   38  163 1    
    80   39   40 am   BACKBONE|DICT|INTERRES
    81   39  164 1    
    82   40   41 2    
    83   40   42 1    
    84   42   43 1    
    85   42   44 1    
    86   42  165 1    
    87   43  166 1    
    88   43  167 1    
    89   43  168 1    
    90   44   45 am   BACKBONE|DICT|INTERRES
    91   44  169 1    
    92   45   46 2    
    93   45   47 1    
    94   47   48 1    
    95   47   49 1    
    96   47  170 1    
    97   48  171 1    
    98   48  172 1    
    99   48  173 1    
   100   49   50 am   BACKBONE|DICT|INTERRES
   101   49  174 1    
   102   50   51 2    
   103   50   52 1    
   104   52   53 1    
   105   52   54 1    
   106   52  175 1    
   107   53  176 1    
   108   53  177 1    
   109   53  178 1    
   110   54   55 am   BACKBONE|DICT|INTERRES
   111   54  179 1    
   112   55   56 2    
   113   55   57 1    
   114   57   58 1    
   115   57   59 1    
   116   57  180 1    
   117   58  181 1    
   118   58  182 1    
   119   58  183 1    
   120   59   60 am   BACKBONE|DICT|INTERRES
   121   59  184 1    
   122   60   61 2    
   123   60   62 1    
   124   62   63 1    
   125   62   64 1    
   126   62  185 1    
   127   63  186 1    
   128   63  187 1    
   129   63  188 1    
   130   64   65 am   BACKBONE|DICT|INTERRES
   131   64  189 1    
   132   65   66 2    
   133   67   68 2    
   134   67   69 am   BACKBONE|DICT|INTERRES
   135   69   70 1    
   136   69  190 1    
   137   70   71 1    
   138   70   72 1    
   139   70  191 1    
   140   71  192 1    
   141   71  193 1    
   142   71  194 1    
   143   72   73 2    
   144   72   74 am   BACKBONE|DICT|INTERRES
   145   74   75 1    
   146   74  195 1    
   147   75   76 1    
   148   75   77 1    
   149   75  196 1    
   150   76  197 1    
   151   76  198 1    
   152   76  199 1    
   153   77   78 2    
   154   77   79 am   BACKBONE|DICT|INTERRES
   155   79   80 1    
   156   79  200 1    
   157   80   81 1    
   158   80   82 1    
   159   80  201 1    
   160   81  202 1    
   161   81  203 1    
   162   81  204 1    
   163   82   83 2    
   164   82   84 am   BACKBONE|DICT|INTERRES
   165   84   85 1    
   166   84  205 1    
   167   85   86 1    
   168   85   87 1    
   169   85  206 1    
   170   86  207 1    
   171   86  208 1    
   172   86  209 1    
   173   87   88 2    
   174   87   89 am   BACKBONE|DICT|INTERRES
   175   89   90 1    
   176   89  210 1    
   177   90   91 1    
   178   90   92 1    
   179   90  211 1    
   180   91  212 1    
   181   91  213 1    
   182   91  214 1    
   183   92   93 2    
   184   92   94 am   BACKBONE|DICT|INTERRES
   185   94   95 1    
   186   94  215 1    
   187   95   96 1    
   188   95   97 1    
   189   95  216 1    
   190   96  217 1    
   191   96  218 1    
   192   96  219 1    
   193   97   98 2    
   194   97   99 am   BACKBONE|DICT|INTERRES
   195   99  100 1    
   196   99  220 1    
   197  100  101 1    
   198  100  102 1    
   199  100  221 1    
   200  101  222 1    
   201  101  223 1    
   202  101  224 1    
   203  102  103 2    
   204  102  104 am   BACKBONE|DICT|INTERRES
   205  104  105 1    
   206  104  225 1    
   207  105  106 1    
   208  105  107 1    
   209  105  226 1    
   210  106  227 1    
   211  106  228 1    
   212  106  229 1    
   213  107  108 2    
   214  107  109 am   BACKBONE|DICT|INTERRES
   215  109  110 1    
   216  109  230 1    
   217  110  111 1    
   218  110  112 1    
   219  110  231 1    
   220  111  232 1    
   221  111  233 1    
   222  111  234 1    
   223  112  113 2    
   224  112  114 am   BACKBONE|DICT|INTERRES
   225  114  115 1    
   226  114  235 1    
   227  115  116 1    
   228  115  117 1    
   229  115  236 1    
   230  116  237 1    
   231  116  238 1    
   232  116  239 1    
   233  117  118 2    
   234  117  119 am   BACKBONE|DICT|INTERRES
   235  119  120 1    
   236  119  240 1    
   237  120  121 1    
   238  120  124 1    
   239  120  241 1    
   240  121  122 am   BACKBONE|DICT|INTERRES
   241  121  123 2    
   242  122  242 1    
   243  122  243 1    
   244  124  125 1    
   245  124  244 1    
   246  124  245 1    
   247  125  126 1    
   248  126  246 1    
   249  126  247 1    
@<TRIPOS>SUBSTRUCTURE
     1 UNK         1 GROUP             0       ****    0 ROOT    
