@<TRIPOS>MOLECULE
3R540
247   249    1
SMALL
USER_CHARGES


@<TRIPOS>ATOM
      1 CA          6.3657   -8.5869  -50.8694 C.3       0 UNK        -0.1800 
      2 C           6.7051   -9.9127  -50.2029 C.2       0 UNK         0.5000 
      3 O           7.8392  -10.1057  -49.7634 O.2       0 UNK        -0.5000 
      4 N           5.7314  -10.8279  -50.1348 N.am      1 UNK        -0.5000 
      5 CA          5.8340  -12.1280  -49.4674 C.3       1 UNK         0.1400 
      6 C6          4.6963  -13.0946  -49.8943 C.3       23 UNK        -0.0398 
      7 S7          3.0127  -12.3795  -49.8067 S.3       23 UNK        -0.2404 
      8 C8          2.1915  -13.4963  -48.6293 C.3       23 UNK        -0.0205 
      9 C9          1.7853  -14.8101  -49.2815 C.ar      23 UNK        -0.0193 
     10 C10         0.7221  -14.8321  -50.1861 C.ar      23 UNK        -0.1150 
     11 C11         0.3347  -16.0237  -50.8038 C.ar      23 UNK        -0.0193 
     12 C12         1.0219  -17.2064  -50.5043 C.ar      23 UNK        -0.1150 
     13 C13         2.0963  -17.1993  -49.6073 C.ar      23 UNK        -0.0193 
     14 C14         2.4660  -15.9972  -48.9948 C.ar      23 UNK        -0.1150 
     15 C15         2.9103  -18.4660  -49.3578 C.3       23 UNK        -0.0205 
     16 S16         2.3406  -19.4260  -47.9163 S.3       23 UNK        -0.2404 
     17 C17         0.8463  -20.2267  -48.5798 C.3       23 UNK        -0.0398 
     18 CA          0.3913  -21.4890  -47.7991 C.3       11 UNK         0.1400 
     19 N           0.0724  -21.2286  -46.3876 N.am      11 UNK        -0.5000 
     20 C          -0.2219  -22.1830  -45.4890 C.2       10 UNK         0.5000 
     21 O          -0.1516  -23.3862  -45.7346 O.2       10 UNK        -0.5000 
     22 CA         -0.7668  -21.7361  -44.1172 C.3       10 UNK         0.1400 
     23 CB          0.3627  -21.5688  -43.0909 C.3       10 UNK        -0.1800 
     24 N          -1.5794  -20.5192  -44.2034 N.am      10 UNK        -0.5000 
     25 C          -2.7563  -20.4555  -44.8451 C.2       9 UNK         0.5000 
     26 O          -3.2955  -21.4380  -45.3523 O.2       9 UNK        -0.5000 
     27 CA         -3.4078  -19.0684  -45.0105 C.3       9 UNK         0.1400 
     28 CB         -4.3146  -18.7335  -43.8178 C.3       9 UNK        -0.1800 
     29 N          -2.4091  -18.0148  -45.1843 N.am      9 UNK        -0.5000 
     30 C          -1.6468  -17.8660  -46.2776 C.2       8 UNK         0.5000 
     31 O          -1.8206  -18.5017  -47.3206 O.2       8 UNK        -0.5000 
     32 CA         -0.4600  -16.8906  -46.1536 C.3       8 UNK         0.1400 
     33 CB         -0.8582  -15.4682  -46.5790 C.3       8 UNK        -0.1800 
     34 N           0.0645  -16.8704  -44.7833 N.am      8 UNK        -0.5000 
     35 C           0.8300  -17.8410  -44.2622 C.2       7 UNK         0.5000 
     36 O           1.1838  -18.8289  -44.8999 O.2       7 UNK        -0.5000 
     37 CA          1.2011  -17.7535  -42.7675 C.3       7 UNK         0.1400 
     38 CB          2.6182  -17.2111  -42.5454 C.3       7 UNK        -0.1800 
     39 N           0.2457  -16.9619  -41.9970 N.am      7 UNK        -0.5000 
     40 C          -0.9584  -17.4200  -41.6292 C.2       6 UNK         0.5000 
     41 O          -1.3466  -18.5635  -41.8665 O.2       6 UNK        -0.5000 
     42 CA         -1.9061  -16.4290  -40.9272 C.3       6 UNK         0.1400 
     43 CB         -1.7496  -16.5227  -39.4025 C.3       6 UNK        -0.1800 
     44 N          -1.7148  -15.0385  -41.3468 N.am      6 UNK        -0.5000 
     45 C          -1.8689  -14.5865  -42.5987 C.2       5 UNK         0.5000 
     46 O          -2.2005  -15.3088  -43.5393 O.2       5 UNK        -0.5000 
     47 CA         -1.5839  -13.0936  -42.8615 C.3       5 UNK         0.1400 
     48 CB         -1.4101  -12.2501  -41.5781 C.3       5 UNK        -0.1800 
     49 N          -0.4381  -12.8900  -43.7561 N.am      5 UNK        -0.5000 
     50 C           0.8202  -13.3198  -43.5778 C.2       4 UNK         0.5000 
     51 O           1.1753  -14.0418  -42.6421 O.2       4 UNK        -0.5000 
     52 CA          1.8506  -12.8001  -44.6008 C.3       4 UNK         0.1400 
     53 CB          2.1536  -11.3131  -44.3558 C.3       4 UNK        -0.1800 
     54 N           3.1147  -13.5318  -44.5514 N.am      4 UNK        -0.5000 
     55 C           3.3450  -14.7104  -45.1367 C.2       3 UNK         0.5000 
     56 O           2.5039  -15.3089  -45.8006 O.2       3 UNK        -0.5000 
     57 CA          4.7672  -15.2885  -44.9915 C.3       3 UNK         0.1400 
     58 CB          4.9141  -16.6833  -45.6302 C.3       3 UNK        -0.1800 
     59 N           5.7602  -14.3983  -45.5913 N.am      3 UNK        -0.5000 
     60 C           6.2544  -13.2865  -45.0319 C.2       2 UNK         0.5000 
     61 O           5.9504  -12.8977  -43.9032 O.2       2 UNK        -0.5000 
     62 CA          7.2337  -12.4621  -45.8870 C.3       2 UNK         0.1400 
     63 CB          8.6812  -12.9032  -45.6219 C.3       2 UNK        -0.1800 
     64 N           6.9577  -12.5552  -47.3243 N.am      2 UNK        -0.5000 
     65 C           5.9277  -11.9526  -47.9349 C.2       1 UNK         0.5000 
     66 O           5.0888  -11.2708  -47.3418 O.2       1 UNK        -0.5000 
     67 C          -0.7869  -22.1684  -48.5379 C.2       11 UNK         0.5000 
     68 O          -0.5498  -23.0344  -49.3794 O.2       11 UNK        -0.5000 
     69 N          -2.0314  -21.7883  -48.2039 N.am      12 UNK        -0.5000 
     70 CA         -3.2469  -22.3924  -48.7583 C.3       12 UNK         0.1400 
     71 CB         -4.4606  -21.4776  -48.5314 C.3       12 UNK        -0.1800 
     72 C          -3.5037  -23.7912  -48.1750 C.2       12 UNK         0.5000 
     73 O          -3.8954  -24.6923  -48.9158 O.2       12 UNK        -0.5000 
     74 N          -3.2392  -23.9656  -46.8725 N.am      13 UNK        -0.5000 
     75 CA         -3.3053  -25.2535  -46.1779 C.3       13 UNK         0.1400 
     76 CB         -3.1345  -25.0405  -44.6671 C.3       13 UNK        -0.1800 
     77 C          -2.2722  -26.2633  -46.7136 C.2       13 UNK         0.5000 
     78 O          -2.6083  -27.4324  -46.9007 O.2       13 UNK        -0.5000 
     79 N          -1.0566  -25.7849  -47.0173 N.am      14 UNK        -0.5000 
     80 CA          0.0059  -26.5465  -47.6816 C.3       14 UNK         0.1400 
     81 CB          1.3053  -25.7279  -47.6649 C.3       14 UNK        -0.1800 
     82 C          -0.3563  -26.9641  -49.1221 C.2       14 UNK         0.5000 
     83 O           0.1024  -28.0084  -49.5849 O.2       14 UNK        -0.5000 
     84 N          -1.2104  -26.1708  -49.7826 N.am      15 UNK        -0.5000 
     85 CA         -1.8195  -26.4619  -51.0818 C.3       15 UNK         0.1400 
     86 CB         -2.0706  -25.1356  -51.8221 C.3       15 UNK        -0.1800 
     87 C          -3.1164  -27.2944  -50.9598 C.2       15 UNK         0.5000 
     88 O          -3.8590  -27.3949  -51.9366 O.2       15 UNK        -0.5000 
     89 N          -3.3916  -27.8544  -49.7705 N.am      16 UNK        -0.5000 
     90 CA         -4.5371  -28.7040  -49.4221 C.3       16 UNK         0.1400 
     91 CB         -4.4642  -30.0460  -50.1802 C.3       16 UNK        -0.1800 
     92 C          -5.9028  -28.0023  -49.5808 C.2       16 UNK         0.5000 
     93 O          -6.9074  -28.6680  -49.8372 O.2       16 UNK        -0.5000 
     94 N          -5.9094  -26.6678  -49.4393 N.am      17 UNK        -0.5000 
     95 CA         -7.0419  -25.7550  -49.6211 C.3       17 UNK         0.1400 
     96 CB         -8.1448  -26.0208  -48.5755 C.3       17 UNK        -0.1800 
     97 C          -7.5811  -25.7080  -51.0684 C.2       17 UNK         0.5000 
     98 O          -8.7114  -25.2664  -51.2804 O.2       17 UNK        -0.5000 
     99 N          -6.7647  -26.1306  -52.0467 N.am      18 UNK        -0.5000 
    100 CA        -7.0837  -26.0645  -53.4760 C.3       18 UNK         0.1400 
    101 CB        -6.2295  -27.0956  -54.2295 C.3       18 UNK        -0.1800 
    102 C         -6.8761  -24.6557  -54.0682 C.2       18 UNK         0.5000 
    103 O         -7.3557  -24.3867  -55.1707 O.2       18 UNK        -0.5000 
    104 N         -6.1574  -23.7904  -53.3393 N.am      19 UNK        -0.5000 
    105 CA        -5.9017  -22.3939  -53.6832 C.3       19 UNK         0.1400 
    106 CB        -4.8895  -21.8209  -52.6801 C.3       19 UNK        -0.1800 
    107 C         -7.1903  -21.5480  -53.6890 C.2       19 UNK         0.5000 
    108 O         -8.0692  -21.7580  -52.8499 O.2       19 UNK        -0.5000 
    109 N         -7.2641  -20.5895  -54.6210 N.am      20 UNK        -0.5000 
    110 CA        -8.3984  -19.6733  -54.7816 C.3       20 UNK         0.1400 
    111 CB        -8.3574  -19.0805  -56.1991 C.3       20 UNK        -0.1800 
    112 C         -8.4327  -18.5458  -53.7296 C.2       20 UNK         0.5000 
    113 O         -9.4874  -17.9442  -53.5217 O.2       20 UNK        -0.5000 
    114 N         -7.2870  -18.2757  -53.0962 N.am      21 UNK        -0.5000 
    115 CA        -7.1030  -17.2826  -52.0451 C.3       21 UNK         0.1400 
    116 CB        -6.7971  -15.9051  -52.6727 C.3       21 UNK        -0.1800 
    117 C         -6.0190  -17.8156  -51.0943 C.2       21 UNK         0.5000 
    118 O         -6.1712  -18.9251  -50.5800 O.2       21 UNK        -0.5000 
    119 N         -4.9444  -17.0462  -50.8872 N.am      22 UNK        -0.5000 
    120 CA        -3.7341  -17.4789  -50.1757 C.3       22 UNK         0.1400 
    121 C         -2.9586  -18.6181  -50.8938 C.2       22 UNK         0.5000 
    122 N         -2.0914  -19.3081  -50.1718 N.am      22 UNK        -0.7600 
    123 O         -3.0950  -18.8511  -52.0925 O.2       22 UNK        -0.5000 
    124 C124       -2.7985  -16.2899  -49.8398 C.3       23 UNK        -0.0398 
    125 S125       -2.3337  -15.2443  -51.2655 S.3       23 UNK        -0.2404 
    126 C126       -0.7828  -16.0219  -51.8413 C.3       23 UNK        -0.0205 
    127 H127        5.3325   -8.5607  -51.2168 H         1 UNK         0.0600 
    128 H128        6.5087   -7.7663  -50.1663 H         1 UNK         0.0600 
    129 H129        7.0172   -8.4201  -51.7272 H         1 UNK         0.0600 
    130 H130        4.8094  -10.6017  -50.4808 H         1 UNK         0.3000 
    131 H131        6.7695  -12.5814  -49.8028 H         1 UNK         0.0600 
    132 H132        4.8583  -13.3944  -50.9304 H         1 UNK         0.0800 
    133 H133        4.7443  -14.0208  -49.3196 H         1 UNK         0.0800 
    134 H134        2.8524  -13.6613  -47.7801 H         1 UNK         0.0800 
    135 H135        1.3016  -13.0049  -48.2342 H         1 UNK         0.0800 
    136 H136        0.2044  -13.9130  -50.4221 H         1 UNK         0.1150 
    137 H137        0.7406  -18.1284  -50.9932 H         1 UNK         0.1150 
    138 H138        3.2943  -15.9834  -48.3027 H         1 UNK         0.1150 
    139 H139        2.9089  -19.0983  -50.2468 H         1 UNK         0.0800 
    140 H140        3.9537  -18.1935  -49.1926 H         1 UNK         0.0800 
    141 H141        1.0429  -20.4891  -49.6210 H         1 UNK         0.0800 
    142 H142        0.0644  -19.4734  -48.6011 H         1 UNK         0.0800 
    143 H143        1.2212  -22.1987  -47.8102 H         1 UNK         0.0600 
    144 H144        0.0957  -20.2622  -46.0838 H         1 UNK         0.3000 
    145 H145       -1.4205  -22.5286  -43.7488 H         1 UNK         0.0600 
    146 H146       -0.0099  -21.1670  -42.1484 H         1 UNK         0.0600 
    147 H147        0.8246  -22.5325  -42.8733 H         1 UNK         0.0600 
    148 H148        1.1534  -20.9142  -43.4522 H         1 UNK         0.0600 
    149 H149       -1.2229  -19.6899  -43.7469 H         1 UNK         0.3000 
    150 H150       -4.0290  -19.0994  -45.9083 H         1 UNK         0.0600 
    151 H151       -5.1024  -19.4799  -43.7088 H         1 UNK         0.0600 
    152 H152       -4.7988  -17.7659  -43.9507 H         1 UNK         0.0600 
    153 H153       -3.7612  -18.7045  -42.8799 H         1 UNK         0.0600 
    154 H154       -2.2326  -17.4094  -44.3926 H         1 UNK         0.3000 
    155 H155        0.3339  -17.2299  -46.8229 H         1 UNK         0.0600 
    156 H156       -0.0620  -14.7555  -46.3696 H         1 UNK         0.0600 
    157 H157       -1.7603  -15.1226  -46.0753 H         1 UNK         0.0600 
    158 H158       -1.0438  -15.4206  -47.6501 H         1 UNK         0.0600 
    159 H159       -0.2413  -16.1099  -44.1922 H         1 UNK         0.3000 
    160 H160        1.1917  -18.7727  -42.3770 H         1 UNK         0.0600 
    161 H161        2.7012  -16.1677  -42.8388 H         1 UNK         0.0600 
    162 H162        3.3499  -17.7831  -43.1156 H         1 UNK         0.0600 
    163 H163        2.9022  -17.2813  -41.4954 H         1 UNK         0.0600 
    164 H164        0.4876  -15.9931  -41.8226 H         1 UNK         0.3000 
    165 H165       -2.9276  -16.7159  -41.1852 H         1 UNK         0.0600 
    166 H166       -0.7526  -16.2188  -39.0809 H         1 UNK         0.0600 
    167 H167       -2.4757  -15.8905  -38.8912 H         1 UNK         0.0600 
    168 H168       -1.9093  -17.5446  -39.0557 H         1 UNK         0.0600 
    169 H169       -1.4182  -14.3873  -40.6346 H         1 UNK         0.3000 
    170 H170       -2.4594  -12.7113  -43.3883 H         1 UNK         0.0600 
    171 H171       -2.2811  -12.3360  -40.9269 H         1 UNK         0.0600 
    172 H172       -0.5308  -12.5449  -41.0042 H         1 UNK         0.0600 
    173 H173       -1.3002  -11.1934  -41.8224 H         1 UNK         0.0600 
    174 H174       -0.6344  -12.3258  -44.5707 H         1 UNK         0.3000 
    175 H175        1.4230  -12.9046  -45.5998 H         1 UNK         0.0600 
    176 H176        2.8634  -10.9314  -45.0908 H         1 UNK         0.0600 
    177 H177        1.2519  -10.7046  -44.4331 H         1 UNK         0.0600 
    178 H178        2.5775  -11.1480  -43.3643 H         1 UNK         0.0600 
    179 H179        3.8700  -13.1070  -44.0264 H         1 UNK         0.3000 
    180 H180        4.9693  -15.3879  -43.9230 H         1 UNK         0.0600 
    181 H181        4.8310  -16.6427  -46.7158 H         1 UNK         0.0600 
    182 H182        4.1454  -17.3699  -45.2747 H         1 UNK         0.0600 
    183 H183        5.8804  -17.1252  -45.3874 H         1 UNK         0.0600 
    184 H184        6.0506  -14.6218  -46.5311 H         1 UNK         0.3000 
    185 H185        7.1372  -11.4171  -45.5842 H         1 UNK         0.0600 
    186 H186        9.3898  -12.2778  -46.1654 H         1 UNK         0.0600 
    187 H187        8.9257  -12.8226  -44.5618 H         1 UNK         0.0600 
    188 H188        8.8491  -13.9390  -45.9195 H         1 UNK         0.0600 
    189 H189        7.6255  -13.0735  -47.8773 H         1 UNK         0.3000 
    190 H190       -2.1561  -21.0947  -47.4797 H         1 UNK         0.3000 
    191 H191       -3.1127  -22.4987  -49.8368 H         1 UNK         0.0600 
    192 H192       -4.2933  -20.4809  -48.9356 H         1 UNK         0.0600 
    193 H193       -5.3437  -21.8798  -49.0293 H         1 UNK         0.0600 
    194 H194       -4.7077  -21.3711  -47.4763 H         1 UNK         0.0600 
    195 H195       -2.9883  -23.1532  -46.3183 H         1 UNK         0.3000 
    196 H196       -4.2997  -25.6704  -46.3511 H         1 UNK         0.0600 
    197 H197       -3.2962  -25.9725  -44.1245 H         1 UNK         0.0600 
    198 H198       -3.8502  -24.3119  -44.2857 H         1 UNK         0.0600 
    199 H199       -2.1331  -24.6905  -44.4193 H         1 UNK         0.0600 
    200 H200       -0.8336  -24.8270  -46.7584 H         1 UNK         0.3000 
    201 H201        0.1709  -27.4596  -47.1061 H         1 UNK         0.0600 
    202 H202        1.6052  -25.4847  -46.6454 H         1 UNK         0.0600 
    203 H203        1.1983  -24.7924  -48.2141 H         1 UNK         0.0600 
    204 H204        2.1245  -26.2850  -48.1212 H         1 UNK         0.0600 
    205 H205       -1.5249  -25.3241  -49.3278 H         1 UNK         0.3000 
    206 H206       -1.1198  -27.0491  -51.6796 H         1 UNK         0.0600 
    207 H207       -2.4210  -25.3130  -52.8396 H         1 UNK         0.0600 
    208 H208       -2.8223  -24.5268  -51.3211 H         1 UNK         0.0600 
    209 H209       -1.1572  -24.5447  -51.8937 H         1 UNK         0.0600 
    210 H210       -2.7596  -27.6672  -49.0014 H         1 UNK         0.3000 
    211 H211       -4.4378  -28.9236  -48.3584 H         1 UNK         0.0600 
    212 H212       -4.6281  -29.9158  -51.2504 H         1 UNK         0.0600 
    213 H213       -5.2194  -30.7438  -49.8167 H         1 UNK         0.0600 
    214 H214       -3.4935  -30.5228  -50.0447 H         1 UNK         0.0600 
    215 H215       -5.0255  -26.2022  -49.2465 H         1 UNK         0.3000 
    216 H216       -6.6478  -24.7569  -49.4251 H         1 UNK         0.0600 
    217 H217       -7.7339  -26.0414  -47.5662 H         1 UNK         0.0600 
    218 H218       -8.6529  -26.9690  -48.7518 H         1 UNK         0.0600 
    219 H219       -8.9029  -25.2371  -48.5988 H         1 UNK         0.0600 
    220 H220       -5.8553  -26.5084  -51.8050 H         1 UNK         0.3000 
    221 H221       -8.1337  -26.3305  -53.6148 H         1 UNK         0.0600 
    222 H222       -5.1697  -26.8411  -54.1965 H         1 UNK         0.0600 
    223 H223       -6.3489  -28.0939  -53.8078 H         1 UNK         0.0600 
    224 H224       -6.5192  -27.1485  -55.2796 H         1 UNK         0.0600 
    225 H225       -5.8253  -24.1006  -52.4396 H         1 UNK         0.3000 
    226 H226       -5.4576  -22.3705  -54.6805 H         1 UNK         0.0600 
    227 H227       -3.9579  -22.3871  -52.6837 H         1 UNK         0.0600 
    228 H228       -4.6426  -20.7897  -52.9310 H         1 UNK         0.0600 
    229 H229       -5.2820  -21.8226  -51.6622 H         1 UNK         0.0600 
    230 H230       -6.5026  -20.4782  -55.2752 H         1 UNK         0.3000 
    231 H231       -9.3239  -20.2442  -54.6796 H         1 UNK         0.0600 
    232 H232       -8.4025  -19.8637  -56.9561 H         1 UNK         0.0600 
    233 H233       -7.4489  -18.5008  -56.3672 H         1 UNK         0.0600 
    234 H234       -9.2061  -18.4168  -56.3701 H         1 UNK         0.0600 
    235 H235       -6.4840  -18.8578  -53.2882 H         1 UNK         0.3000 
    236 H236       -8.0188  -17.2016  -51.4560 H         1 UNK         0.0600 
    237 H237       -6.6713  -15.1391  -51.9066 H         1 UNK         0.0600 
    238 H238       -5.8925  -15.9279  -53.2819 H         1 UNK         0.0600 
    239 H239       -7.6161  -15.5792  -53.3142 H         1 UNK         0.0600 
    240 H240       -4.8720  -16.1654  -51.3749 H         1 UNK         0.3000 
    241 H241       -4.0701  -17.8979  -49.2247 H         1 UNK         0.0600 
    242 H242       -1.9690  -19.1094  -49.1839 H         1 UNK         0.3800 
    243 H243       -1.5791  -20.0495  -50.6183 H         1 UNK         0.3800 
    244 H244       -3.2934  -15.6446  -49.1133 H         1 UNK         0.0800 
    245 H245       -1.8970  -16.6442  -49.3409 H         1 UNK         0.0800 
    246 H246       -0.4320  -15.4749  -52.7171 H         1 UNK         0.0800 
    247 H247       -0.9908  -17.0339  -52.1879 H         1 UNK         0.0800 
@<TRIPOS>BOND
     1    1    2 1    
     2    1  127 1    
     3    1  128 1    
     4    1  129 1    
     5    2    3 2    
     6    2    4 am   BACKBONE|DICT|INTERRES
     7    4    5 1    
     8    4  130 1    
     9    5    6 1    
    10    5   65 1    
    11    5  131 1    
    12    6    7 1    
    13    6  132 1    
    14    6  133 1    
    15    7    8 1    
    16    8    9 1    
    17    8  134 1    
    18    8  135 1    
    19    9   10 ar   
    20    9   14 ar   
    21   10   11 ar   
    22   10  136 1    
    23   11   12 ar   
    24   11  126 1    
    25   12   13 ar   
    26   12  137 1    
    27   13   14 ar   
    28   13   15 1    
    29   14  138 1    
    30   15   16 1    
    31   15  139 1    
    32   15  140 1    
    33   16   17 1    
    34   17   18 1    
    35   17  141 1    
    36   17  142 1    
    37   18   19 1    
    38   18   67 1    
    39   18  143 1    
    40   19   20 am   BACKBONE|DICT|INTERRES
    41   19  144 1    
    42   20   21 2    
    43   20   22 1    
    44   22   23 1    
    45   22   24 1    
    46   22  145 1    
    47   23  146 1    
    48   23  147 1    
    49   23  148 1    
    50   24   25 am   BACKBONE|DICT|INTERRES
    51   24  149 1    
    52   25   26 2    
    53   25   27 1    
    54   27   28 1    
    55   27   29 1    
    56   27  150 1    
    57   28  151 1    
    58   28  152 1    
    59   28  153 1    
    60   29   30 am   BACKBONE|DICT|INTERRES
    61   29  154 1    
    62   30   31 2    
    63   30   32 1    
    64   32   33 1    
    65   32   34 1    
    66   32  155 1    
    67   33  156 1    
    68   33  157 1    
    69   33  158 1    
    70   34   35 am   BACKBONE|DICT|INTERRES
    71   34  159 1    
    72   35   36 2    
    73   35   37 1    
    74   37   38 1    
    75   37   39 1    
    76   37  160 1    
    77   38  161 1    
    78   38  162 1    
    79   38  163 1    
    80   39   40 am   BACKBONE|DICT|INTERRES
    81   39  164 1    
    82   40   41 2    
    83   40   42 1    
    84   42   43 1    
    85   42   44 1    
    86   42  165 1    
    87   43  166 1    
    88   43  167 1    
    89   43  168 1    
    90   44   45 am   BACKBONE|DICT|INTERRES
    91   44  169 1    
    92   45   46 2    
    93   45   47 1    
    94   47   48 1    
    95   47   49 1    
    96   47  170 1    
    97   48  171 1    
    98   48  172 1    
    99   48  173 1    
   100   49   50 am   BACKBONE|DICT|INTERRES
   101   49  174 1    
   102   50   51 2    
   103   50   52 1    
   104   52   53 1    
   105   52   54 1    
   106   52  175 1    
   107   53  176 1    
   108   53  177 1    
   109   53  178 1    
   110   54   55 am   BACKBONE|DICT|INTERRES
   111   54  179 1    
   112   55   56 2    
   113   55   57 1    
   114   57   58 1    
   115   57   59 1    
   116   57  180 1    
   117   58  181 1    
   118   58  182 1    
   119   58  183 1    
   120   59   60 am   BACKBONE|DICT|INTERRES
   121   59  184 1    
   122   60   61 2    
   123   60   62 1    
   124   62   63 1    
   125   62   64 1    
   126   62  185 1    
   127   63  186 1    
   128   63  187 1    
   129   63  188 1    
   130   64   65 am   BACKBONE|DICT|INTERRES
   131   64  189 1    
   132   65   66 2    
   133   67   68 2    
   134   67   69 am   BACKBONE|DICT|INTERRES
   135   69   70 1    
   136   69  190 1    
   137   70   71 1    
   138   70   72 1    
   139   70  191 1    
   140   71  192 1    
   141   71  193 1    
   142   71  194 1    
   143   72   73 2    
   144   72   74 am   BACKBONE|DICT|INTERRES
   145   74   75 1    
   146   74  195 1    
   147   75   76 1    
   148   75   77 1    
   149   75  196 1    
   150   76  197 1    
   151   76  198 1    
   152   76  199 1    
   153   77   78 2    
   154   77   79 am   BACKBONE|DICT|INTERRES
   155   79   80 1    
   156   79  200 1    
   157   80   81 1    
   158   80   82 1    
   159   80  201 1    
   160   81  202 1    
   161   81  203 1    
   162   81  204 1    
   163   82   83 2    
   164   82   84 am   BACKBONE|DICT|INTERRES
   165   84   85 1    
   166   84  205 1    
   167   85   86 1    
   168   85   87 1    
   169   85  206 1    
   170   86  207 1    
   171   86  208 1    
   172   86  209 1    
   173   87   88 2    
   174   87   89 am   BACKBONE|DICT|INTERRES
   175   89   90 1    
   176   89  210 1    
   177   90   91 1    
   178   90   92 1    
   179   90  211 1    
   180   91  212 1    
   181   91  213 1    
   182   91  214 1    
   183   92   93 2    
   184   92   94 am   BACKBONE|DICT|INTERRES
   185   94   95 1    
   186   94  215 1    
   187   95   96 1    
   188   95   97 1    
   189   95  216 1    
   190   96  217 1    
   191   96  218 1    
   192   96  219 1    
   193   97   98 2    
   194   97   99 am   BACKBONE|DICT|INTERRES
   195   99  100 1    
   196   99  220 1    
   197  100  101 1    
   198  100  102 1    
   199  100  221 1    
   200  101  222 1    
   201  101  223 1    
   202  101  224 1    
   203  102  103 2    
   204  102  104 am   BACKBONE|DICT|INTERRES
   205  104  105 1    
   206  104  225 1    
   207  105  106 1    
   208  105  107 1    
   209  105  226 1    
   210  106  227 1    
   211  106  228 1    
   212  106  229 1    
   213  107  108 2    
   214  107  109 am   BACKBONE|DICT|INTERRES
   215  109  110 1    
   216  109  230 1    
   217  110  111 1    
   218  110  112 1    
   219  110  231 1    
   220  111  232 1    
   221  111  233 1    
   222  111  234 1    
   223  112  113 2    
   224  112  114 am   BACKBONE|DICT|INTERRES
   225  114  115 1    
   226  114  235 1    
   227  115  116 1    
   228  115  117 1    
   229  115  236 1    
   230  116  237 1    
   231  116  238 1    
   232  116  239 1    
   233  117  118 2    
   234  117  119 am   BACKBONE|DICT|INTERRES
   235  119  120 1    
   236  119  240 1    
   237  120  121 1    
   238  120  124 1    
   239  120  241 1    
   240  121  122 am   BACKBONE|DICT|INTERRES
   241  121  123 2    
   242  122  242 1    
   243  122  243 1    
   244  124  125 1    
   245  124  244 1    
   246  124  245 1    
   247  125  126 1    
   248  126  246 1    
   249  126  247 1    
@<TRIPOS>SUBSTRUCTURE
     1 UNK         1 GROUP             0       ****    0 ROOT    
