@<TRIPOS>MOLECULE
3R540
247   249    1
SMALL
USER_CHARGES


@<TRIPOS>ATOM
      1 CA         -3.4878  -17.5437  -46.9694 C.3       0 UNK        -0.1800 
      2 C          -3.3849  -16.0571  -47.2709 C.2       0 UNK         0.5000 
      3 O          -4.2522  -15.2887  -46.8555 O.2       0 UNK        -0.5000 
      4 N          -2.3443  -15.6540  -48.0105 N.am      1 UNK        -0.5000 
      5 CA         -2.0722  -14.2659  -48.3850 C.3       1 UNK         0.1400 
      6 C6         -1.0078  -14.1681  -49.5074 C.3       23 UNK        -0.0398 
      7 S7          0.6420  -14.8419  -49.0806 S.3       23 UNK        -0.2404 
      8 C8          0.9385  -16.0390  -50.4208 C.3       23 UNK        -0.0205 
      9 C9          0.5390  -17.4553  -50.0325 C.ar      23 UNK        -0.0193 
     10 C10        -0.7865  -17.8793  -50.1508 C.ar      23 UNK        -0.1150 
     11 C11        -1.1378  -19.1945  -49.8342 C.ar      23 UNK        -0.0193 
     12 C12        -0.1517  -20.0911  -49.4105 C.ar      23 UNK        -0.1150 
     13 C13         1.1864  -19.6872  -49.3015 C.ar      23 UNK        -0.0193 
     14 C14         1.5126  -18.3601  -49.5989 C.ar      23 UNK        -0.1150 
     15 C15         2.3287  -20.6390  -48.9273 C.3       23 UNK        -0.0205 
     16 S16         1.8552  -22.3154  -48.3753 S.3       23 UNK        -0.2404 
     17 C17         1.1782  -21.9123  -46.7352 C.3       23 UNK        -0.0398 
     18 CA          0.2884  -23.0030  -46.1033 C.3       11 UNK         0.1400 
     19 N           0.0139  -22.6771  -44.7002 N.am      11 UNK        -0.5000 
     20 C          -0.6941  -23.4156  -43.8342 C.2       10 UNK         0.5000 
     21 O          -1.1980  -24.5050  -44.1086 O.2       10 UNK        -0.5000 
     22 CA         -0.9095  -22.8001  -42.4411 C.3       10 UNK         0.1400 
     23 CB          0.3336  -22.9843  -41.5571 C.3       10 UNK        -0.1800 
     24 N          -1.2342  -21.3764  -42.5448 N.am      10 UNK        -0.5000 
     25 C          -2.4548  -20.9079  -42.8424 C.2       9 UNK         0.5000 
     26 O          -3.4501  -21.6237  -42.9543 O.2       9 UNK        -0.5000 
     27 CA         -2.5898  -19.3897  -43.0768 C.3       9 UNK         0.1400 
     28 CB         -2.9518  -18.6742  -41.7674 C.3       9 UNK        -0.1800 
     29 N          -1.3916  -18.7751  -43.6554 N.am      9 UNK        -0.5000 
     30 C          -0.9189  -19.0592  -44.8780 C.2       8 UNK         0.5000 
     31 O          -1.4614  -19.8509  -45.6450 O.2       8 UNK        -0.5000 
     32 CA          0.4036  -18.4002  -45.3048 C.3       8 UNK         0.1400 
     33 CB          0.1544  -17.0693  -46.0184 C.3       8 UNK        -0.1800 
     34 N           1.3454  -18.2149  -44.2061 N.am      8 UNK        -0.5000 
     35 C           1.8890  -19.2054  -43.4856 C.2       7 UNK         0.5000 
     36 O           1.5786  -20.3914  -43.6136 O.2       7 UNK        -0.5000 
     37 CA          2.9432  -18.7986  -42.4457 C.3       7 UNK         0.1400 
     38 CB          4.3044  -18.5809  -43.1241 C.3       7 UNK        -0.1800 
     39 N           2.5464  -17.5697  -41.7608 N.am      7 UNK        -0.5000 
     40 C           1.9685  -17.5246  -40.5540 C.2       6 UNK         0.5000 
     41 O           1.7807  -18.5148  -39.8460 O.2       6 UNK        -0.5000 
     42 CA          1.5086  -16.1412  -40.0503 C.3       6 UNK         0.1400 
     43 CB          2.6169  -15.4777  -39.2188 C.3       6 UNK        -0.1800 
     44 N           1.0948  -15.2214  -41.1135 N.am      6 UNK        -0.5000 
     45 C           0.0671  -15.4270  -41.9485 C.2       5 UNK         0.5000 
     46 O          -0.6345  -16.4383  -41.9379 O.2       5 UNK        -0.5000 
     47 CA         -0.2033  -14.3351  -42.9996 C.3       5 UNK         0.1400 
     48 CB         -1.0218  -13.1947  -42.3762 C.3       5 UNK        -0.1800 
     49 N           0.9738  -13.7672  -43.6722 N.am      5 UNK        -0.5000 
     50 C           2.0319  -14.4284  -44.1677 C.2       4 UNK         0.5000 
     51 O           2.2741  -15.6132  -43.9364 O.2       4 UNK        -0.5000 
     52 CA          2.9687  -13.6350  -45.0932 C.3       4 UNK         0.1400 
     53 CB          3.7640  -14.5416  -46.0531 C.3       4 UNK        -0.1800 
     54 N           2.2170  -12.6496  -45.8699 N.am      4 UNK        -0.5000 
     55 C           2.6678  -11.4321  -46.1965 C.2       3 UNK         0.5000 
     56 O           3.7666  -10.9964  -45.8495 O.2       3 UNK        -0.5000 
     57 CA          1.7527  -10.5433  -47.0628 C.3       3 UNK         0.1400 
     58 CB          2.1964  -10.6004  -48.5331 C.3       3 UNK        -0.1800 
     59 N           0.3312  -10.8854  -46.9930 N.am      3 UNK        -0.5000 
     60 C          -0.4500  -10.7696  -45.9103 C.2       2 UNK         0.5000 
     61 O          -0.0482  -10.3771  -44.8148 O.2       2 UNK        -0.5000 
     62 CA         -1.9285  -11.1755  -46.0775 C.3       2 UNK         0.1400 
     63 CB         -2.7996   -9.9337  -46.3207 C.3       2 UNK        -0.1800 
     64 N          -2.1619  -12.1409  -47.1570 N.am      2 UNK        -0.5000 
     65 C          -1.7042  -13.4003  -47.1594 C.2       1 UNK         0.5000 
     66 O          -0.9959  -13.8644  -46.2640 O.2       1 UNK        -0.5000 
     67 C          -0.9996  -23.2232  -46.9264 C.2       11 UNK         0.5000 
     68 O          -1.0349  -24.1224  -47.7648 O.2       11 UNK        -0.5000 
     69 N          -2.0452  -22.4330  -46.6471 N.am      12 UNK        -0.5000 
     70 CA         -3.3604  -22.4754  -47.2872 C.3       12 UNK         0.1400 
     71 CB         -4.2541  -21.3917  -46.6649 C.3       12 UNK        -0.1800 
     72 C          -4.0768  -23.8358  -47.2395 C.2       12 UNK         0.5000 
     73 O          -4.8943  -24.0957  -48.1231 O.2       12 UNK        -0.5000 
     74 N          -3.7589  -24.6713  -46.2400 N.am      13 UNK        -0.5000 
     75 CA         -4.2727  -26.0356  -46.1136 C.3       13 UNK         0.1400 
     76 CB         -4.0340  -26.5364  -44.6813 C.3       13 UNK        -0.1800 
     77 C          -3.6455  -27.0011  -47.1382 C.2       13 UNK         0.5000 
     78 O          -4.3282  -27.9130  -47.6060 O.2       13 UNK        -0.5000 
     79 N          -2.3675  -26.7793  -47.4753 N.am      14 UNK        -0.5000 
     80 CA         -1.6481  -27.5049  -48.5238 C.3       14 UNK         0.1400 
     81 CB         -0.1474  -27.5165  -48.1908 C.3       14 UNK        -0.1800 
     82 C          -1.8853  -26.8744  -49.9079 C.2       14 UNK         0.5000 
     83 O          -1.9163  -27.5943  -50.9061 O.2       14 UNK        -0.5000 
     84 N          -2.0442  -25.5427  -49.9264 N.am      15 UNK        -0.5000 
     85 CA         -2.2464  -24.6683  -51.0822 C.3       15 UNK         0.1400 
     86 CB         -3.5806  -24.9828  -51.7905 C.3       15 UNK        -0.1800 
     87 C          -1.0370  -24.6575  -52.0365 C.2       15 UNK         0.5000 
     88 O          -1.2111  -24.5907  -53.2537 O.2       15 UNK        -0.5000 
     89 N           0.1738  -24.7200  -51.4626 N.am      16 UNK        -0.5000 
     90 CA          1.4434  -24.8680  -52.1808 C.3       16 UNK         0.1400 
     91 CB          2.5743  -25.0788  -51.1632 C.3       16 UNK        -0.1800 
     92 C           1.7812  -23.7062  -53.1360 C.2       16 UNK         0.5000 
     93 O           2.4363  -23.9350  -54.1536 O.2       16 UNK        -0.5000 
     94 N           1.3175  -22.4919  -52.8097 N.am      17 UNK        -0.5000 
     95 CA          1.4595  -21.3056  -53.6577 C.3       17 UNK         0.1400 
     96 CB          1.3052  -20.0480  -52.7912 C.3       17 UNK        -0.1800 
     97 C           0.4523  -21.2659  -54.8232 C.2       17 UNK         0.5000 
     98 O           0.6789  -20.5251  -55.7805 O.2       17 UNK        -0.5000 
     99 N          -0.6448  -22.0329  -54.7108 N.am      18 UNK        -0.5000 
    100 CA        -1.7849  -22.1026  -55.6335 C.3       18 UNK         0.1400 
    101 CB        -1.3647  -22.7603  -56.9641 C.3       18 UNK        -0.1800 
    102 C         -2.5059  -20.7491  -55.8320 C.2       18 UNK         0.5000 
    103 O         -3.0778  -20.5027  -56.8961 O.2       18 UNK        -0.5000 
    104 N         -2.4599  -19.8906  -54.8049 N.am      19 UNK        -0.5000 
    105 CA        -3.0999  -18.5790  -54.7813 C.3       19 UNK         0.1400 
    106 CB        -2.4389  -17.7294  -53.6824 C.3       19 UNK        -0.1800 
    107 C         -4.6111  -18.7020  -54.5256 C.2       19 UNK         0.5000 
    108 O         -5.0592  -19.6727  -53.9121 O.2       19 UNK        -0.5000 
    109 N         -5.3689  -17.6765  -54.9345 N.am      20 UNK        -0.5000 
    110 CA        -6.8165  -17.5709  -54.7106 C.3       20 UNK         0.1400 
    111 CB        -7.3557  -16.3653  -55.4958 C.3       20 UNK        -0.1800 
    112 C         -7.2096  -17.4658  -53.2210 C.2       20 UNK         0.5000 
    113 O         -8.3468  -17.7789  -52.8682 O.2       20 UNK        -0.5000 
    114 N         -6.2598  -17.0366  -52.3791 N.am      21 UNK        -0.5000 
    115 CA        -6.3924  -16.9581  -50.9262 C.3       21 UNK         0.1400 
    116 CB        -5.3401  -15.9710  -50.3976 C.3       21 UNK        -0.1800 
    117 C         -6.2522  -18.3230  -50.2193 C.2       21 UNK         0.5000 
    118 O         -6.6213  -18.4233  -49.0487 O.2       21 UNK        -0.5000 
    119 N         -5.7023  -19.3346  -50.9071 N.am      22 UNK        -0.5000 
    120 CA        -5.5286  -20.6965  -50.3791 C.3       22 UNK         0.1400 
    121 C         -6.8705  -21.4852  -50.2834 C.2       22 UNK         0.5000 
    122 N         -6.9005  -22.6093  -49.5781 N.am      22 UNK        -0.7600 
    123 O         -7.8876  -21.1127  -50.8645 O.2       22 UNK        -0.5000 
    124 C124       -4.4777  -21.4997  -51.1905 C.3       23 UNK        -0.0398 
    125 S125       -2.7840  -20.8122  -51.3526 S.3       23 UNK        -0.2404 
    126 C126       -2.5797  -19.6570  -49.9577 C.3       23 UNK        -0.0205 
    127 H127       -2.6552  -18.1023  -47.3955 H         1 UNK         0.0600 
    128 H128       -4.4121  -17.9466  -47.3826 H         1 UNK         0.0600 
    129 H129       -3.4951  -17.7087  -45.8925 H         1 UNK         0.0600 
    130 H130       -1.6309  -16.3158  -48.2788 H         1 UNK         0.3000 
    131 H131       -3.0036  -13.8680  -48.7943 H         1 UNK         0.0600 
    132 H132       -0.8750  -13.1278  -49.8090 H         1 UNK         0.0800 
    133 H133       -1.3888  -14.6731  -50.3953 H         1 UNK         0.0800 
    134 H134        0.4206  -15.7372  -51.3320 H         1 UNK         0.0800 
    135 H135        2.0009  -16.0129  -50.6678 H         1 UNK         0.0800 
    136 H136       -1.5402  -17.1891  -50.5016 H         1 UNK         0.1150 
    137 H137       -0.4402  -21.1092  -49.1966 H         1 UNK         0.1150 
    138 H138        2.5415  -18.0370  -49.5247 H         1 UNK         0.1150 
    139 H139        2.9757  -20.7489  -49.7983 H         1 UNK         0.0800 
    140 H140        2.9398  -20.1775  -48.1500 H         1 UNK         0.0800 
    141 H141        0.6025  -20.9960  -46.8276 H         1 UNK         0.0800 
    142 H142        2.0205  -21.6858  -46.0797 H         1 UNK         0.0800 
    143 H143        0.8428  -23.9436  -46.1071 H         1 UNK         0.0600 
    144 H144        0.4176  -21.8101  -44.3597 H         1 UNK         0.3000 
    145 H145       -1.7406  -23.3246  -41.9644 H         1 UNK         0.0600 
    146 H146        0.1691  -22.5796  -40.5584 H         1 UNK         0.0600 
    147 H147        0.5758  -24.0417  -41.4436 H         1 UNK         0.0600 
    148 H148        1.2108  -22.4913  -41.9768 H         1 UNK         0.0600 
    149 H149       -0.4597  -20.7278  -42.5085 H         1 UNK         0.3000 
    150 H150       -3.4115  -19.2427  -43.7810 H         1 UNK         0.0600 
    151 H151       -3.8424  -19.1113  -41.3139 H         1 UNK         0.0600 
    152 H152       -3.1620  -17.6188  -41.9415 H         1 UNK         0.0600 
    153 H153       -2.1436  -18.7393  -41.0377 H         1 UNK         0.0600 
    154 H154       -0.9116  -18.0868  -43.0834 H         1 UNK         0.3000 
    155 H155        0.8974  -19.0486  -46.0249 H         1 UNK         0.0600 
    156 H156       -0.4252  -16.3816  -45.4047 H         1 UNK         0.0600 
    157 H157       -0.3929  -17.2367  -46.9443 H         1 UNK         0.0600 
    158 H158        1.0884  -16.5788  -46.2908 H         1 UNK         0.0600 
    159 H159        1.6684  -17.2617  -44.0508 H         1 UNK         0.3000 
    160 H160        3.0475  -19.6197  -41.7334 H         1 UNK         0.0600 
    161 H161        4.2694  -17.7680  -43.8510 H         1 UNK         0.0600 
    162 H162        4.6267  -19.4801  -43.6506 H         1 UNK         0.0600 
    163 H163        5.0738  -18.3397  -42.3906 H         1 UNK         0.0600 
    164 H164        2.6069  -16.7131  -42.3015 H         1 UNK         0.3000 
    165 H165        0.6455  -16.3028  -39.4010 H         1 UNK         0.0600 
    166 H166        2.2733  -14.5421  -38.7771 H         1 UNK         0.0600 
    167 H167        2.9323  -16.1255  -38.3997 H         1 UNK         0.0600 
    168 H168        3.4981  -15.2610  -39.8242 H         1 UNK         0.0600 
    169 H169        1.6321  -14.3731  -41.2166 H         1 UNK         0.3000 
    170 H170       -0.8178  -14.7927  -43.7752 H         1 UNK         0.0600 
    171 H171       -1.9236  -13.5759  -41.8949 H         1 UNK         0.0600 
    172 H172       -0.4486  -12.6542  -41.6220 H         1 UNK         0.0600 
    173 H173       -1.3385  -12.4769  -43.1315 H         1 UNK         0.0600 
    174 H174        0.8986  -12.7886  -43.9114 H         1 UNK         0.3000 
    175 H175        3.6760  -13.1275  -44.4344 H         1 UNK         0.0600 
    176 H176        3.1012  -15.0960  -46.7187 H         1 UNK         0.0600 
    177 H177        4.4464  -13.9587  -46.6716 H         1 UNK         0.0600 
    178 H178        4.3663  -15.2675  -45.5055 H         1 UNK         0.0600 
    179 H179        1.2976  -12.9370  -46.1835 H         1 UNK         0.3000 
    180 H180        1.8668   -9.5166  -46.7091 H         1 UNK         0.0600 
    181 H181        2.0796  -11.6025  -48.9487 H         1 UNK         0.0600 
    182 H182        3.2462  -10.3226  -48.6369 H         1 UNK         0.0600 
    183 H183        1.6178   -9.9110  -49.1483 H         1 UNK         0.0600 
    184 H184       -0.0908  -11.2229  -47.8447 H         1 UNK         0.3000 
    185 H185       -2.2507  -11.6371  -45.1426 H         1 UNK         0.0600 
    186 H186       -2.6735   -9.2046  -45.5192 H         1 UNK         0.0600 
    187 H187       -2.5426   -9.4386  -47.2581 H         1 UNK         0.0600 
    188 H188       -3.8577  -10.1941  -46.3563 H         1 UNK         0.0600 
    189 H189       -2.7384  -11.8226  -47.9227 H         1 UNK         0.3000 
    190 H190       -1.8942  -21.6596  -46.0044 H         1 UNK         0.3000 
    191 H191       -3.2100  -22.2468  -48.3424 H         1 UNK         0.0600 
    192 H192       -3.8405  -20.3973  -46.8233 H         1 UNK         0.0600 
    193 H193       -5.2549  -21.3996  -47.0982 H         1 UNK         0.0600 
    194 H194       -4.3650  -21.5369  -45.5900 H         1 UNK         0.0600 
    195 H195       -3.0689  -24.3789  -45.5598 H         1 UNK         0.3000 
    196 H196       -5.3503  -26.0150  -46.2905 H         1 UNK         0.0600 
    197 H197       -4.4530  -27.5339  -44.5425 H         1 UNK         0.0600 
    198 H198       -4.5058  -25.8804  -43.9496 H         1 UNK         0.0600 
    199 H199       -2.9706  -26.5919  -44.4457 H         1 UNK         0.0600 
    200 H200       -1.8937  -25.9782  -47.0779 H         1 UNK         0.3000 
    201 H201       -1.9965  -28.5393  -48.5580 H         1 UNK         0.0600 
    202 H202        0.4150  -28.0669  -48.9462 H         1 UNK         0.0600 
    203 H203        0.0385  -27.9993  -47.2313 H         1 UNK         0.0600 
    204 H204        0.2670  -26.5088  -48.1441 H         1 UNK         0.0600 
    205 H205       -1.8972  -25.0545  -49.0458 H         1 UNK         0.3000 
    206 H206       -2.3119  -23.6603  -50.6750 H         1 UNK         0.0600 
    207 H207       -4.4117  -24.9776  -51.0849 H         1 UNK         0.0600 
    208 H208       -3.8000  -24.2403  -52.5585 H         1 UNK         0.0600 
    209 H209       -3.5614  -25.9577  -52.2779 H         1 UNK         0.0600 
    210 H210        0.2211  -24.7522  -50.4541 H         1 UNK         0.3000 
    211 H211        1.3652  -25.7714  -52.7891 H         1 UNK         0.0600 
    212 H212        2.7053  -24.2074  -50.5219 H         1 UNK         0.0600 
    213 H213        3.5245  -25.2583  -51.6679 H         1 UNK         0.0600 
    214 H214        2.3784  -25.9407  -50.5250 H         1 UNK         0.0600 
    215 H215        0.8015  -22.3841  -51.9488 H         1 UNK         0.3000 
    216 H216        2.4625  -21.2967  -54.0894 H         1 UNK         0.0600 
    217 H217        1.4054  -19.1412  -53.3889 H         1 UNK         0.0600 
    218 H218        2.0733  -20.0093  -52.0202 H         1 UNK         0.0600 
    219 H219        0.3300  -20.0108  -52.3051 H         1 UNK         0.0600 
    220 H220       -0.7054  -22.6614  -53.9185 H         1 UNK         0.3000 
    221 H221       -2.5139  -22.7609  -55.1586 H         1 UNK         0.0600 
    222 H222       -0.6786  -22.1289  -57.5291 H         1 UNK         0.0600 
    223 H223       -0.8742  -23.7183  -56.7905 H         1 UNK         0.0600 
    224 H224       -2.2311  -22.9517  -57.5982 H         1 UNK         0.0600 
    225 H225       -2.0250  -20.1936  -53.9460 H         1 UNK         0.3000 
    226 H226       -2.9414  -18.0922  -55.7460 H         1 UNK         0.0600 
    227 H227       -1.3597  -17.6674  -53.8253 H         1 UNK         0.0600 
    228 H228       -2.8245  -16.7094  -53.6881 H         1 UNK         0.0600 
    229 H229       -2.6195  -18.1409  -52.6894 H         1 UNK         0.0600 
    230 H230       -4.9340  -16.9072  -55.4238 H         1 UNK         0.3000 
    231 H231       -7.2840  -18.4749  -55.1065 H         1 UNK         0.0600 
    232 H232       -6.9072  -15.4308  -55.1563 H         1 UNK         0.0600 
    233 H233       -8.4361  -16.2729  -55.3772 H         1 UNK         0.0600 
    234 H234       -7.1557  -16.4671  -56.5627 H         1 UNK         0.0600 
    235 H235       -5.3627  -16.7860  -52.7656 H         1 UNK         0.3000 
    236 H236       -7.3820  -16.5628  -50.6875 H         1 UNK         0.0600 
    237 H237       -5.4251  -14.9999  -50.8856 H         1 UNK         0.0600 
    238 H238       -5.4749  -15.8043  -49.3290 H         1 UNK         0.0600 
    239 H239       -4.3244  -16.3383  -50.5508 H         1 UNK         0.0600 
    240 H240       -5.4766  -19.2115  -51.8868 H         1 UNK         0.3000 
    241 H241       -5.1643  -20.6022  -49.3565 H         1 UNK         0.0600 
    242 H242       -7.7711  -23.1146  -49.5322 H         1 UNK         0.3800 
    243 H243       -6.0920  -23.0014  -49.1038 H         1 UNK         0.3800 
    244 H244       -4.3628  -22.4835  -50.7376 H         1 UNK         0.0800 
    245 H245       -4.8505  -21.6862  -52.1988 H         1 UNK         0.0800 
    246 H246       -3.2348  -18.7971  -50.0907 H         1 UNK         0.0800 
    247 H247       -2.8716  -20.1313  -49.0240 H         1 UNK         0.0800 
@<TRIPOS>BOND
     1    1    2 1    
     2    1  127 1    
     3    1  128 1    
     4    1  129 1    
     5    2    3 2    
     6    2    4 am   BACKBONE|DICT|INTERRES
     7    4    5 1    
     8    4  130 1    
     9    5    6 1    
    10    5   65 1    
    11    5  131 1    
    12    6    7 1    
    13    6  132 1    
    14    6  133 1    
    15    7    8 1    
    16    8    9 1    
    17    8  134 1    
    18    8  135 1    
    19    9   10 ar   
    20    9   14 ar   
    21   10   11 ar   
    22   10  136 1    
    23   11   12 ar   
    24   11  126 1    
    25   12   13 ar   
    26   12  137 1    
    27   13   14 ar   
    28   13   15 1    
    29   14  138 1    
    30   15   16 1    
    31   15  139 1    
    32   15  140 1    
    33   16   17 1    
    34   17   18 1    
    35   17  141 1    
    36   17  142 1    
    37   18   19 1    
    38   18   67 1    
    39   18  143 1    
    40   19   20 am   BACKBONE|DICT|INTERRES
    41   19  144 1    
    42   20   21 2    
    43   20   22 1    
    44   22   23 1    
    45   22   24 1    
    46   22  145 1    
    47   23  146 1    
    48   23  147 1    
    49   23  148 1    
    50   24   25 am   BACKBONE|DICT|INTERRES
    51   24  149 1    
    52   25   26 2    
    53   25   27 1    
    54   27   28 1    
    55   27   29 1    
    56   27  150 1    
    57   28  151 1    
    58   28  152 1    
    59   28  153 1    
    60   29   30 am   BACKBONE|DICT|INTERRES
    61   29  154 1    
    62   30   31 2    
    63   30   32 1    
    64   32   33 1    
    65   32   34 1    
    66   32  155 1    
    67   33  156 1    
    68   33  157 1    
    69   33  158 1    
    70   34   35 am   BACKBONE|DICT|INTERRES
    71   34  159 1    
    72   35   36 2    
    73   35   37 1    
    74   37   38 1    
    75   37   39 1    
    76   37  160 1    
    77   38  161 1    
    78   38  162 1    
    79   38  163 1    
    80   39   40 am   BACKBONE|DICT|INTERRES
    81   39  164 1    
    82   40   41 2    
    83   40   42 1    
    84   42   43 1    
    85   42   44 1    
    86   42  165 1    
    87   43  166 1    
    88   43  167 1    
    89   43  168 1    
    90   44   45 am   BACKBONE|DICT|INTERRES
    91   44  169 1    
    92   45   46 2    
    93   45   47 1    
    94   47   48 1    
    95   47   49 1    
    96   47  170 1    
    97   48  171 1    
    98   48  172 1    
    99   48  173 1    
   100   49   50 am   BACKBONE|DICT|INTERRES
   101   49  174 1    
   102   50   51 2    
   103   50   52 1    
   104   52   53 1    
   105   52   54 1    
   106   52  175 1    
   107   53  176 1    
   108   53  177 1    
   109   53  178 1    
   110   54   55 am   BACKBONE|DICT|INTERRES
   111   54  179 1    
   112   55   56 2    
   113   55   57 1    
   114   57   58 1    
   115   57   59 1    
   116   57  180 1    
   117   58  181 1    
   118   58  182 1    
   119   58  183 1    
   120   59   60 am   BACKBONE|DICT|INTERRES
   121   59  184 1    
   122   60   61 2    
   123   60   62 1    
   124   62   63 1    
   125   62   64 1    
   126   62  185 1    
   127   63  186 1    
   128   63  187 1    
   129   63  188 1    
   130   64   65 am   BACKBONE|DICT|INTERRES
   131   64  189 1    
   132   65   66 2    
   133   67   68 2    
   134   67   69 am   BACKBONE|DICT|INTERRES
   135   69   70 1    
   136   69  190 1    
   137   70   71 1    
   138   70   72 1    
   139   70  191 1    
   140   71  192 1    
   141   71  193 1    
   142   71  194 1    
   143   72   73 2    
   144   72   74 am   BACKBONE|DICT|INTERRES
   145   74   75 1    
   146   74  195 1    
   147   75   76 1    
   148   75   77 1    
   149   75  196 1    
   150   76  197 1    
   151   76  198 1    
   152   76  199 1    
   153   77   78 2    
   154   77   79 am   BACKBONE|DICT|INTERRES
   155   79   80 1    
   156   79  200 1    
   157   80   81 1    
   158   80   82 1    
   159   80  201 1    
   160   81  202 1    
   161   81  203 1    
   162   81  204 1    
   163   82   83 2    
   164   82   84 am   BACKBONE|DICT|INTERRES
   165   84   85 1    
   166   84  205 1    
   167   85   86 1    
   168   85   87 1    
   169   85  206 1    
   170   86  207 1    
   171   86  208 1    
   172   86  209 1    
   173   87   88 2    
   174   87   89 am   BACKBONE|DICT|INTERRES
   175   89   90 1    
   176   89  210 1    
   177   90   91 1    
   178   90   92 1    
   179   90  211 1    
   180   91  212 1    
   181   91  213 1    
   182   91  214 1    
   183   92   93 2    
   184   92   94 am   BACKBONE|DICT|INTERRES
   185   94   95 1    
   186   94  215 1    
   187   95   96 1    
   188   95   97 1    
   189   95  216 1    
   190   96  217 1    
   191   96  218 1    
   192   96  219 1    
   193   97   98 2    
   194   97   99 am   BACKBONE|DICT|INTERRES
   195   99  100 1    
   196   99  220 1    
   197  100  101 1    
   198  100  102 1    
   199  100  221 1    
   200  101  222 1    
   201  101  223 1    
   202  101  224 1    
   203  102  103 2    
   204  102  104 am   BACKBONE|DICT|INTERRES
   205  104  105 1    
   206  104  225 1    
   207  105  106 1    
   208  105  107 1    
   209  105  226 1    
   210  106  227 1    
   211  106  228 1    
   212  106  229 1    
   213  107  108 2    
   214  107  109 am   BACKBONE|DICT|INTERRES
   215  109  110 1    
   216  109  230 1    
   217  110  111 1    
   218  110  112 1    
   219  110  231 1    
   220  111  232 1    
   221  111  233 1    
   222  111  234 1    
   223  112  113 2    
   224  112  114 am   BACKBONE|DICT|INTERRES
   225  114  115 1    
   226  114  235 1    
   227  115  116 1    
   228  115  117 1    
   229  115  236 1    
   230  116  237 1    
   231  116  238 1    
   232  116  239 1    
   233  117  118 2    
   234  117  119 am   BACKBONE|DICT|INTERRES
   235  119  120 1    
   236  119  240 1    
   237  120  121 1    
   238  120  124 1    
   239  120  241 1    
   240  121  122 am   BACKBONE|DICT|INTERRES
   241  121  123 2    
   242  122  242 1    
   243  122  243 1    
   244  124  125 1    
   245  124  244 1    
   246  124  245 1    
   247  125  126 1    
   248  126  246 1    
   249  126  247 1    
@<TRIPOS>SUBSTRUCTURE
     1 UNK         1 GROUP             0       ****    0 ROOT    
