@<TRIPOS>MOLECULE
3R540
247   249    1
SMALL
USER_CHARGES


@<TRIPOS>ATOM
      1 CA         -2.0326  -13.4945  -51.4333 C.3       0 UNK        -0.1800 
      2 C          -1.3184  -14.4134  -50.4527 C.2       0 UNK         0.5000 
      3 O          -1.8069  -15.5090  -50.1711 O.2       0 UNK        -0.5000 
      4 N          -0.1855  -13.9483  -49.9086 N.am      1 UNK        -0.5000 
      5 CA          0.7053  -14.6043  -48.9365 C.3       1 UNK         0.1400 
      6 C6          1.2757  -15.9702  -49.3994 C.3       23 UNK        -0.0398 
      7 S7          2.2526  -15.8075  -50.9326 S.3       23 UNK        -0.2404 
      8 C8          3.7194  -16.8301  -50.5683 C.3       23 UNK        -0.0205 
      9 C9          3.4031  -18.3075  -50.3495 C.ar      23 UNK        -0.0193 
     10 C10         2.4822  -18.9783  -51.1601 C.ar      23 UNK        -0.1150 
     11 C11         2.1771  -20.3279  -50.9434 C.ar      23 UNK        -0.0193 
     12 C12         2.8630  -21.0173  -49.9374 C.ar      23 UNK        -0.1150 
     13 C13         3.8225  -20.3757  -49.1435 C.ar      23 UNK        -0.0193 
     14 C14         4.0705  -19.0159  -49.3480 C.ar      23 UNK        -0.1150 
     15 C15         4.6586  -21.1268  -48.1068 C.3       23 UNK        -0.0205 
     16 S16         3.8235  -22.5278  -47.2917 S.3       23 UNK        -0.2404 
     17 C17         2.6261  -21.6581  -46.2302 C.3       23 UNK        -0.0398 
     18 CA          1.3072  -22.4496  -46.0685 C.3       11 UNK         0.1400 
     19 N           0.6072  -22.0905  -44.8318 N.am      11 UNK        -0.5000 
     20 C          -0.4555  -22.7397  -44.3356 C.2       10 UNK         0.5000 
     21 O          -0.9329  -23.7544  -44.8406 O.2       10 UNK        -0.5000 
     22 CA         -1.1344  -22.1196  -43.1000 C.3       10 UNK         0.1400 
     23 CB         -0.4006  -22.5108  -41.8091 C.3       10 UNK        -0.1800 
     24 N          -1.2307  -20.6627  -43.1958 N.am      10 UNK        -0.5000 
     25 C          -1.9471  -20.0160  -44.1257 C.2       9 UNK         0.5000 
     26 O          -2.6698  -20.5824  -44.9445 O.2       9 UNK        -0.5000 
     27 CA         -1.7838  -18.4890  -44.1965 C.3       9 UNK         0.1400 
     28 CB         -2.6795  -17.7875  -43.1661 C.3       9 UNK        -0.1800 
     29 N          -0.3921  -18.0654  -44.0260 N.am      9 UNK        -0.5000 
     30 C           0.5961  -18.3482  -44.8876 C.2       8 UNK         0.5000 
     31 O           0.4184  -18.9279  -45.9566 O.2       8 UNK        -0.5000 
     32 CA          2.0298  -17.9848  -44.4623 C.3       8 UNK         0.1400 
     33 CB          2.3934  -16.5518  -44.8706 C.3       8 UNK        -0.1800 
     34 N           2.2303  -18.1565  -43.0247 N.am      8 UNK        -0.5000 
     35 C           2.3063  -19.3484  -42.4168 C.2       7 UNK         0.5000 
     36 O           2.2611  -20.4216  -43.0171 O.2       7 UNK        -0.5000 
     37 CA          2.3995  -19.3361  -40.8799 C.3       7 UNK         0.1400 
     38 CB          3.8539  -19.1405  -40.4273 C.3       7 UNK        -0.1800 
     39 N           1.5605  -18.2967  -40.2807 N.am      7 UNK        -0.5000 
     40 C           0.2202  -18.2895  -40.3209 C.2       6 UNK         0.5000 
     41 O          -0.4491  -19.1988  -40.8092 O.2       6 UNK        -0.5000 
     42 CA         -0.4856  -17.0322  -39.7754 C.3       6 UNK         0.1400 
     43 CB         -0.7839  -17.1889  -38.2772 C.3       6 UNK        -0.1800 
     44 N           0.2839  -15.8029  -39.9930 N.am      6 UNK        -0.5000 
     45 C           0.5896  -15.3024  -41.1973 C.2       5 UNK         0.5000 
     46 O           0.2267  -15.8086  -42.2617 O.2       5 UNK        -0.5000 
     47 CA          1.5271  -14.0899  -41.2100 C.3       5 UNK         0.1400 
     48 CB          2.9785  -14.5573  -40.9691 C.3       5 UNK        -0.1800 
     49 N           1.4207  -13.4080  -42.4973 N.am      5 UNK        -0.5000 
     50 C           1.9556  -12.2162  -42.7888 C.2       4 UNK         0.5000 
     51 O           2.5584  -11.5177  -41.9725 O.2       4 UNK        -0.5000 
     52 CA          1.8022  -11.7165  -44.2352 C.3       4 UNK         0.1400 
     53 CB          2.8769  -12.3456  -45.1360 C.3       4 UNK        -0.1800 
     54 N           0.4746  -11.9710  -44.7973 N.am      4 UNK        -0.5000 
     55 C          -0.6223  -11.2695  -44.4690 C.2       3 UNK         0.5000 
     56 O          -0.6268  -10.3843  -43.6124 O.2       3 UNK        -0.5000 
     57 CA         -1.9290  -11.5629  -45.2365 C.3       3 UNK         0.1400 
     58 CB         -2.1937  -10.4659  -46.2799 C.3       3 UNK        -0.1800 
     59 N          -1.9318  -12.8572  -45.9144 N.am      3 UNK        -0.5000 
     60 C          -2.0697  -14.0377  -45.2995 C.2       2 UNK         0.5000 
     61 O          -2.2903  -14.1524  -44.0946 O.2       2 UNK        -0.5000 
     62 CA         -1.9163  -15.3020  -46.1691 C.3       2 UNK         0.1400 
     63 CB         -3.2899  -15.9069  -46.4963 C.3       2 UNK        -0.1800 
     64 N          -1.1764  -15.1107  -47.4201 N.am      2 UNK        -0.5000 
     65 C           0.0934  -14.7005  -47.5248 C.2       1 UNK         0.5000 
     66 O           0.7669  -14.3542  -46.5563 O.2       1 UNK        -0.5000 
     67 C           0.3990  -22.3217  -47.3118 C.2       11 UNK         0.5000 
     68 O           0.4023  -23.2148  -48.1594 O.2       11 UNK        -0.5000 
     69 N          -0.3963  -21.2431  -47.3742 N.am      12 UNK        -0.5000 
     70 CA         -1.4178  -21.0257  -48.3961 C.3       12 UNK         0.1400 
     71 CB         -1.9970  -19.6063  -48.2838 C.3       12 UNK        -0.1800 
     72 C          -2.5175  -22.0995  -48.3489 C.2       12 UNK         0.5000 
     73 O          -2.8121  -22.6975  -49.3809 O.2       12 UNK        -0.5000 
     74 N          -3.0588  -22.3721  -47.1525 N.am      13 UNK        -0.5000 
     75 CA         -4.0616  -23.4130  -46.9052 C.3       13 UNK         0.1400 
     76 CB         -4.5033  -23.3653  -45.4353 C.3       13 UNK        -0.1800 
     77 C          -3.5820  -24.8267  -47.2879 C.2       13 UNK         0.5000 
     78 O          -4.3422  -25.5867  -47.8895 O.2       13 UNK        -0.5000 
     79 N          -2.3129  -25.1346  -46.9861 N.am      14 UNK        -0.5000 
     80 CA         -1.6375  -26.3819  -47.3526 C.3       14 UNK         0.1400 
     81 CB         -0.2818  -26.4546  -46.6335 C.3       14 UNK        -0.1800 
     82 C          -1.4569  -26.5774  -48.8726 C.2       14 UNK         0.5000 
     83 O          -1.2787  -27.7142  -49.3114 O.2       14 UNK        -0.5000 
     84 N          -1.5333  -25.4894  -49.6524 N.am      15 UNK        -0.5000 
     85 CA         -1.4925  -25.5012  -51.1157 C.3       15 UNK         0.1400 
     86 CB         -0.8748  -24.1845  -51.6118 C.3       15 UNK        -0.1800 
     87 C          -2.8725  -25.7771  -51.7568 C.2       15 UNK         0.5000 
     88 O          -2.9741  -25.7663  -52.9852 O.2       15 UNK        -0.5000 
     89 N          -3.8982  -26.0459  -50.9316 N.am      16 UNK        -0.5000 
     90 CA         -5.2416  -26.5093  -51.2874 C.3       16 UNK         0.1400 
     91 CB         -5.1831  -27.9553  -51.8281 C.3       16 UNK        -0.1800 
     92 C          -5.9764  -25.5260  -52.2172 C.2       16 UNK         0.5000 
     93 O          -6.4047  -24.4703  -51.7543 O.2       16 UNK        -0.5000 
     94 N          -6.1030  -25.8652  -53.5072 N.am      17 UNK        -0.5000 
     95 CA         -6.7573  -25.0463  -54.5320 C.3       17 UNK         0.1400 
     96 CB         -6.8116  -25.8402  -55.8459 C.3       17 UNK        -0.1800 
     97 C          -6.0893  -23.6745  -54.7575 C.2       17 UNK         0.5000 
     98 O          -6.7683  -22.7295  -55.1606 O.2       17 UNK        -0.5000 
     99 N          -4.7841  -23.5793  -54.4696 N.am      18 UNK        -0.5000 
    100 CA        -4.0039  -22.3464  -54.5642 C.3       18 UNK         0.1400 
    101 CB        -2.5312  -22.7069  -54.8067 C.3       18 UNK        -0.1800 
    102 C         -4.1586  -21.4187  -53.3410 C.2       18 UNK         0.5000 
    103 O         -3.5997  -20.3240  -53.3645 O.2       18 UNK        -0.5000 
    104 N         -4.9082  -21.8337  -52.3050 N.am      19 UNK        -0.5000 
    105 CA        -5.1402  -21.0560  -51.0801 C.3       19 UNK         0.1400 
    106 CB        -5.8993  -21.9133  -50.0569 C.3       19 UNK        -0.1800 
    107 C         -5.8964  -19.7338  -51.3035 C.2       19 UNK         0.5000 
    108 O         -5.7627  -18.8155  -50.4927 O.2       19 UNK        -0.5000 
    109 N         -6.6642  -19.6498  -52.3979 N.am      20 UNK        -0.5000 
    110 CA        -7.3573  -18.4521  -52.8661 C.3       20 UNK         0.1400 
    111 CB        -8.4434  -18.8776  -53.8705 C.3       20 UNK        -0.1800 
    112 C         -6.3611  -17.4327  -53.4594 C.2       20 UNK         0.5000 
    113 O         -6.3216  -17.2481  -54.6768 O.2       20 UNK        -0.5000 
    114 N         -5.5700  -16.8151  -52.5704 N.am      21 UNK        -0.5000 
    115 CA        -4.4776  -15.8729  -52.8223 C.3       21 UNK         0.1400 
    116 CB        -4.9899  -14.5901  -53.5118 C.3       21 UNK        -0.1800 
    117 C         -3.3150  -16.5434  -53.5800 C.2       21 UNK         0.5000 
    118 O         -3.2192  -16.4250  -54.8038 O.2       21 UNK        -0.5000 
    119 N         -2.4620  -17.2513  -52.8286 N.am      22 UNK        -0.5000 
    120 CA        -1.2402  -17.8946  -53.3379 C.3       22 UNK         0.1400 
    121 C         -0.1466  -16.8703  -53.7816 C.2       22 UNK         0.5000 
    122 N          0.8777  -17.3138  -54.4969 N.am      22 UNK        -0.7600 
    123 O         -0.2095  -15.6776  -53.4941 O.2       22 UNK        -0.5000 
    124 C124       -0.7118  -18.9638  -52.3383 C.3       23 UNK        -0.0398 
    125 S125        0.3431  -20.2205  -53.1550 S.3       23 UNK        -0.2404 
    126 C126        1.1332  -21.0977  -51.7595 C.3       23 UNK        -0.0205 
    127 H127       -2.0081  -13.9247  -52.4336 H         1 UNK         0.0600 
    128 H128       -1.5676  -12.5096  -51.4781 H         1 UNK         0.0600 
    129 H129       -3.0735  -13.3636  -51.1381 H         1 UNK         0.0600 
    130 H130        0.1283  -13.0316  -50.1946 H         1 UNK         0.3000 
    131 H131        1.5546  -13.9260  -48.8360 H         1 UNK         0.0600 
    132 H132        0.4801  -16.6973  -49.5674 H         1 UNK         0.0800 
    133 H133        1.9130  -16.3955  -48.6218 H         1 UNK         0.0800 
    134 H134        4.2276  -16.4110  -49.6984 H         1 UNK         0.0800 
    135 H135        4.4165  -16.7474  -51.4029 H         1 UNK         0.0800 
    136 H136        2.0059  -18.4292  -51.9567 H         1 UNK         0.1150 
    137 H137        2.6560  -22.0677  -49.7880 H         1 UNK         0.1150 
    138 H138        4.8095  -18.5113  -48.7413 H         1 UNK         0.1150 
    139 H139        5.5502  -21.5068  -48.6069 H         1 UNK         0.0800 
    140 H140        5.0106  -20.4410  -47.3343 H         1 UNK         0.0800 
    141 H141        2.4393  -20.6517  -46.6087 H         1 UNK         0.0800 
    142 H142        3.1103  -21.5306  -45.2617 H         1 UNK         0.0800 
    143 H143        1.5611  -23.5072  -45.9674 H         1 UNK         0.0600 
    144 H144        0.9732  -21.2978  -44.3158 H         1 UNK         0.3000 
    145 H145       -2.1497  -22.5172  -43.0438 H         1 UNK         0.0600 
    146 H146       -0.9123  -22.1166  -40.9309 H         1 UNK         0.0600 
    147 H147        0.6228  -22.1369  -41.7941 H         1 UNK         0.0600 
    148 H148       -0.3552  -23.5951  -41.7008 H         1 UNK         0.0600 
    149 H149       -0.7207  -20.1209  -42.5044 H         1 UNK         0.3000 
    150 H150       -2.1060  -18.1810  -45.1914 H         1 UNK         0.0600 
    151 H151       -3.7319  -17.9912  -43.3669 H         1 UNK         0.0600 
    152 H152       -2.5455  -16.7065  -43.1931 H         1 UNK         0.0600 
    153 H153       -2.4717  -18.1242  -42.1514 H         1 UNK         0.0600 
    154 H154       -0.1742  -17.5144  -43.2021 H         1 UNK         0.3000 
    155 H155        2.7118  -18.6602  -44.9833 H         1 UNK         0.0600 
    156 H156        2.3553  -16.4416  -45.9545 H         1 UNK         0.0600 
    157 H157        3.4040  -16.2924  -44.5553 H         1 UNK         0.0600 
    158 H158        1.7099  -15.8194  -44.4419 H         1 UNK         0.0600 
    159 H159        2.2183  -17.3201  -42.4613 H         1 UNK         0.3000 
    160 H160        2.0542  -20.3063  -40.5164 H         1 UNK         0.0600 
    161 H161        4.2489  -18.1732  -40.7408 H         1 UNK         0.0600 
    162 H162        4.5003  -19.9116  -40.8488 H         1 UNK         0.0600 
    163 H163        3.9407  -19.2030  -39.3424 H         1 UNK         0.0600 
    164 H164        2.0343  -17.5182  -39.8480 H         1 UNK         0.3000 
    165 H165       -1.4355  -16.9298  -40.3034 H         1 UNK         0.0600 
    166 H166       -1.3537  -16.3405  -37.8976 H         1 UNK         0.0600 
    167 H167       -1.3756  -18.0859  -38.0893 H         1 UNK         0.0600 
    168 H168        0.1312  -17.2700  -37.6894 H         1 UNK         0.0600 
    169 H169        0.6254  -15.3349  -39.1656 H         1 UNK         0.3000 
    170 H170        1.2193  -13.4037  -40.4186 H         1 UNK         0.0600 
    171 H171        3.3296  -15.2044  -41.7740 H         1 UNK         0.0600 
    172 H172        3.6666  -13.7154  -40.8975 H         1 UNK         0.0600 
    173 H173        3.0676  -15.1148  -40.0360 H         1 UNK         0.0600 
    174 H174        0.8966  -13.9149  -43.2002 H         1 UNK         0.3000 
    175 H175        1.9666  -10.6367  -44.2322 H         1 UNK         0.0600 
    176 H176        2.8123  -13.4340  -45.1441 H         1 UNK         0.0600 
    177 H177        2.7867  -11.9962  -46.1647 H         1 UNK         0.0600 
    178 H178        3.8767  -12.0826  -44.7888 H         1 UNK         0.0600 
    179 H179        0.4098  -12.7153  -45.4845 H         1 UNK         0.3000 
    180 H180       -2.7458  -11.5477  -44.5116 H         1 UNK         0.0600 
    181 H181       -3.1470  -10.6229  -46.7849 H         1 UNK         0.0600 
    182 H182       -1.4112  -10.4354  -47.0392 H         1 UNK         0.0600 
    183 H183       -2.2349   -9.4816  -45.8114 H         1 UNK         0.0600 
    184 H184       -1.7546  -12.8539  -46.9077 H         1 UNK         0.3000 
    185 H185       -1.3490  -16.0155  -45.5738 H         1 UNK         0.0600 
    186 H186       -3.8862  -15.2336  -47.1132 H         1 UNK         0.0600 
    187 H187       -3.1891  -16.8503  -47.0333 H         1 UNK         0.0600 
    188 H188       -3.8570  -16.1093  -45.5867 H         1 UNK         0.0600 
    189 H189       -1.6536  -15.3591  -48.2829 H         1 UNK         0.3000 
    190 H190       -0.2842  -20.5099  -46.6790 H         1 UNK         0.3000 
    191 H191       -0.9313  -21.1012  -49.3667 H         1 UNK         0.0600 
    192 H192       -1.2141  -18.8527  -48.3755 H         1 UNK         0.0600 
    193 H193       -2.5029  -19.4472  -47.3325 H         1 UNK         0.0600 
    194 H194       -2.7231  -19.4174  -49.0753 H         1 UNK         0.0600 
    195 H195       -2.7793  -21.8118  -46.3504 H         1 UNK         0.3000 
    196 H196       -4.9310  -23.1839  -47.5228 H         1 UNK         0.0600 
    197 H197       -4.9159  -22.3893  -45.1792 H         1 UNK         0.0600 
    198 H198       -3.6727  -23.5648  -44.7584 H         1 UNK         0.0600 
    199 H199       -5.2761  -24.1085  -45.2352 H         1 UNK         0.0600 
    200 H200       -1.7691  -24.4721  -46.4397 H         1 UNK         0.3000 
    201 H201       -2.2547  -27.2081  -46.9939 H         1 UNK         0.0600 
    202 H202       -0.4062  -26.4108  -45.5514 H         1 UNK         0.0600 
    203 H203        0.3739  -25.6355  -46.9290 H         1 UNK         0.0600 
    204 H204        0.2346  -27.3875  -46.8626 H         1 UNK         0.0600 
    205 H205       -1.6968  -24.5869  -49.2210 H         1 UNK         0.3000 
    206 H206       -0.8297  -26.3079  -51.4349 H         1 UNK         0.0600 
    207 H207       -1.5756  -23.3521  -51.5478 H         1 UNK         0.0600 
    208 H208        0.0127  -23.9232  -51.0352 H         1 UNK         0.0600 
    209 H209       -0.5624  -24.2752  -52.6519 H         1 UNK         0.0600 
    210 H210       -3.7363  -25.9468  -49.9364 H         1 UNK         0.3000 
    211 H211       -5.8127  -26.5307  -50.3580 H         1 UNK         0.0600 
    212 H212       -4.5695  -28.0403  -52.7255 H         1 UNK         0.0600 
    213 H213       -6.1803  -28.3260  -52.0690 H         1 UNK         0.0600 
    214 H214       -4.7634  -28.6296  -51.0813 H         1 UNK         0.0600 
    215 H215       -5.6935  -26.7350  -53.8155 H         1 UNK         0.3000 
    216 H216       -7.7812  -24.8588  -54.2023 H         1 UNK         0.0600 
    217 H217       -7.3171  -25.2702  -56.6267 H         1 UNK         0.0600 
    218 H218       -7.3599  -26.7741  -55.7210 H         1 UNK         0.0600 
    219 H219       -5.8124  -26.0821  -56.2105 H         1 UNK         0.0600 
    220 H220       -4.3003  -24.3970  -54.1152 H         1 UNK         0.3000 
    221 H221       -4.3479  -21.7792  -55.4317 H         1 UNK         0.0600 
    222 H222       -2.1288  -23.2952  -53.9858 H         1 UNK         0.0600 
    223 H223       -2.4120  -23.2854  -55.7228 H         1 UNK         0.0600 
    224 H224       -1.9143  -21.8126  -54.9044 H         1 UNK         0.0600 
    225 H225       -5.3430  -22.7489  -52.3412 H         1 UNK         0.3000 
    226 H226       -4.1638  -20.8018  -50.6655 H         1 UNK         0.0600 
    227 H227       -5.3900  -22.8590  -49.8750 H         1 UNK         0.0600 
    228 H228       -5.9797  -21.3976  -49.0992 H         1 UNK         0.0600 
    229 H229       -6.9109  -22.1406  -50.3950 H         1 UNK         0.0600 
    230 H230       -6.6883  -20.4492  -53.0143 H         1 UNK         0.3000 
    231 H231       -7.8552  -17.9774  -52.0179 H         1 UNK         0.0600 
    232 H232       -8.9888  -18.0112  -54.2466 H         1 UNK         0.0600 
    233 H233       -9.1719  -19.5415  -53.4045 H         1 UNK         0.0600 
    234 H234       -8.0184  -19.3988  -54.7295 H         1 UNK         0.0600 
    235 H235       -5.6482  -17.1369  -51.6106 H         1 UNK         0.3000 
    236 H236       -4.1006  -15.5811  -51.8414 H         1 UNK         0.0600 
    237 H237       -5.3969  -14.7873  -54.5035 H         1 UNK         0.0600 
    238 H238       -5.7689  -14.1101  -52.9197 H         1 UNK         0.0600 
    239 H239       -4.1831  -13.8674  -53.6348 H         1 UNK         0.0600 
    240 H240       -2.5757  -17.2443  -51.8250 H         1 UNK         0.3000 
    241 H241       -1.5454  -18.4213  -54.2445 H         1 UNK         0.0600 
    242 H242        1.5897  -16.6639  -54.7895 H         1 UNK         0.3800 
    243 H243        0.9701  -18.2940  -54.7175 H         1 UNK         0.3800 
    244 H244       -1.5484  -19.5037  -51.8932 H         1 UNK         0.0800 
    245 H245       -0.1948  -18.4907  -51.5036 H         1 UNK         0.0800 
    246 H246        1.6150  -21.9864  -52.1695 H         1 UNK         0.0800 
    247 H247        0.3543  -21.4626  -51.0940 H         1 UNK         0.0800 
@<TRIPOS>BOND
     1    1    2 1    
     2    1  127 1    
     3    1  128 1    
     4    1  129 1    
     5    2    3 2    
     6    2    4 am   BACKBONE|DICT|INTERRES
     7    4    5 1    
     8    4  130 1    
     9    5    6 1    
    10    5   65 1    
    11    5  131 1    
    12    6    7 1    
    13    6  132 1    
    14    6  133 1    
    15    7    8 1    
    16    8    9 1    
    17    8  134 1    
    18    8  135 1    
    19    9   10 ar   
    20    9   14 ar   
    21   10   11 ar   
    22   10  136 1    
    23   11   12 ar   
    24   11  126 1    
    25   12   13 ar   
    26   12  137 1    
    27   13   14 ar   
    28   13   15 1    
    29   14  138 1    
    30   15   16 1    
    31   15  139 1    
    32   15  140 1    
    33   16   17 1    
    34   17   18 1    
    35   17  141 1    
    36   17  142 1    
    37   18   19 1    
    38   18   67 1    
    39   18  143 1    
    40   19   20 am   BACKBONE|DICT|INTERRES
    41   19  144 1    
    42   20   21 2    
    43   20   22 1    
    44   22   23 1    
    45   22   24 1    
    46   22  145 1    
    47   23  146 1    
    48   23  147 1    
    49   23  148 1    
    50   24   25 am   BACKBONE|DICT|INTERRES
    51   24  149 1    
    52   25   26 2    
    53   25   27 1    
    54   27   28 1    
    55   27   29 1    
    56   27  150 1    
    57   28  151 1    
    58   28  152 1    
    59   28  153 1    
    60   29   30 am   BACKBONE|DICT|INTERRES
    61   29  154 1    
    62   30   31 2    
    63   30   32 1    
    64   32   33 1    
    65   32   34 1    
    66   32  155 1    
    67   33  156 1    
    68   33  157 1    
    69   33  158 1    
    70   34   35 am   BACKBONE|DICT|INTERRES
    71   34  159 1    
    72   35   36 2    
    73   35   37 1    
    74   37   38 1    
    75   37   39 1    
    76   37  160 1    
    77   38  161 1    
    78   38  162 1    
    79   38  163 1    
    80   39   40 am   BACKBONE|DICT|INTERRES
    81   39  164 1    
    82   40   41 2    
    83   40   42 1    
    84   42   43 1    
    85   42   44 1    
    86   42  165 1    
    87   43  166 1    
    88   43  167 1    
    89   43  168 1    
    90   44   45 am   BACKBONE|DICT|INTERRES
    91   44  169 1    
    92   45   46 2    
    93   45   47 1    
    94   47   48 1    
    95   47   49 1    
    96   47  170 1    
    97   48  171 1    
    98   48  172 1    
    99   48  173 1    
   100   49   50 am   BACKBONE|DICT|INTERRES
   101   49  174 1    
   102   50   51 2    
   103   50   52 1    
   104   52   53 1    
   105   52   54 1    
   106   52  175 1    
   107   53  176 1    
   108   53  177 1    
   109   53  178 1    
   110   54   55 am   BACKBONE|DICT|INTERRES
   111   54  179 1    
   112   55   56 2    
   113   55   57 1    
   114   57   58 1    
   115   57   59 1    
   116   57  180 1    
   117   58  181 1    
   118   58  182 1    
   119   58  183 1    
   120   59   60 am   BACKBONE|DICT|INTERRES
   121   59  184 1    
   122   60   61 2    
   123   60   62 1    
   124   62   63 1    
   125   62   64 1    
   126   62  185 1    
   127   63  186 1    
   128   63  187 1    
   129   63  188 1    
   130   64   65 am   BACKBONE|DICT|INTERRES
   131   64  189 1    
   132   65   66 2    
   133   67   68 2    
   134   67   69 am   BACKBONE|DICT|INTERRES
   135   69   70 1    
   136   69  190 1    
   137   70   71 1    
   138   70   72 1    
   139   70  191 1    
   140   71  192 1    
   141   71  193 1    
   142   71  194 1    
   143   72   73 2    
   144   72   74 am   BACKBONE|DICT|INTERRES
   145   74   75 1    
   146   74  195 1    
   147   75   76 1    
   148   75   77 1    
   149   75  196 1    
   150   76  197 1    
   151   76  198 1    
   152   76  199 1    
   153   77   78 2    
   154   77   79 am   BACKBONE|DICT|INTERRES
   155   79   80 1    
   156   79  200 1    
   157   80   81 1    
   158   80   82 1    
   159   80  201 1    
   160   81  202 1    
   161   81  203 1    
   162   81  204 1    
   163   82   83 2    
   164   82   84 am   BACKBONE|DICT|INTERRES
   165   84   85 1    
   166   84  205 1    
   167   85   86 1    
   168   85   87 1    
   169   85  206 1    
   170   86  207 1    
   171   86  208 1    
   172   86  209 1    
   173   87   88 2    
   174   87   89 am   BACKBONE|DICT|INTERRES
   175   89   90 1    
   176   89  210 1    
   177   90   91 1    
   178   90   92 1    
   179   90  211 1    
   180   91  212 1    
   181   91  213 1    
   182   91  214 1    
   183   92   93 2    
   184   92   94 am   BACKBONE|DICT|INTERRES
   185   94   95 1    
   186   94  215 1    
   187   95   96 1    
   188   95   97 1    
   189   95  216 1    
   190   96  217 1    
   191   96  218 1    
   192   96  219 1    
   193   97   98 2    
   194   97   99 am   BACKBONE|DICT|INTERRES
   195   99  100 1    
   196   99  220 1    
   197  100  101 1    
   198  100  102 1    
   199  100  221 1    
   200  101  222 1    
   201  101  223 1    
   202  101  224 1    
   203  102  103 2    
   204  102  104 am   BACKBONE|DICT|INTERRES
   205  104  105 1    
   206  104  225 1    
   207  105  106 1    
   208  105  107 1    
   209  105  226 1    
   210  106  227 1    
   211  106  228 1    
   212  106  229 1    
   213  107  108 2    
   214  107  109 am   BACKBONE|DICT|INTERRES
   215  109  110 1    
   216  109  230 1    
   217  110  111 1    
   218  110  112 1    
   219  110  231 1    
   220  111  232 1    
   221  111  233 1    
   222  111  234 1    
   223  112  113 2    
   224  112  114 am   BACKBONE|DICT|INTERRES
   225  114  115 1    
   226  114  235 1    
   227  115  116 1    
   228  115  117 1    
   229  115  236 1    
   230  116  237 1    
   231  116  238 1    
   232  116  239 1    
   233  117  118 2    
   234  117  119 am   BACKBONE|DICT|INTERRES
   235  119  120 1    
   236  119  240 1    
   237  120  121 1    
   238  120  124 1    
   239  120  241 1    
   240  121  122 am   BACKBONE|DICT|INTERRES
   241  121  123 2    
   242  122  242 1    
   243  122  243 1    
   244  124  125 1    
   245  124  244 1    
   246  124  245 1    
   247  125  126 1    
   248  126  246 1    
   249  126  247 1    
@<TRIPOS>SUBSTRUCTURE
     1 UNK         1 GROUP             0       ****    0 ROOT    
