@<TRIPOS>MOLECULE
3R540
247   249    1
SMALL
USER_CHARGES


@<TRIPOS>ATOM
      1 CA         -0.6317  -11.4214  -43.3074 C.3       0 UNK        -0.1800 
      2 C          -0.4501  -11.6641  -44.8005 C.2       0 UNK         0.5000 
      3 O           0.2435  -12.6033  -45.1930 O.2       0 UNK        -0.5000 
      4 N          -1.0812  -10.8041  -45.6092 N.am      1 UNK        -0.5000 
      5 CA         -1.2650  -10.8128  -47.0677 C.3       1 UNK         0.1400 
      6 C6         -2.2675  -11.8890  -47.5685 C.3       23 UNK        -0.0398 
      7 S7         -1.6415  -13.6016  -47.7159 S.3       23 UNK        -0.2404 
      8 C8         -1.7330  -13.8260  -49.5177 C.3       23 UNK        -0.0205 
      9 C9         -1.4199  -15.2565  -49.9197 C.ar      23 UNK        -0.0193 
     10 C10        -0.1863  -15.5802  -50.4923 C.ar      23 UNK        -0.1150 
     11 C11         0.0903  -16.8937  -50.8819 C.ar      23 UNK        -0.0193 
     12 C12        -0.8860  -17.8776  -50.7097 C.ar      23 UNK        -0.1150 
     13 C13        -2.1187  -17.5709  -50.1306 C.ar      23 UNK        -0.0193 
     14 C14        -2.3794  -16.2565  -49.7361 C.ar      23 UNK        -0.1150 
     15 C15        -3.1697  -18.6534  -49.9390 C.3       23 UNK        -0.0205 
     16 S16        -2.8279  -19.6675  -48.4670 S.3       23 UNK        -0.2404 
     17 C17        -1.7841  -20.9817  -49.1808 C.3       23 UNK        -0.0398 
     18 CA         -1.3936  -22.1443  -48.2398 C.3       11 UNK         0.1400 
     19 N          -0.3612  -21.7939  -47.2609 N.am      11 UNK        -0.5000 
     20 C           0.3776  -22.7206  -46.6306 C.2       10 UNK         0.5000 
     21 O           0.2452  -23.9319  -46.8084 O.2       10 UNK        -0.5000 
     22 CA          1.4107  -22.2304  -45.6060 C.3       10 UNK         0.1400 
     23 CB          2.6519  -21.6653  -46.3126 C.3       10 UNK        -0.1800 
     24 N           0.8632  -21.2439  -44.6777 N.am      10 UNK        -0.5000 
     25 C          -0.1367  -21.4819  -43.8167 C.2       9 UNK         0.5000 
     26 O          -0.7015  -22.5704  -43.7064 O.2       9 UNK        -0.5000 
     27 CA         -0.6135  -20.2943  -42.9618 C.3       9 UNK         0.1400 
     28 CB          0.3401  -20.0479  -41.7834 C.3       9 UNK        -0.1800 
     29 N          -0.7596  -19.0662  -43.7421 N.am      9 UNK        -0.5000 
     30 C          -1.6283  -18.9107  -44.7514 C.2       8 UNK         0.5000 
     31 O          -2.4317  -19.7762  -45.0970 O.2       8 UNK        -0.5000 
     32 CA         -1.5597  -17.5806  -45.5228 C.3       8 UNK         0.1400 
     33 CB         -2.2975  -16.4648  -44.7670 C.3       8 UNK        -0.1800 
     34 N          -0.1837  -17.1644  -45.7823 N.am      8 UNK        -0.5000 
     35 C           0.6771  -17.8175  -46.5761 C.2       7 UNK         0.5000 
     36 O           0.4090  -18.8479  -47.1957 O.2       7 UNK        -0.5000 
     37 CA          2.1042  -17.2433  -46.6283 C.3       7 UNK         0.1400 
     38 CB          2.1587  -15.9806  -47.5020 C.3       7 UNK        -0.1800 
     39 N           2.6196  -16.9277  -45.2951 N.am      7 UNK        -0.5000 
     40 C           2.8727  -17.8355  -44.3418 C.2       6 UNK         0.5000 
     41 O           2.7158  -19.0454  -44.4889 O.2       6 UNK        -0.5000 
     42 CA          3.3449  -17.3005  -42.9793 C.3       6 UNK         0.1400 
     43 CB          4.8703  -17.1223  -42.9665 C.3       6 UNK        -0.1800 
     44 N           2.7094  -16.0399  -42.5961 N.am      6 UNK        -0.5000 
     45 C           1.3979  -15.8622  -42.3860 C.2       5 UNK         0.5000 
     46 O           0.5618  -16.7481  -42.5648 O.2       5 UNK        -0.5000 
     47 CA          0.9237  -14.4612  -41.9468 C.3       5 UNK         0.1400 
     48 CB          0.1102  -14.5153  -40.6396 C.3       5 UNK        -0.1800 
     49 N           1.9813  -13.4414  -41.8791 N.am      5 UNK        -0.5000 
     50 C           3.0201  -13.3453  -41.0357 C.2       4 UNK         0.5000 
     51 O           3.2276  -14.1336  -40.1131 O.2       4 UNK        -0.5000 
     52 CA          4.0361  -12.2203  -41.3447 C.3       4 UNK         0.1400 
     53 CB          5.2517  -12.2394  -40.4005 C.3       4 UNK        -0.1800 
     54 N           4.5133  -12.3084  -42.7300 N.am      4 UNK        -0.5000 
     55 C           3.8298  -11.8911  -43.8027 C.2       3 UNK         0.5000 
     56 O           2.7626  -11.2797  -43.7172 O.2       3 UNK        -0.5000 
     57 CA          4.3787  -12.2776  -45.1853 C.3       3 UNK         0.1400 
     58 CB          4.7868  -13.7649  -45.2527 C.3       3 UNK        -0.1800 
     59 N           3.3411  -12.0053  -46.1759 N.am      3 UNK        -0.5000 
     60 C           3.5364  -11.8445  -47.4887 C.2       2 UNK         0.5000 
     61 O           4.6475  -11.9121  -48.0168 O.2       2 UNK        -0.5000 
     62 CA          2.3067  -11.5560  -48.3691 C.3       2 UNK         0.1400 
     63 CB          2.1549  -12.6055  -49.4853 C.3       2 UNK        -0.1800 
     64 N           1.0572  -11.4759  -47.6078 N.am      2 UNK        -0.5000 
     65 C           0.0137  -10.7067  -47.9310 C.2       1 UNK         0.5000 
     66 O           0.0233   -9.9207  -48.8803 O.2       1 UNK        -0.5000 
     67 C          -2.6024  -22.8540  -47.5980 C.2       11 UNK         0.5000 
     68 O          -3.1739  -23.7428  -48.2299 O.2       11 UNK        -0.5000 
     69 N          -2.9494  -22.4940  -46.3534 N.am      12 UNK        -0.5000 
     70 CA         -3.9780  -23.1714  -45.5649 C.3       12 UNK         0.1400 
     71 CB         -4.3047  -22.3495  -44.3098 C.3       12 UNK        -0.1800 
     72 C          -3.5725  -24.6092  -45.1963 C.2       12 UNK         0.5000 
     73 O          -4.3829  -25.5224  -45.3531 O.2       12 UNK        -0.5000 
     74 N          -2.3186  -24.7916  -44.7566 N.am      13 UNK        -0.5000 
     75 CA         -1.7344  -26.0919  -44.4196 C.3       13 UNK         0.1400 
     76 CB         -0.3724  -25.8818  -43.7409 C.3       13 UNK        -0.1800 
     77 C          -1.5978  -27.0250  -45.6375 C.2       13 UNK         0.5000 
     78 O          -1.8739  -28.2196  -45.5227 O.2       13 UNK        -0.5000 
     79 N          -1.1998  -26.4605  -46.7855 N.am      14 UNK        -0.5000 
     80 CA         -1.0746  -27.1660  -48.0632 C.3       14 UNK         0.1400 
     81 CB         -0.1867  -26.3299  -48.9992 C.3       14 UNK        -0.1800 
     82 C          -2.4262  -27.4596  -48.7461 C.2       14 UNK         0.5000 
     83 O          -2.4596  -28.2558  -49.6844 O.2       14 UNK        -0.5000 
     84 N          -3.4950  -26.7807  -48.3008 N.am      15 UNK        -0.5000 
     85 CA         -4.8450  -26.7334  -48.8805 C.3       15 UNK         0.1400 
     86 CB         -5.5052  -28.1268  -48.9042 C.3       15 UNK        -0.1800 
     87 C          -4.9017  -26.0221  -50.2520 C.2       15 UNK         0.5000 
     88 O          -5.9105  -26.1101  -50.9531 O.2       15 UNK        -0.5000 
     89 N          -3.8372  -25.2819  -50.5876 N.am      16 UNK        -0.5000 
     90 CA         -3.7129  -24.4324  -51.7707 C.3       16 UNK         0.1400 
     91 CB         -2.2267  -24.1161  -51.9879 C.3       16 UNK        -0.1800 
     92 C          -4.5491  -23.1423  -51.6575 C.2       16 UNK         0.5000 
     93 O          -4.8737  -22.5377  -52.6810 O.2       16 UNK        -0.5000 
     94 N          -4.9340  -22.7762  -50.4238 N.am      17 UNK        -0.5000 
     95 CA         -5.8426  -21.6780  -50.0835 C.3       17 UNK         0.1400 
     96 CB         -6.0413  -21.6377  -48.5608 C.3       17 UNK        -0.1800 
     97 C          -7.2152  -21.7627  -50.7767 C.2       17 UNK         0.5000 
     98 O          -7.8040  -20.7228  -51.0683 O.2       17 UNK        -0.5000 
     99 N          -7.6780  -22.9868  -51.0720 N.am      18 UNK        -0.5000 
    100 CA        -8.9136  -23.2629  -51.8098 C.3       18 UNK         0.1400 
    101 CB        -9.1923  -24.7728  -51.7661 C.3       18 UNK        -0.1800 
    102 C         -8.8829  -22.7614  -53.2685 C.2       18 UNK         0.5000 
    103 O         -9.9338  -22.4228  -53.8137 O.2       18 UNK        -0.5000 
    104 N         -7.6826  -22.7026  -53.8601 N.am      19 UNK        -0.5000 
    105 CA        -7.4217  -22.1481  -55.1893 C.3       19 UNK         0.1400 
    106 CB        -6.4409  -23.0860  -55.9137 C.3       19 UNK        -0.1800 
    107 C         -6.8405  -20.7209  -55.1159 C.2       19 UNK         0.5000 
    108 O         -6.6196  -20.1109  -56.1628 O.2       19 UNK        -0.5000 
    109 N         -6.5698  -20.2329  -53.8939 N.am      20 UNK        -0.5000 
    110 CA        -5.8302  -19.0116  -53.5539 C.3       20 UNK         0.1400 
    111 CB        -6.6361  -17.7560  -53.9448 C.3       20 UNK        -0.1800 
    112 C         -4.3914  -19.0133  -54.1189 C.2       20 UNK         0.5000 
    113 O         -3.8778  -17.9638  -54.5107 O.2       20 UNK        -0.5000 
    114 N         -3.7807  -20.2030  -54.1725 N.am      21 UNK        -0.5000 
    115 CA        -2.4588  -20.4462  -54.7384 C.3       21 UNK         0.1400 
    116 CB        -2.5208  -21.7476  -55.5542 C.3       21 UNK        -0.1800 
    117 C         -1.4055  -20.5550  -53.6266 C.2       21 UNK         0.5000 
    118 O         -1.7388  -20.8955  -52.4910 O.2       21 UNK        -0.5000 
    119 N         -0.1447  -20.2963  -53.9868 N.am      22 UNK        -0.5000 
    120 CA         1.0200  -20.3906  -53.0882 C.3       22 UNK         0.1400 
    121 C          1.6939  -21.7943  -53.0685 C.2       22 UNK         0.5000 
    122 N          1.2199  -22.7755  -53.8267 N.am      22 UNK        -0.7600 
    123 O          2.6602  -22.0028  -52.3403 O.2       22 UNK        -0.5000 
    124 C124        2.0538  -19.2667  -53.3645 C.3       23 UNK        -0.0398 
    125 S125        1.3382  -17.5878  -53.2554 S.3       23 UNK        -0.2404 
    126 C126        1.4463  -17.2591  -51.4670 C.3       23 UNK        -0.0205 
    127 H127       -1.1966  -10.5097  -43.1117 H         1 UNK         0.0600 
    128 H128        0.3309  -11.3261  -42.8094 H         1 UNK         0.0600 
    129 H129       -1.1740  -12.2516  -42.8562 H         1 UNK         0.0600 
    130 H130       -1.5700  -10.0430  -45.1590 H         1 UNK         0.3000 
    131 H131       -1.7718   -9.8608  -47.2357 H         1 UNK         0.0600 
    132 H132       -3.1324  -11.9137  -46.9045 H         1 UNK         0.0800 
    133 H133       -2.6670  -11.5746  -48.5338 H         1 UNK         0.0800 
    134 H134       -1.0477  -13.1297  -50.0032 H         1 UNK         0.0800 
    135 H135       -2.7345  -13.5713  -49.8677 H         1 UNK         0.0800 
    136 H136        0.5587  -14.8111  -50.6343 H         1 UNK         0.1150 
    137 H137       -0.6870  -18.8870  -51.0271 H         1 UNK         0.1150 
    138 H138       -3.3307  -16.0074  -49.2873 H         1 UNK         0.1150 
    139 H139       -3.2268  -19.2817  -50.8291 H         1 UNK         0.0800 
    140 H140       -4.1557  -18.2009  -49.8255 H         1 UNK         0.0800 
    141 H141       -0.8761  -20.5332  -49.5807 H         1 UNK         0.0800 
    142 H142       -2.3205  -21.3896  -50.0373 H         1 UNK         0.0800 
    143 H143       -0.9369  -22.8916  -48.8924 H         1 UNK         0.0600 
    144 H144       -0.2056  -20.8058  -47.0815 H         1 UNK         0.3000 
    145 H145        1.7249  -23.0953  -45.0181 H         1 UNK         0.0600 
    146 H146        3.0580  -22.3837  -47.0258 H         1 UNK         0.0600 
    147 H147        3.4421  -21.4387  -45.5968 H         1 UNK         0.0600 
    148 H148        2.4235  -20.7505  -46.8601 H         1 UNK         0.0600 
    149 H149        1.3070  -20.3296  -44.6812 H         1 UNK         0.3000 
    150 H150       -1.5948  -20.5491  -42.5564 H         1 UNK         0.0600 
    151 H151        1.3396  -19.7779  -42.1240 H         1 UNK         0.0600 
    152 H152        0.4338  -20.9410  -41.1645 H         1 UNK         0.0600 
    153 H153       -0.0234  -19.2438  -41.1433 H         1 UNK         0.0600 
    154 H154       -0.1646  -18.2843  -43.4825 H         1 UNK         0.3000 
    155 H155       -2.0535  -17.7179  -46.4855 H         1 UNK         0.0600 
    156 H156       -2.3000  -15.5368  -45.3389 H         1 UNK         0.0600 
    157 H157       -1.8413  -16.2598  -43.7980 H         1 UNK         0.0600 
    158 H158       -3.3378  -16.7393  -44.5890 H         1 UNK         0.0600 
    159 H159        0.1406  -16.3485  -45.2863 H         1 UNK         0.3000 
    160 H160        2.7546  -17.9986  -47.0746 H         1 UNK         0.0600 
    161 H161        1.5255  -15.1843  -47.1075 H         1 UNK         0.0600 
    162 H162        1.8190  -16.1981  -48.5142 H         1 UNK         0.0600 
    163 H163        3.1752  -15.5939  -47.5782 H         1 UNK         0.0600 
    164 H164        2.7579  -15.9534  -45.0780 H         1 UNK         0.3000 
    165 H165        3.0834  -18.0438  -42.2238 H         1 UNK         0.0600 
    166 H166        5.3735  -18.0591  -43.2101 H         1 UNK         0.0600 
    167 H167        5.1974  -16.3771  -43.6919 H         1 UNK         0.0600 
    168 H168        5.2234  -16.8119  -41.9828 H         1 UNK         0.0600 
    169 H169        3.3232  -15.2669  -42.3906 H         1 UNK         0.3000 
    170 H170        0.2490  -14.1344  -42.7376 H         1 UNK         0.0600 
    171 H171       -0.2593  -13.5275  -40.3646 H         1 UNK         0.0600 
    172 H172        0.7008  -14.8985  -39.8073 H         1 UNK         0.0600 
    173 H173       -0.7578  -15.1669  -40.7474 H         1 UNK         0.0600 
    174 H174        1.9453  -12.7415  -42.6142 H         1 UNK         0.3000 
    175 H175        3.5196  -11.2688  -41.2009 H         1 UNK         0.0600 
    176 H176        5.8163  -13.1685  -40.4873 H         1 UNK         0.0600 
    177 H177        4.9410  -12.1383  -39.3598 H         1 UNK         0.0600 
    178 H178        5.9301  -11.4136  -40.6159 H         1 UNK         0.0600 
    179 H179        5.3779  -12.8110  -42.8697 H         1 UNK         0.3000 
    180 H180        5.2463  -11.6466  -45.3874 H         1 UNK         0.0600 
    181 H181        3.9599  -14.4150  -44.9693 H         1 UNK         0.0600 
    182 H182        5.6242  -13.9811  -44.5890 H         1 UNK         0.0600 
    183 H183        5.1022  -14.0489  -46.2566 H         1 UNK         0.0600 
    184 H184        2.4239  -11.8525  -45.7737 H         1 UNK         0.3000 
    185 H185        2.5037  -10.5880  -48.8342 H         1 UNK         0.0600 
    186 H186        3.0706  -12.7017  -50.0697 H         1 UNK         0.0600 
    187 H187        1.9203  -13.5869  -49.0750 H         1 UNK         0.0600 
    188 H188        1.3592  -12.3326  -50.1782 H         1 UNK         0.0600 
    189 H189        0.9393  -12.1069  -46.8179 H         1 UNK         0.3000 
    190 H190       -2.4796  -21.7082  -45.9158 H         1 UNK         0.3000 
    191 H191       -4.8838  -23.2296  -46.1716 H         1 UNK         0.0600 
    192 H192       -4.6834  -21.3626  -44.5760 H         1 UNK         0.0600 
    193 H193       -5.0709  -22.8406  -43.7088 H         1 UNK         0.0600 
    194 H194       -3.4279  -22.2109  -43.6770 H         1 UNK         0.0600 
    195 H195       -1.7241  -23.9790  -44.6178 H         1 UNK         0.3000 
    196 H196       -2.3981  -26.5794  -43.7026 H         1 UNK         0.0600 
    197 H197        0.0809  -26.8356  -43.4681 H         1 UNK         0.0600 
    198 H198       -0.4746  -25.2969  -42.8267 H         1 UNK         0.0600 
    199 H199        0.3270  -25.3592  -44.3944 H         1 UNK         0.0600 
    200 H200       -0.9159  -25.4842  -46.7760 H         1 UNK         0.3000 
    201 H201       -0.5801  -28.1232  -47.8859 H         1 UNK         0.0600 
    202 H202       -0.0340  -26.8352  -49.9537 H         1 UNK         0.0600 
    203 H203        0.7973  -26.1600  -48.5617 H         1 UNK         0.0600 
    204 H204       -0.6310  -25.3566  -49.2104 H         1 UNK         0.0600 
    205 H205       -3.3437  -26.1412  -47.5314 H         1 UNK         0.3000 
    206 H206       -5.4287  -26.1094  -48.2023 H         1 UNK         0.0600 
    207 H207       -5.4450  -28.6080  -47.9280 H         1 UNK         0.0600 
    208 H208       -6.5619  -28.0524  -49.1636 H         1 UNK         0.0600 
    209 H209       -5.0390  -28.7873  -49.6354 H         1 UNK         0.0600 
    210 H210       -3.1060  -25.1955  -49.8947 H         1 UNK         0.3000 
    211 H211       -4.0781  -24.9887  -52.6362 H         1 UNK         0.0600 
    212 H212       -1.6362  -25.0285  -52.0719 H         1 UNK         0.0600 
    213 H213       -2.0785  -23.5525  -52.9080 H         1 UNK         0.0600 
    214 H214       -1.8143  -23.5247  -51.1706 H         1 UNK         0.0600 
    215 H215       -4.5654  -23.3102  -49.6444 H         1 UNK         0.3000 
    216 H216       -5.3686  -20.7471  -50.3993 H         1 UNK         0.0600 
    217 H217       -6.4472  -22.5767  -48.1827 H         1 UNK         0.0600 
    218 H218       -6.7309  -20.8421  -48.2757 H         1 UNK         0.0600 
    219 H219       -5.1057  -21.4449  -48.0411 H         1 UNK         0.0600 
    220 H220       -7.1218  -23.7893  -50.8107 H         1 UNK         0.3000 
    221 H221       -9.7308  -22.7475  -51.3010 H         1 UNK         0.0600 
    222 H222       -8.3949  -25.3425  -52.2452 H         1 UNK         0.0600 
    223 H223       -9.2870  -25.1277  -50.7397 H         1 UNK         0.0600 
    224 H224      -10.1235  -25.0139  -52.2804 H         1 UNK         0.0600 
    225 H225       -6.8631  -22.9790  -53.3323 H         1 UNK         0.3000 
    226 H226       -8.3437  -22.0988  -55.7720 H         1 UNK         0.0600 
    227 H227       -6.8473  -24.0943  -55.9947 H         1 UNK         0.0600 
    228 H228       -6.2374  -22.7367  -56.9267 H         1 UNK         0.0600 
    229 H229       -5.4857  -23.1505  -55.3909 H         1 UNK         0.0600 
    230 H230       -6.8315  -20.8055  -53.1034 H         1 UNK         0.3000 
    231 H231       -5.7270  -19.0113  -52.4680 H         1 UNK         0.0600 
    232 H232       -6.7293  -17.6539  -55.0262 H         1 UNK         0.0600 
    233 H233       -6.1554  -16.8512  -53.5711 H         1 UNK         0.0600 
    234 H234       -7.6404  -17.7865  -53.5223 H         1 UNK         0.0600 
    235 H235       -4.2331  -21.0059  -53.7453 H         1 UNK         0.3000 
    236 H236       -2.1772  -19.6306  -55.4077 H         1 UNK         0.0600 
    237 H237       -2.8209  -22.5965  -54.9394 H         1 UNK         0.0600 
    238 H238       -3.2391  -21.6620  -56.3700 H         1 UNK         0.0600 
    239 H239       -1.5535  -21.9843  -55.9984 H         1 UNK         0.0600 
    240 H240        0.0540  -20.0262  -54.9390 H         1 UNK         0.3000 
    241 H241        0.6776  -20.2521  -52.0632 H         1 UNK         0.0600 
    242 H242        0.4251  -22.6243  -54.4251 H         1 UNK         0.3800 
    243 H243        1.6642  -23.6797  -53.8002 H         1 UNK         0.3800 
    244 H244        2.8979  -19.3319  -52.6756 H         1 UNK         0.0800 
    245 H245        2.4758  -19.3861  -54.3636 H         1 UNK         0.0800 
    246 H246        1.8340  -18.1290  -50.9351 H         1 UNK         0.0800 
    247 H247        2.1665  -16.4568  -51.2999 H         1 UNK         0.0800 
@<TRIPOS>BOND
     1    1    2 1    
     2    1  127 1    
     3    1  128 1    
     4    1  129 1    
     5    2    3 2    
     6    2    4 am   BACKBONE|DICT|INTERRES
     7    4    5 1    
     8    4  130 1    
     9    5    6 1    
    10    5   65 1    
    11    5  131 1    
    12    6    7 1    
    13    6  132 1    
    14    6  133 1    
    15    7    8 1    
    16    8    9 1    
    17    8  134 1    
    18    8  135 1    
    19    9   10 ar   
    20    9   14 ar   
    21   10   11 ar   
    22   10  136 1    
    23   11   12 ar   
    24   11  126 1    
    25   12   13 ar   
    26   12  137 1    
    27   13   14 ar   
    28   13   15 1    
    29   14  138 1    
    30   15   16 1    
    31   15  139 1    
    32   15  140 1    
    33   16   17 1    
    34   17   18 1    
    35   17  141 1    
    36   17  142 1    
    37   18   19 1    
    38   18   67 1    
    39   18  143 1    
    40   19   20 am   BACKBONE|DICT|INTERRES
    41   19  144 1    
    42   20   21 2    
    43   20   22 1    
    44   22   23 1    
    45   22   24 1    
    46   22  145 1    
    47   23  146 1    
    48   23  147 1    
    49   23  148 1    
    50   24   25 am   BACKBONE|DICT|INTERRES
    51   24  149 1    
    52   25   26 2    
    53   25   27 1    
    54   27   28 1    
    55   27   29 1    
    56   27  150 1    
    57   28  151 1    
    58   28  152 1    
    59   28  153 1    
    60   29   30 am   BACKBONE|DICT|INTERRES
    61   29  154 1    
    62   30   31 2    
    63   30   32 1    
    64   32   33 1    
    65   32   34 1    
    66   32  155 1    
    67   33  156 1    
    68   33  157 1    
    69   33  158 1    
    70   34   35 am   BACKBONE|DICT|INTERRES
    71   34  159 1    
    72   35   36 2    
    73   35   37 1    
    74   37   38 1    
    75   37   39 1    
    76   37  160 1    
    77   38  161 1    
    78   38  162 1    
    79   38  163 1    
    80   39   40 am   BACKBONE|DICT|INTERRES
    81   39  164 1    
    82   40   41 2    
    83   40   42 1    
    84   42   43 1    
    85   42   44 1    
    86   42  165 1    
    87   43  166 1    
    88   43  167 1    
    89   43  168 1    
    90   44   45 am   BACKBONE|DICT|INTERRES
    91   44  169 1    
    92   45   46 2    
    93   45   47 1    
    94   47   48 1    
    95   47   49 1    
    96   47  170 1    
    97   48  171 1    
    98   48  172 1    
    99   48  173 1    
   100   49   50 am   BACKBONE|DICT|INTERRES
   101   49  174 1    
   102   50   51 2    
   103   50   52 1    
   104   52   53 1    
   105   52   54 1    
   106   52  175 1    
   107   53  176 1    
   108   53  177 1    
   109   53  178 1    
   110   54   55 am   BACKBONE|DICT|INTERRES
   111   54  179 1    
   112   55   56 2    
   113   55   57 1    
   114   57   58 1    
   115   57   59 1    
   116   57  180 1    
   117   58  181 1    
   118   58  182 1    
   119   58  183 1    
   120   59   60 am   BACKBONE|DICT|INTERRES
   121   59  184 1    
   122   60   61 2    
   123   60   62 1    
   124   62   63 1    
   125   62   64 1    
   126   62  185 1    
   127   63  186 1    
   128   63  187 1    
   129   63  188 1    
   130   64   65 am   BACKBONE|DICT|INTERRES
   131   64  189 1    
   132   65   66 2    
   133   67   68 2    
   134   67   69 am   BACKBONE|DICT|INTERRES
   135   69   70 1    
   136   69  190 1    
   137   70   71 1    
   138   70   72 1    
   139   70  191 1    
   140   71  192 1    
   141   71  193 1    
   142   71  194 1    
   143   72   73 2    
   144   72   74 am   BACKBONE|DICT|INTERRES
   145   74   75 1    
   146   74  195 1    
   147   75   76 1    
   148   75   77 1    
   149   75  196 1    
   150   76  197 1    
   151   76  198 1    
   152   76  199 1    
   153   77   78 2    
   154   77   79 am   BACKBONE|DICT|INTERRES
   155   79   80 1    
   156   79  200 1    
   157   80   81 1    
   158   80   82 1    
   159   80  201 1    
   160   81  202 1    
   161   81  203 1    
   162   81  204 1    
   163   82   83 2    
   164   82   84 am   BACKBONE|DICT|INTERRES
   165   84   85 1    
   166   84  205 1    
   167   85   86 1    
   168   85   87 1    
   169   85  206 1    
   170   86  207 1    
   171   86  208 1    
   172   86  209 1    
   173   87   88 2    
   174   87   89 am   BACKBONE|DICT|INTERRES
   175   89   90 1    
   176   89  210 1    
   177   90   91 1    
   178   90   92 1    
   179   90  211 1    
   180   91  212 1    
   181   91  213 1    
   182   91  214 1    
   183   92   93 2    
   184   92   94 am   BACKBONE|DICT|INTERRES
   185   94   95 1    
   186   94  215 1    
   187   95   96 1    
   188   95   97 1    
   189   95  216 1    
   190   96  217 1    
   191   96  218 1    
   192   96  219 1    
   193   97   98 2    
   194   97   99 am   BACKBONE|DICT|INTERRES
   195   99  100 1    
   196   99  220 1    
   197  100  101 1    
   198  100  102 1    
   199  100  221 1    
   200  101  222 1    
   201  101  223 1    
   202  101  224 1    
   203  102  103 2    
   204  102  104 am   BACKBONE|DICT|INTERRES
   205  104  105 1    
   206  104  225 1    
   207  105  106 1    
   208  105  107 1    
   209  105  226 1    
   210  106  227 1    
   211  106  228 1    
   212  106  229 1    
   213  107  108 2    
   214  107  109 am   BACKBONE|DICT|INTERRES
   215  109  110 1    
   216  109  230 1    
   217  110  111 1    
   218  110  112 1    
   219  110  231 1    
   220  111  232 1    
   221  111  233 1    
   222  111  234 1    
   223  112  113 2    
   224  112  114 am   BACKBONE|DICT|INTERRES
   225  114  115 1    
   226  114  235 1    
   227  115  116 1    
   228  115  117 1    
   229  115  236 1    
   230  116  237 1    
   231  116  238 1    
   232  116  239 1    
   233  117  118 2    
   234  117  119 am   BACKBONE|DICT|INTERRES
   235  119  120 1    
   236  119  240 1    
   237  120  121 1    
   238  120  124 1    
   239  120  241 1    
   240  121  122 am   BACKBONE|DICT|INTERRES
   241  121  123 2    
   242  122  242 1    
   243  122  243 1    
   244  124  125 1    
   245  124  244 1    
   246  124  245 1    
   247  125  126 1    
   248  126  246 1    
   249  126  247 1    
@<TRIPOS>SUBSTRUCTURE
     1 UNK         1 GROUP             0       ****    0 ROOT    
