@<TRIPOS>MOLECULE
3R540
247   249    1
SMALL
USER_CHARGES


@<TRIPOS>ATOM
      1 CA          4.4070   -9.7775  -50.2112 C.3       0 UNK        -0.1800 
      2 C           3.7806  -10.0342  -48.8479 C.2       0 UNK         0.5000 
      3 O           3.1061   -9.1549  -48.3120 O.2       0 UNK        -0.5000 
      4 N           4.0114  -11.2310  -48.2879 N.am      1 UNK        -0.5000 
      5 CA          3.4907  -11.7108  -46.9949 C.3       1 UNK         0.1400 
      6 C6          1.9406  -11.8180  -46.9417 C.3       23 UNK        -0.0398 
      7 S7          1.2477  -12.8044  -48.3137 S.3       23 UNK        -0.2404 
      8 C8          1.0370  -14.4115  -47.4956 C.3       23 UNK        -0.0205 
      9 C9          0.4565  -15.4517  -48.4398 C.ar      23 UNK        -0.0193 
     10 C10        -0.8889  -15.3834  -48.8187 C.ar      23 UNK        -0.1150 
     11 C11        -1.4436  -16.3705  -49.6376 C.ar      23 UNK        -0.0193 
     12 C12        -0.6347  -17.4050  -50.1102 C.ar      23 UNK        -0.1150 
     13 C13         0.7008  -17.5015  -49.7156 C.ar      23 UNK        -0.0193 
     14 C14         1.2467  -16.5145  -48.8902 C.ar      23 UNK        -0.1150 
     15 C15         1.5275  -18.7062  -50.1389 C.3       23 UNK        -0.0205 
     16 S16         1.4887  -20.0258  -48.8798 S.3       23 UNK        -0.2404 
     17 C17        -0.2995  -20.3795  -48.7749 C.3       23 UNK        -0.0398 
     18 CA         -0.6092  -21.6579  -47.9654 C.3       11 UNK         0.1400 
     19 N          -0.3642  -21.4864  -46.5279 N.am      11 UNK        -0.5000 
     20 C          -0.4038  -22.4786  -45.6268 C.2       10 UNK         0.5000 
     21 O          -0.6465  -23.6498  -45.9144 O.2       10 UNK        -0.5000 
     22 CA         -0.1817  -22.1033  -44.1502 C.3       10 UNK         0.1400 
     23 CB          1.2949  -21.7837  -43.8726 C.3       10 UNK        -0.1800 
     24 N          -1.0215  -20.9871  -43.7192 N.am      10 UNK        -0.5000 
     25 C          -2.3621  -21.0037  -43.7020 C.2       9 UNK         0.5000 
     26 O          -3.0422  -21.9818  -44.0095 O.2       9 UNK        -0.5000 
     27 CA         -3.0647  -19.6829  -43.3406 C.3       9 UNK         0.1400 
     28 CB         -3.1133  -19.4737  -41.8196 C.3       9 UNK        -0.1800 
     29 N          -2.4357  -18.5289  -43.9831 N.am      9 UNK        -0.5000 
     30 C          -2.3613  -18.3591  -45.3110 C.2       8 UNK         0.5000 
     31 O          -2.8397  -19.1443  -46.1267 O.2       8 UNK        -0.5000 
     32 CA         -1.5662  -17.1419  -45.8045 C.3       8 UNK         0.1400 
     33 CB         -2.4077  -15.8612  -45.6910 C.3       8 UNK        -0.1800 
     34 N          -0.3082  -16.9838  -45.0740 N.am      8 UNK        -0.5000 
     35 C           0.7132  -17.8513  -45.1603 C.2       7 UNK         0.5000 
     36 O           0.6995  -18.8473  -45.8802 O.2       7 UNK        -0.5000 
     37 CA          1.9267  -17.6106  -44.2421 C.3       7 UNK         0.1400 
     38 CB          2.9377  -16.6684  -44.9107 C.3       7 UNK        -0.1800 
     39 N           1.5504  -17.0707  -42.9366 N.am      7 UNK        -0.5000 
     40 C           0.7510  -17.6942  -42.0579 C.2       6 UNK         0.5000 
     41 O           0.3331  -18.8410  -42.2184 O.2       6 UNK        -0.5000 
     42 CA          0.3001  -16.8970  -40.8174 C.3       6 UNK         0.1400 
     43 CB          1.0993  -17.3362  -39.5817 C.3       6 UNK        -0.1800 
     44 N           0.4143  -15.4431  -40.9627 N.am      6 UNK        -0.5000 
     45 C          -0.2108  -14.6853  -41.8774 C.2       5 UNK         0.5000 
     46 O          -0.9967  -15.1341  -42.7117 O.2       5 UNK        -0.5000 
     47 CA          0.1500  -13.1856  -41.8947 C.3       5 UNK         0.1400 
     48 CB         -0.8902  -12.3730  -41.1099 C.3       5 UNK        -0.1800 
     49 N           1.4855  -12.9195  -41.3476 N.am      5 UNK        -0.5000 
     50 C           2.6282  -13.2891  -41.9404 C.2       4 UNK         0.5000 
     51 O           2.6833  -13.8283  -43.0488 O.2       4 UNK        -0.5000 
     52 CA          3.9113  -13.1068  -41.1215 C.3       4 UNK         0.1400 
     53 CB          4.1215  -14.3429  -40.2208 C.3       4 UNK        -0.1800 
     54 N           5.0250  -12.9343  -42.0479 N.am      4 UNK        -0.5000 
     55 C           6.2950  -12.6599  -41.7286 C.2       3 UNK         0.5000 
     56 O           6.7050  -12.5191  -40.5758 O.2       3 UNK        -0.5000 
     57 CA          7.2692  -12.4853  -42.9078 C.3       3 UNK         0.1400 
     58 CB          7.6221  -13.8443  -43.5335 C.3       3 UNK        -0.1800 
     59 N           6.7450  -11.5938  -43.9438 N.am      3 UNK        -0.5000 
     60 C           6.5197  -10.2815  -43.7816 C.2       2 UNK         0.5000 
     61 O           6.7526   -9.6714  -42.7373 O.2       2 UNK        -0.5000 
     62 CA          5.9540   -9.5098  -44.9891 C.3       2 UNK         0.1400 
     63 CB          7.0720   -8.7343  -45.7034 C.3       2 UNK        -0.1800 
     64 N           5.2718  -10.3582  -45.9683 N.am      2 UNK        -0.5000 
     65 C           4.0689  -10.9244  -45.7923 C.2       1 UNK         0.5000 
     66 O           3.4350  -10.8435  -44.7392 O.2       1 UNK        -0.5000 
     67 C          -2.0406  -22.1478  -48.2655 C.2       11 UNK         0.5000 
     68 O          -2.2082  -23.0085  -49.1302 O.2       11 UNK        -0.5000 
     69 N          -3.0402  -21.6238  -47.5427 N.am      12 UNK        -0.5000 
     70 CA         -4.4342  -22.0505  -47.6473 C.3       12 UNK         0.1400 
     71 CB         -5.3414  -21.0722  -46.8884 C.3       12 UNK        -0.1800 
     72 C          -4.6474  -23.4953  -47.1619 C.2       12 UNK         0.5000 
     73 O          -5.3260  -24.2615  -47.8454 O.2       12 UNK        -0.5000 
     74 N          -4.0401  -23.8527  -46.0200 N.am      13 UNK        -0.5000 
     75 CA         -4.0834  -25.1978  -45.4395 C.3       13 UNK         0.1400 
     76 CB         -3.5034  -25.1682  -44.0174 C.3       13 UNK        -0.1800 
     77 C          -3.3543  -26.2466  -46.2984 C.2       13 UNK         0.5000 
     78 O          -3.8515  -27.3636  -46.4452 O.2       13 UNK        -0.5000 
     79 N          -2.2064  -25.8614  -46.8727 N.am      14 UNK        -0.5000 
     80 CA         -1.4311  -26.6714  -47.8151 C.3       14 UNK         0.1400 
     81 CB         -0.0276  -26.0619  -47.9591 C.3       14 UNK        -0.1800 
     82 C          -2.0947  -26.7985  -49.2006 C.2       14 UNK         0.5000 
     83 O          -1.7267  -27.6968  -49.9584 O.2       14 UNK        -0.5000 
     84 N          -3.0380  -25.8939  -49.5032 N.am      15 UNK        -0.5000 
     85 CA         -3.7334  -25.7105  -50.7769 C.3       15 UNK         0.1400 
     86 CB         -4.6413  -26.9161  -51.0930 C.3       15 UNK        -0.1800 
     87 C          -2.7435  -25.3699  -51.9060 C.2       15 UNK         0.5000 
     88 O          -2.6877  -26.0650  -52.9221 O.2       15 UNK        -0.5000 
     89 N          -1.9609  -24.3048  -51.6851 N.am      16 UNK        -0.5000 
     90 CA         -0.9071  -23.8043  -52.5721 C.3       16 UNK         0.1400 
     91 CB         -0.2816  -22.5506  -51.9417 C.3       16 UNK        -0.1800 
     92 C          -1.3704  -23.5046  -54.0119 C.2       16 UNK         0.5000 
     93 O          -0.6037  -23.7259  -54.9500 O.2       16 UNK        -0.5000 
     94 N          -2.6166  -23.0396  -54.1594 N.am      17 UNK        -0.5000 
     95 CA         -3.2754  -22.7738  -55.4378 C.3       17 UNK         0.1400 
     96 CB         -3.8373  -21.3460  -55.4092 C.3       17 UNK        -0.1800 
     97 C          -4.3713  -23.8157  -55.7441 C.2       17 UNK         0.5000 
     98 O          -5.2935  -23.5201  -56.5072 O.2       17 UNK        -0.5000 
     99 N          -4.2646  -25.0141  -55.1488 N.am      18 UNK        -0.5000 
    100 CA        -5.1650  -26.1608  -55.2939 C.3       18 UNK         0.1400 
    101 CB        -5.0223  -26.7818  -56.7019 C.3       18 UNK        -0.1800 
    102 C         -6.6111  -25.7946  -54.9045 C.2       18 UNK         0.5000 
    103 O         -6.8514  -25.4562  -53.7449 O.2       18 UNK        -0.5000 
    104 N         -7.5381  -25.8264  -55.8713 N.am      19 UNK        -0.5000 
    105 CA        -8.9532  -25.4825  -55.7068 C.3       19 UNK         0.1400 
    106 CB        -9.6942  -25.7910  -57.0167 C.3       19 UNK        -0.1800 
    107 C         -9.2070  -24.0232  -55.2748 C.2       19 UNK         0.5000 
    108 O        -10.2460  -23.7491  -54.6733 O.2       19 UNK        -0.5000 
    109 N         -8.2570  -23.1212  -55.5612 N.am      20 UNK        -0.5000 
    110 CA        -8.2848  -21.7229  -55.1270 C.3       20 UNK         0.1400 
    111 CB        -7.5867  -20.8562  -56.1869 C.3       20 UNK        -0.1800 
    112 C         -7.6713  -21.5118  -53.7255 C.2       20 UNK         0.5000 
    113 O         -7.6281  -20.3690  -53.2653 O.2       20 UNK        -0.5000 
    114 N         -7.2125  -22.5942  -53.0737 N.am      21 UNK        -0.5000 
    115 CA        -6.6221  -22.6621  -51.7341 C.3       21 UNK         0.1400 
    116 CB        -7.6891  -22.3993  -50.6497 C.3       21 UNK        -0.1800 
    117 C         -5.3781  -21.7652  -51.6061 C.2       21 UNK         0.5000 
    118 O         -4.2911  -22.1925  -51.9946 O.2       21 UNK        -0.5000 
    119 N         -5.5672  -20.5463  -51.0851 N.am      22 UNK        -0.5000 
    120 CA        -4.5551  -19.4815  -51.0338 C.3       22 UNK         0.1400 
    121 C         -4.1297  -18.9689  -52.4400 C.2       22 UNK         0.5000 
    122 N         -5.0347  -18.9237  -53.4112 N.am      22 UNK        -0.7600 
    123 O         -2.9749  -18.6136  -52.6519 O.2       22 UNK        -0.5000 
    124 C124       -5.0310  -18.2968  -50.1418 C.3       23 UNK        -0.0398 
    125 S125       -3.7429  -17.7033  -49.0025 S.3       23 UNK        -0.2404 
    126 C126       -2.9284  -16.3828  -49.9570 C.3       23 UNK        -0.0205 
    127 H127        3.6307   -9.5609  -50.9451 H         1 UNK         0.0600 
    128 H128        4.9778  -10.6367  -50.5643 H         1 UNK         0.0600 
    129 H129        5.0786   -8.9205  -50.1603 H         1 UNK         0.0600 
    130 H130        4.5697  -11.9023  -48.7968 H         1 UNK         0.3000 
    131 H131        3.8817  -12.7231  -46.8814 H         1 UNK         0.0600 
    132 H132        1.6184  -12.2572  -45.9956 H         1 UNK         0.0800 
    133 H133        1.4874  -10.8264  -46.9770 H         1 UNK         0.0800 
    134 H134        2.0054  -14.7400  -47.1178 H         1 UNK         0.0800 
    135 H135        0.3843  -14.3021  -46.6289 H         1 UNK         0.0800 
    136 H136       -1.5096  -14.5810  -48.4458 H         1 UNK         0.1150 
    137 H137       -1.0684  -18.1741  -50.7341 H         1 UNK         0.1150 
    138 H138        2.2776  -16.5935  -48.5750 H         1 UNK         0.1150 
    139 H139        1.1664  -19.1018  -51.0897 H         1 UNK         0.0800 
    140 H140        2.5623  -18.4043  -50.3060 H         1 UNK         0.0800 
    141 H141       -0.6768  -20.4626  -49.7953 H         1 UNK         0.0800 
    142 H142       -0.8082  -19.5247  -48.3253 H         1 UNK         0.0800 
    143 H143        0.0629  -22.4455  -48.3126 H         1 UNK         0.0600 
    144 H144       -0.1195  -20.5469  -46.2238 H         1 UNK         0.3000 
    145 H145       -0.4557  -22.9702  -43.5453 H         1 UNK         0.0600 
    146 H146        1.4602  -21.5699  -42.8164 H         1 UNK         0.0600 
    147 H147        1.6380  -20.9224  -44.4449 H         1 UNK         0.0600 
    148 H148        1.9319  -22.6280  -44.1385 H         1 UNK         0.0600 
    149 H149       -0.5427  -20.1465  -43.4104 H         1 UNK         0.3000 
    150 H150       -4.0920  -19.7446  -43.7058 H         1 UNK         0.0600 
    151 H151       -3.6269  -20.3029  -41.3315 H         1 UNK         0.0600 
    152 H152       -3.6530  -18.5618  -41.5634 H         1 UNK         0.0600 
    153 H153       -2.1164  -19.4073  -41.3845 H         1 UNK         0.0600 
    154 H154       -1.9845  -17.8549  -43.3826 H         1 UNK         0.3000 
    155 H155       -1.3269  -17.3097  -46.8556 H         1 UNK         0.0600 
    156 H156       -3.2930  -15.9258  -46.3247 H         1 UNK         0.0600 
    157 H157       -1.8457  -14.9834  -46.0066 H         1 UNK         0.0600 
    158 H158       -2.7487  -15.6877  -44.6702 H         1 UNK         0.0600 
    159 H159       -0.2649  -16.2281  -44.4009 H         1 UNK         0.3000 
    160 H160        2.4145  -18.5734  -44.0783 H         1 UNK         0.0600 
    161 H161        2.5267  -15.6669  -45.0355 H         1 UNK         0.0600 
    162 H162        3.2234  -17.0352  -45.8976 H         1 UNK         0.0600 
    163 H163        3.8482  -16.5820  -44.3174 H         1 UNK         0.0600 
    164 H164        1.8448  -16.1242  -42.7389 H         1 UNK         0.3000 
    165 H165       -0.7529  -17.1309  -40.6486 H         1 UNK         0.0600 
    166 H166        0.7334  -16.8461  -38.6793 H         1 UNK         0.0600 
    167 H167        1.0131  -18.4120  -39.4223 H         1 UNK         0.0600 
    168 H168        2.1600  -17.1036  -39.6853 H         1 UNK         0.0600 
    169 H169        1.0374  -14.9801  -40.3189 H         1 UNK         0.3000 
    170 H170        0.1320  -12.8539  -42.9352 H         1 UNK         0.0600 
    171 H171       -0.9095  -12.6525  -40.0557 H         1 UNK         0.0600 
    172 H172       -0.6836  -11.3043  -41.1711 H         1 UNK         0.0600 
    173 H173       -1.8924  -12.5323  -41.5103 H         1 UNK         0.0600 
    174 H174        1.5204  -12.4802  -40.4386 H         1 UNK         0.3000 
    175 H175        3.8216  -12.2076  -40.5089 H         1 UNK         0.0600 
    176 H176        4.2633  -15.2490  -40.8115 H         1 UNK         0.0600 
    177 H177        4.9882  -14.2302  -39.5704 H         1 UNK         0.0600 
    178 H178        3.2620  -14.5070  -39.5701 H         1 UNK         0.0600 
    179 H179        4.7608  -13.0165  -43.0218 H         1 UNK         0.3000 
    180 H180        8.1888  -12.0439  -42.5176 H         1 UNK         0.0600 
    181 H181        8.3798  -13.7357  -44.3097 H         1 UNK         0.0600 
    182 H182        6.7504  -14.3244  -43.9802 H         1 UNK         0.0600 
    183 H183        8.0233  -14.5264  -42.7827 H         1 UNK         0.0600 
    184 H184        6.5344  -12.0060  -44.8402 H         1 UNK         0.3000 
    185 H185        5.2319   -8.7867  -44.6038 H         1 UNK         0.0600 
    186 H186        6.6729   -8.1231  -46.5133 H         1 UNK         0.0600 
    187 H187        7.5845   -8.0622  -45.0138 H         1 UNK         0.0600 
    188 H188        7.8213   -9.4053  -46.1255 H         1 UNK         0.0600 
    189 H189        5.7219  -10.4667  -46.8656 H         1 UNK         0.3000 
    190 H190       -2.8436  -20.8682  -46.8896 H         1 UNK         0.3000 
    191 H191       -4.7126  -22.0136  -48.7014 H         1 UNK         0.0600 
    192 H192       -5.2554  -20.0637  -47.2933 H         1 UNK         0.0600 
    193 H193       -5.0888  -21.0289  -45.8284 H         1 UNK         0.0600 
    194 H194       -6.3884  -21.3669  -46.9678 H         1 UNK         0.0600 
    195 H195       -3.5262  -23.1519  -45.4925 H         1 UNK         0.3000 
    196 H196       -5.1310  -25.4980  -45.3707 H         1 UNK         0.0600 
    197 H197       -4.0772  -24.5026  -43.3725 H         1 UNK         0.0600 
    198 H198       -2.4673  -24.8275  -44.0128 H         1 UNK         0.0600 
    199 H199       -3.5266  -26.1597  -43.5636 H         1 UNK         0.0600 
    200 H200       -1.8216  -24.9489  -46.6391 H         1 UNK         0.3000 
    201 H201       -1.3285  -27.6773  -47.4030 H         1 UNK         0.0600 
    202 H202        0.4835  -26.0157  -46.9974 H         1 UNK         0.0600 
    203 H203       -0.0710  -25.0504  -48.3653 H         1 UNK         0.0600 
    204 H204        0.5932  -26.6585  -48.6286 H         1 UNK         0.0600 
    205 H205       -3.2276  -25.1831  -48.8092 H         1 UNK         0.3000 
    206 H206       -4.3744  -24.8375  -50.6505 H         1 UNK         0.0600 
    207 H207       -4.0681  -27.8268  -51.2677 H         1 UNK         0.0600 
    208 H208       -5.3367  -27.1080  -50.2759 H         1 UNK         0.0600 
    209 H209       -5.2354  -26.7292  -51.9871 H         1 UNK         0.0600 
    210 H210       -2.0868  -23.7976  -50.8112 H         1 UNK         0.3000 
    211 H211       -0.1402  -24.5790  -52.6298 H         1 UNK         0.0600 
    212 H212       -1.0203  -21.7564  -51.8242 H         1 UNK         0.0600 
    213 H213        0.5266  -22.1597  -52.5610 H         1 UNK         0.0600 
    214 H214        0.1385  -22.7692  -50.9599 H         1 UNK         0.0600 
    215 H215       -3.1725  -22.8603  -53.3244 H         1 UNK         0.3000 
    216 H216       -2.5541  -22.8294  -56.2550 H         1 UNK         0.0600 
    217 H217       -4.1905  -21.0433  -56.3951 H         1 UNK         0.0600 
    218 H218       -3.0780  -20.6261  -55.1032 H         1 UNK         0.0600 
    219 H219       -4.6734  -21.2693  -54.7149 H         1 UNK         0.0600 
    220 H220       -3.5024  -25.1582  -54.4938 H         1 UNK         0.3000 
    221 H221       -4.8357  -26.9076  -54.5703 H         1 UNK         0.0600 
    222 H222       -5.2999  -26.0858  -57.4942 H         1 UNK         0.0600 
    223 H223       -3.9927  -27.0897  -56.8844 H         1 UNK         0.0600 
    224 H224       -5.6432  -27.6727  -56.8048 H         1 UNK         0.0600 
    225 H225       -7.2447  -26.0829  -56.8027 H         1 UNK         0.3000 
    226 H226       -9.3595  -26.1263  -54.9241 H         1 UNK         0.0600 
    227 H227       -9.5995  -26.8430  -57.2864 H         1 UNK         0.0600 
    228 H228      -10.7597  -25.5760  -56.9238 H         1 UNK         0.0600 
    229 H229       -9.3101  -25.1946  -57.8453 H         1 UNK         0.0600 
    230 H230       -7.4163  -23.4263  -56.0400 H         1 UNK         0.3000 
    231 H231       -9.3214  -21.3856  -55.0650 H         1 UNK         0.0600 
    232 H232       -7.5935  -19.8024  -55.9059 H         1 UNK         0.0600 
    233 H233       -8.0898  -20.9361  -57.1506 H         1 UNK         0.0600 
    234 H234       -6.5496  -21.1516  -56.3300 H         1 UNK         0.0600 
    235 H235       -7.2637  -23.4895  -53.5481 H         1 UNK         0.3000 
    236 H236       -6.2761  -23.6883  -51.6055 H         1 UNK         0.0600 
    237 H237       -8.1638  -21.4237  -50.7565 H         1 UNK         0.0600 
    238 H238       -8.4765  -23.1518  -50.6942 H         1 UNK         0.0600 
    239 H239       -7.2531  -22.4507  -49.6509 H         1 UNK         0.0600 
    240 H240       -6.5125  -20.2755  -50.8579 H         1 UNK         0.3000 
    241 H241       -3.6688  -19.9324  -50.5815 H         1 UNK         0.0600 
    242 H242       -4.7634  -18.5851  -54.3195 H         1 UNK         0.3800 
    243 H243       -5.9772  -19.2693  -53.2616 H         1 UNK         0.3800 
    244 H244       -5.4277  -17.4628  -50.7244 H         1 UNK         0.0800 
    245 H245       -5.8582  -18.6122  -49.5043 H         1 UNK         0.0800 
    246 H246       -3.3909  -15.4245  -49.7164 H         1 UNK         0.0800 
    247 H247       -3.0645  -16.5343  -51.0274 H         1 UNK         0.0800 
@<TRIPOS>BOND
     1    1    2 1    
     2    1  127 1    
     3    1  128 1    
     4    1  129 1    
     5    2    3 2    
     6    2    4 am   BACKBONE|DICT|INTERRES
     7    4    5 1    
     8    4  130 1    
     9    5    6 1    
    10    5   65 1    
    11    5  131 1    
    12    6    7 1    
    13    6  132 1    
    14    6  133 1    
    15    7    8 1    
    16    8    9 1    
    17    8  134 1    
    18    8  135 1    
    19    9   10 ar   
    20    9   14 ar   
    21   10   11 ar   
    22   10  136 1    
    23   11   12 ar   
    24   11  126 1    
    25   12   13 ar   
    26   12  137 1    
    27   13   14 ar   
    28   13   15 1    
    29   14  138 1    
    30   15   16 1    
    31   15  139 1    
    32   15  140 1    
    33   16   17 1    
    34   17   18 1    
    35   17  141 1    
    36   17  142 1    
    37   18   19 1    
    38   18   67 1    
    39   18  143 1    
    40   19   20 am   BACKBONE|DICT|INTERRES
    41   19  144 1    
    42   20   21 2    
    43   20   22 1    
    44   22   23 1    
    45   22   24 1    
    46   22  145 1    
    47   23  146 1    
    48   23  147 1    
    49   23  148 1    
    50   24   25 am   BACKBONE|DICT|INTERRES
    51   24  149 1    
    52   25   26 2    
    53   25   27 1    
    54   27   28 1    
    55   27   29 1    
    56   27  150 1    
    57   28  151 1    
    58   28  152 1    
    59   28  153 1    
    60   29   30 am   BACKBONE|DICT|INTERRES
    61   29  154 1    
    62   30   31 2    
    63   30   32 1    
    64   32   33 1    
    65   32   34 1    
    66   32  155 1    
    67   33  156 1    
    68   33  157 1    
    69   33  158 1    
    70   34   35 am   BACKBONE|DICT|INTERRES
    71   34  159 1    
    72   35   36 2    
    73   35   37 1    
    74   37   38 1    
    75   37   39 1    
    76   37  160 1    
    77   38  161 1    
    78   38  162 1    
    79   38  163 1    
    80   39   40 am   BACKBONE|DICT|INTERRES
    81   39  164 1    
    82   40   41 2    
    83   40   42 1    
    84   42   43 1    
    85   42   44 1    
    86   42  165 1    
    87   43  166 1    
    88   43  167 1    
    89   43  168 1    
    90   44   45 am   BACKBONE|DICT|INTERRES
    91   44  169 1    
    92   45   46 2    
    93   45   47 1    
    94   47   48 1    
    95   47   49 1    
    96   47  170 1    
    97   48  171 1    
    98   48  172 1    
    99   48  173 1    
   100   49   50 am   BACKBONE|DICT|INTERRES
   101   49  174 1    
   102   50   51 2    
   103   50   52 1    
   104   52   53 1    
   105   52   54 1    
   106   52  175 1    
   107   53  176 1    
   108   53  177 1    
   109   53  178 1    
   110   54   55 am   BACKBONE|DICT|INTERRES
   111   54  179 1    
   112   55   56 2    
   113   55   57 1    
   114   57   58 1    
   115   57   59 1    
   116   57  180 1    
   117   58  181 1    
   118   58  182 1    
   119   58  183 1    
   120   59   60 am   BACKBONE|DICT|INTERRES
   121   59  184 1    
   122   60   61 2    
   123   60   62 1    
   124   62   63 1    
   125   62   64 1    
   126   62  185 1    
   127   63  186 1    
   128   63  187 1    
   129   63  188 1    
   130   64   65 am   BACKBONE|DICT|INTERRES
   131   64  189 1    
   132   65   66 2    
   133   67   68 2    
   134   67   69 am   BACKBONE|DICT|INTERRES
   135   69   70 1    
   136   69  190 1    
   137   70   71 1    
   138   70   72 1    
   139   70  191 1    
   140   71  192 1    
   141   71  193 1    
   142   71  194 1    
   143   72   73 2    
   144   72   74 am   BACKBONE|DICT|INTERRES
   145   74   75 1    
   146   74  195 1    
   147   75   76 1    
   148   75   77 1    
   149   75  196 1    
   150   76  197 1    
   151   76  198 1    
   152   76  199 1    
   153   77   78 2    
   154   77   79 am   BACKBONE|DICT|INTERRES
   155   79   80 1    
   156   79  200 1    
   157   80   81 1    
   158   80   82 1    
   159   80  201 1    
   160   81  202 1    
   161   81  203 1    
   162   81  204 1    
   163   82   83 2    
   164   82   84 am   BACKBONE|DICT|INTERRES
   165   84   85 1    
   166   84  205 1    
   167   85   86 1    
   168   85   87 1    
   169   85  206 1    
   170   86  207 1    
   171   86  208 1    
   172   86  209 1    
   173   87   88 2    
   174   87   89 am   BACKBONE|DICT|INTERRES
   175   89   90 1    
   176   89  210 1    
   177   90   91 1    
   178   90   92 1    
   179   90  211 1    
   180   91  212 1    
   181   91  213 1    
   182   91  214 1    
   183   92   93 2    
   184   92   94 am   BACKBONE|DICT|INTERRES
   185   94   95 1    
   186   94  215 1    
   187   95   96 1    
   188   95   97 1    
   189   95  216 1    
   190   96  217 1    
   191   96  218 1    
   192   96  219 1    
   193   97   98 2    
   194   97   99 am   BACKBONE|DICT|INTERRES
   195   99  100 1    
   196   99  220 1    
   197  100  101 1    
   198  100  102 1    
   199  100  221 1    
   200  101  222 1    
   201  101  223 1    
   202  101  224 1    
   203  102  103 2    
   204  102  104 am   BACKBONE|DICT|INTERRES
   205  104  105 1    
   206  104  225 1    
   207  105  106 1    
   208  105  107 1    
   209  105  226 1    
   210  106  227 1    
   211  106  228 1    
   212  106  229 1    
   213  107  108 2    
   214  107  109 am   BACKBONE|DICT|INTERRES
   215  109  110 1    
   216  109  230 1    
   217  110  111 1    
   218  110  112 1    
   219  110  231 1    
   220  111  232 1    
   221  111  233 1    
   222  111  234 1    
   223  112  113 2    
   224  112  114 am   BACKBONE|DICT|INTERRES
   225  114  115 1    
   226  114  235 1    
   227  115  116 1    
   228  115  117 1    
   229  115  236 1    
   230  116  237 1    
   231  116  238 1    
   232  116  239 1    
   233  117  118 2    
   234  117  119 am   BACKBONE|DICT|INTERRES
   235  119  120 1    
   236  119  240 1    
   237  120  121 1    
   238  120  124 1    
   239  120  241 1    
   240  121  122 am   BACKBONE|DICT|INTERRES
   241  121  123 2    
   242  122  242 1    
   243  122  243 1    
   244  124  125 1    
   245  124  244 1    
   246  124  245 1    
   247  125  126 1    
   248  126  246 1    
   249  126  247 1    
@<TRIPOS>SUBSTRUCTURE
     1 UNK         1 GROUP             0       ****    0 ROOT    
