@<TRIPOS>MOLECULE
3R540
247   249    1
SMALL
USER_CHARGES


@<TRIPOS>ATOM
      1 CA          4.2291  -15.7560  -50.4723 C.3       0 UNK        -0.1800 
      2 C           3.3761  -14.8027  -49.6476 C.2       0 UNK         0.5000 
      3 O           3.0887  -13.6943  -50.0985 O.2       0 UNK        -0.5000 
      4 N           2.9793  -15.2288  -48.4393 N.am      1 UNK        -0.5000 
      5 CA          2.1404  -14.4824  -47.4869 C.3       1 UNK         0.1400 
      6 C6          0.7458  -14.1169  -48.0739 C.3       23 UNK        -0.0398 
      7 S7         -0.5880  -14.2353  -46.8368 S.3       23 UNK        -0.2404 
      8 C8         -2.0803  -14.1039  -47.8775 C.3       23 UNK        -0.0205 
      9 C9         -2.2034  -15.2450  -48.8794 C.ar      23 UNK        -0.0193 
     10 C10        -2.2397  -14.9784  -50.2533 C.ar      23 UNK        -0.1150 
     11 C11        -2.3290  -16.0252  -51.1763 C.ar      23 UNK        -0.0193 
     12 C12        -2.3778  -17.3411  -50.7146 C.ar      23 UNK        -0.1150 
     13 C13        -2.3482  -17.6225  -49.3467 C.ar      23 UNK        -0.0193 
     14 C14        -2.2734  -16.5688  -48.4331 C.ar      23 UNK        -0.1150 
     15 C15        -2.3932  -19.0643  -48.8687 C.3       23 UNK        -0.0205 
     16 S16        -0.8985  -19.9764  -49.3794 S.3       23 UNK        -0.2404 
     17 C17        -0.0385  -20.1625  -47.7785 C.3       23 UNK        -0.0398 
     18 CA         -0.0895  -21.5818  -47.1512 C.3       11 UNK         0.1400 
     19 N           0.4024  -21.5593  -45.7723 N.am      11 UNK        -0.5000 
     20 C           0.6325  -22.6374  -45.0105 C.2       10 UNK         0.5000 
     21 O           0.4956  -23.7953  -45.4020 O.2       10 UNK        -0.5000 
     22 CA          1.0218  -22.3752  -43.5451 C.3       10 UNK         0.1400 
     23 CB          2.4908  -21.9415  -43.4353 C.3       10 UNK        -0.1800 
     24 N           0.1591  -21.3756  -42.9132 N.am      10 UNK        -0.5000 
     25 C          -1.1632  -21.5214  -42.7396 C.2       9 UNK         0.5000 
     26 O          -1.7860  -22.5387  -43.0451 O.2       9 UNK        -0.5000 
     27 CA         -1.9264  -20.3112  -42.1748 C.3       9 UNK         0.1400 
     28 CB         -1.7750  -20.2321  -40.6485 C.3       9 UNK        -0.1800 
     29 N          -1.4973  -19.0478  -42.7720 N.am      9 UNK        -0.5000 
     30 C          -1.6240  -18.7234  -44.0663 C.2       8 UNK         0.5000 
     31 O          -2.1467  -19.4479  -44.9114 O.2       8 UNK        -0.5000 
     32 CA         -1.0079  -17.3833  -44.4976 C.3       8 UNK         0.1400 
     33 CB         -1.8911  -16.2036  -44.0580 C.3       8 UNK        -0.1800 
     34 N           0.3472  -17.2226  -43.9723 N.am      8 UNK        -0.5000 
     35 C           1.3952  -17.9745  -44.3389 C.2       7 UNK         0.5000 
     36 O           1.3381  -18.8673  -45.1830 O.2       7 UNK        -0.5000 
     37 CA          2.7279  -17.7005  -43.6225 C.3       7 UNK         0.1400 
     38 CB          3.5163  -16.6205  -44.3769 C.3       7 UNK        -0.1800 
     39 N           2.5480  -17.3046  -42.2234 N.am      7 UNK        -0.5000 
     40 C           2.0604  -18.1127  -41.2713 C.2       6 UNK         0.5000 
     41 O           1.7391  -19.2855  -41.4679 O.2       6 UNK        -0.5000 
     42 CA          1.8287  -17.4806  -39.8863 C.3       6 UNK         0.1400 
     43 CB          3.1545  -17.2892  -39.1343 C.3       6 UNK        -0.1800 
     44 N           1.1031  -16.2065  -39.9509 N.am      6 UNK        -0.5000 
     45 C          -0.1392  -16.0693  -40.4365 C.2       5 UNK         0.5000 
     46 O          -0.7798  -17.0032  -40.9152 O.2       5 UNK        -0.5000 
     47 CA         -0.7886  -14.6717  -40.4101 C.3       5 UNK         0.1400 
     48 CB         -1.9848  -14.6662  -39.4459 C.3       5 UNK        -0.1800 
     49 N           0.1234  -13.5926  -40.0210 N.am      5 UNK        -0.5000 
     50 C           0.9974  -12.9280  -40.7901 C.2       4 UNK         0.5000 
     51 O           1.6652  -12.0018  -40.3279 O.2       4 UNK        -0.5000 
     52 CA          1.1671  -13.2999  -42.2847 C.3       4 UNK         0.1400 
     53 CB          0.2126  -12.4797  -43.1658 C.3       4 UNK        -0.1800 
     54 N           2.5388  -13.0670  -42.7377 N.am      4 UNK        -0.5000 
     55 C           3.6078  -13.7307  -42.2805 C.2       3 UNK         0.5000 
     56 O           3.5224  -14.7134  -41.5421 O.2       3 UNK        -0.5000 
     57 CA          4.9785  -13.2391  -42.7726 C.3       3 UNK         0.1400 
     58 CB          6.1398  -14.1470  -42.3272 C.3       3 UNK        -0.1800 
     59 N           4.9700  -13.1469  -44.2316 N.am      3 UNK        -0.5000 
     60 C           5.1420  -12.0247  -44.9397 C.2       2 UNK         0.5000 
     61 O           5.3459  -10.9190  -44.4374 O.2       2 UNK        -0.5000 
     62 CA          5.0666  -12.1567  -46.4725 C.3       2 UNK         0.1400 
     63 CB          6.4721  -12.3430  -47.0645 C.3       2 UNK        -0.1800 
     64 N           4.2106  -13.2552  -46.9297 N.am      2 UNK        -0.5000 
     65 C           2.8711  -13.2708  -46.8501 C.2       1 UNK         0.5000 
     66 O           2.2257  -12.3800  -46.2968 O.2       1 UNK        -0.5000 
     67 C          -1.4779  -22.2546  -47.2474 C.2       11 UNK         0.5000 
     68 O          -1.6723  -23.1210  -48.1023 O.2       11 UNK        -0.5000 
     69 N          -2.4074  -21.8710  -46.3613 N.am      12 UNK        -0.5000 
     70 CA         -3.7593  -22.4260  -46.2851 C.3       12 UNK         0.1400 
     71 CB         -4.5792  -21.6537  -45.2418 C.3       12 UNK        -0.1800 
     72 C          -3.7792  -23.9372  -45.9890 C.2       12 UNK         0.5000 
     73 O          -4.6023  -24.6527  -46.5591 O.2       12 UNK        -0.5000 
     74 N          -2.8584  -24.3974  -45.1333 N.am      13 UNK        -0.5000 
     75 CA         -2.6632  -25.8102  -44.8219 C.3       13 UNK         0.1400 
     76 CB         -1.8375  -25.9378  -43.5320 C.3       13 UNK        -0.1800 
     77 C          -2.0004  -26.5858  -45.9762 C.2       13 UNK         0.5000 
     78 O          -2.4718  -27.6688  -46.3255 O.2       13 UNK        -0.5000 
     79 N          -0.9067  -26.0392  -46.5242 N.am      14 UNK        -0.5000 
     80 CA         -0.0522  -26.7216  -47.4954 C.3       14 UNK         0.1400 
     81 CB          1.3501  -26.0928  -47.4711 C.3       14 UNK        -0.1800 
     82 C          -0.6091  -26.7198  -48.9285 C.2       14 UNK         0.5000 
     83 O          -0.5828  -27.7634  -49.5829 O.2       14 UNK        -0.5000 
     84 N          -1.0555  -25.5513  -49.4047 N.am      15 UNK        -0.5000 
     85 CA         -1.4007  -25.3098  -50.8082 C.3       15 UNK         0.1400 
     86 CB         -0.5084  -24.1740  -51.3372 C.3       15 UNK        -0.1800 
     87 C          -2.8780  -24.9443  -51.0138 C.2       15 UNK         0.5000 
     88 O          -3.3522  -25.0114  -52.1494 O.2       15 UNK        -0.5000 
     89 N          -3.5672  -24.5176  -49.9444 N.am      16 UNK        -0.5000 
     90 CA         -4.9523  -24.0282  -49.9391 C.3       16 UNK         0.1400 
     91 CB         -5.9384  -25.1804  -50.2227 C.3       16 UNK        -0.1800 
     92 C          -5.1467  -22.8221  -50.8818 C.2       16 UNK         0.5000 
     93 O          -6.1249  -22.7692  -51.6276 O.2       16 UNK        -0.5000 
     94 N          -4.1673  -21.9040  -50.8692 N.am      17 UNK        -0.5000 
     95 CA         -4.0405  -20.7465  -51.7635 C.3       17 UNK         0.1400 
     96 CB         -5.1576  -19.7134  -51.4988 C.3       17 UNK        -0.1800 
     97 C          -3.9423  -21.1528  -53.2466 C.2       17 UNK         0.5000 
     98 O          -4.5928  -20.5456  -54.0981 O.2       17 UNK        -0.5000 
     99 N          -3.1526  -22.2021  -53.5187 N.am      18 UNK        -0.5000 
    100 CA        -2.9770  -22.8568  -54.8209 C.3       18 UNK         0.1400 
    101 CB        -2.2436  -21.9215  -55.8053 C.3       18 UNK        -0.1800 
    102 C         -4.3131  -23.3957  -55.3752 C.2       18 UNK         0.5000 
    103 O         -4.6293  -23.1838  -56.5465 O.2       18 UNK        -0.5000 
    104 N         -5.0823  -24.0489  -54.4911 N.am      19 UNK        -0.5000 
    105 CA        -6.4652  -24.4978  -54.6821 C.3       19 UNK         0.1400 
    106 CB        -6.5373  -25.6363  -55.7213 C.3       19 UNK        -0.1800 
    107 C         -7.4218  -23.3231  -54.9884 C.2       19 UNK         0.5000 
    108 O         -8.1678  -23.3660  -55.9687 O.2       19 UNK        -0.5000 
    109 N         -7.3703  -22.2991  -54.1235 N.am      20 UNK        -0.5000 
    110 CA        -8.1654  -21.0674  -54.1331 C.3       20 UNK         0.1400 
    111 CB        -9.6339  -21.3795  -53.7766 C.3       20 UNK        -0.1800 
    112 C         -8.0166  -20.2507  -55.4341 C.2       20 UNK         0.5000 
    113 O         -9.0198  -19.9052  -56.0632 O.2       20 UNK        -0.5000 
    114 N         -6.7668  -19.9627  -55.8182 N.am      21 UNK        -0.5000 
    115 CA        -6.4327  -19.2421  -57.0491 C.3       21 UNK         0.1400 
    116 CB        -6.1257  -20.2595  -58.1607 C.3       21 UNK        -0.1800 
    117 C         -5.2686  -18.2474  -56.8941 C.2       21 UNK         0.5000 
    118 O         -5.2040  -17.2955  -57.6731 O.2       21 UNK        -0.5000 
    119 N         -4.3613  -18.4772  -55.9335 N.am      22 UNK        -0.5000 
    120 CA        -3.1144  -17.7158  -55.7115 C.3       22 UNK         0.1400 
    121 C         -2.0758  -17.7920  -56.8774 C.2       22 UNK         0.5000 
    122 N         -2.2018  -18.7135  -57.8248 N.am      22 UNK        -0.7600 
    123 O         -1.1111  -17.0326  -56.9072 O.2       22 UNK        -0.5000 
    124 C124       -3.3679  -16.2600  -55.2147 C.3       23 UNK        -0.0398 
    125 S125       -3.8970  -16.2203  -53.4686 S.3       23 UNK        -0.2404 
    126 C126       -2.3222  -15.7562  -52.6737 C.3       23 UNK        -0.0205 
    127 H127        4.4075  -16.6967  -49.9507 H         1 UNK         0.0600 
    128 H128        5.1946  -15.3007  -50.6925 H         1 UNK         0.0600 
    129 H129        3.7334  -15.9803  -51.4168 H         1 UNK         0.0600 
    130 H130        3.2516  -16.1545  -48.1386 H         1 UNK         0.3000 
    131 H131        1.9831  -15.1842  -46.6667 H         1 UNK         0.0600 
    132 H132        0.7428  -13.1234  -48.5260 H         1 UNK         0.0800 
    133 H133        0.4965  -14.8078  -48.8799 H         1 UNK         0.0800 
    134 H134       -2.9595  -14.1058  -47.2321 H         1 UNK         0.0800 
    135 H135       -2.0729  -13.1379  -48.3847 H         1 UNK         0.0800 
    136 H136       -2.1852  -13.9577  -50.6049 H         1 UNK         0.1150 
    137 H137       -2.4251  -18.1473  -51.4303 H         1 UNK         0.1150 
    138 H138       -2.2541  -16.7750  -47.3734 H         1 UNK         0.1150 
    139 H139       -2.5316  -19.1110  -47.7876 H         1 UNK         0.0800 
    140 H140       -3.2683  -19.5561  -49.2845 H         1 UNK         0.0800 
    141 H141       -0.4367  -19.4274  -47.0794 H         1 UNK         0.0800 
    142 H142        1.0032  -19.8749  -47.9265 H         1 UNK         0.0800 
    143 H143        0.5953  -22.2121  -47.7225 H         1 UNK         0.0600 
    144 H144        0.5753  -20.6391  -45.3779 H         1 UNK         0.3000 
    145 H145        0.9023  -23.3119  -42.9968 H         1 UNK         0.0600 
    146 H146        2.7874  -21.8156  -42.3939 H         1 UNK         0.0600 
    147 H147        3.1520  -22.6897  -43.8743 H         1 UNK         0.0600 
    148 H148        2.6734  -20.9989  -43.9508 H         1 UNK         0.0600 
    149 H149        0.6058  -20.5243  -42.5870 H         1 UNK         0.3000 
    150 H150       -2.9846  -20.4466  -42.4061 H         1 UNK         0.0600 
    151 H151       -2.3778  -19.4232  -40.2353 H         1 UNK         0.0600 
    152 H152       -2.1019  -21.1582  -40.1741 H         1 UNK         0.0600 
    153 H153       -0.7392  -20.0580  -40.3548 H         1 UNK         0.0600 
    154 H154       -1.0823  -18.3689  -42.1380 H         1 UNK         0.3000 
    155 H155       -0.9385  -17.3723  -45.5865 H         1 UNK         0.0600 
    156 H156       -2.1571  -16.2568  -43.0029 H         1 UNK         0.0600 
    157 H157       -2.8232  -16.1931  -44.6240 H         1 UNK         0.0600 
    158 H158       -1.3983  -15.2468  -44.2254 H         1 UNK         0.0600 
    159 H159        0.4747  -16.5546  -43.2298 H         1 UNK         0.3000 
    160 H160        3.3123  -18.6225  -43.6392 H         1 UNK         0.0600 
    161 H161        2.9782  -15.6730  -44.3990 H         1 UNK         0.0600 
    162 H162        3.6965  -16.9203  -45.4101 H         1 UNK         0.0600 
    163 H163        4.4886  -16.4527  -43.9161 H         1 UNK         0.0600 
    164 H164        2.8305  -16.3617  -41.9632 H         1 UNK         0.3000 
    165 H165        1.2158  -18.1774  -39.3105 H         1 UNK         0.0600 
    166 H166        2.9828  -16.9329  -38.1185 H         1 UNK         0.0600 
    167 H167        3.6992  -18.2313  -39.0595 H         1 UNK         0.0600 
    168 H168        3.8069  -16.5730  -39.6342 H         1 UNK         0.0600 
    169 H169        1.5835  -15.3911  -39.5985 H         1 UNK         0.3000 
    170 H170       -1.1781  -14.4748  -41.4095 H         1 UNK         0.0600 
    171 H171       -2.7160  -15.4278  -39.7212 H         1 UNK         0.0600 
    172 H172       -1.6759  -14.8647  -38.4187 H         1 UNK         0.0600 
    173 H173       -2.5003  -13.7057  -39.4620 H         1 UNK         0.0600 
    174 H174        0.0554  -13.3135  -39.0532 H         1 UNK         0.3000 
    175 H175        0.9576  -14.3582  -42.4366 H         1 UNK         0.0600 
    176 H176        0.4132  -11.4105  -43.0872 H         1 UNK         0.0600 
    177 H177        0.3072  -12.7603  -44.2150 H         1 UNK         0.0600 
    178 H178       -0.8280  -12.6383  -42.8822 H         1 UNK         0.0600 
    179 H179        2.6843  -12.2800  -43.3538 H         1 UNK         0.3000 
    180 H180        5.1331  -12.2570  -42.3215 H         1 UNK         0.0600 
    181 H181        6.0423  -15.1581  -42.7216 H         1 UNK         0.0600 
    182 H182        6.1835  -14.2211  -41.2399 H         1 UNK         0.0600 
    183 H183        7.0977  -13.7495  -42.6628 H         1 UNK         0.0600 
    184 H184        4.7820  -14.0010  -44.7351 H         1 UNK         0.3000 
    185 H185        4.6553  -11.2229  -46.8618 H         1 UNK         0.0600 
    186 H186        7.1319  -11.5259  -46.7696 H         1 UNK         0.0600 
    187 H187        6.9312  -13.2734  -46.7278 H         1 UNK         0.0600 
    188 H188        6.4425  -12.3573  -48.1543 H         1 UNK         0.0600 
    189 H189        4.6677  -14.0175  -47.4080 H         1 UNK         0.3000 
    190 H190       -2.1921  -21.1156  -45.7141 H         1 UNK         0.3000 
    191 H191       -4.2275  -22.2715  -47.2584 H         1 UNK         0.0600 
    192 H192       -4.6408  -20.5949  -45.4940 H         1 UNK         0.0600 
    193 H193       -5.5997  -22.0346  -45.1862 H         1 UNK         0.0600 
    194 H194       -4.1429  -21.7360  -44.2464 H         1 UNK         0.0600 
    195 H195       -2.2518  -23.7340  -44.6624 H         1 UNK         0.3000 
    196 H196       -3.6416  -26.2591  -44.6371 H         1 UNK         0.0600 
    197 H197       -1.6835  -26.9847  -43.2676 H         1 UNK         0.0600 
    198 H198       -2.3443  -25.4608  -42.6929 H         1 UNK         0.0600 
    199 H199       -0.8551  -25.4751  -43.6324 H         1 UNK         0.0600 
    200 H200       -0.5599  -25.1548  -46.1600 H         1 UNK         0.3000 
    201 H201        0.0525  -27.7636  -47.1849 H         1 UNK         0.0600 
    202 H202        1.7953  -26.1618  -46.4784 H         1 UNK         0.0600 
    203 H203        1.3248  -25.0393  -47.7531 H         1 UNK         0.0600 
    204 H204        2.0204  -26.6026  -48.1643 H         1 UNK         0.0600 
    205 H205       -1.0848  -24.7409  -48.7906 H         1 UNK         0.3000 
    206 H206       -1.2090  -26.1977  -51.4139 H         1 UNK         0.0600 
    207 H207        0.5472  -24.4307  -51.2466 H         1 UNK         0.0600 
    208 H208       -0.7025  -23.9782  -52.3925 H         1 UNK         0.0600 
    209 H209       -0.6725  -23.2434  -50.7917 H         1 UNK         0.0600 
    210 H210       -3.0698  -24.4432  -49.0656 H         1 UNK         0.3000 
    211 H211       -5.1587  -23.6606  -48.9354 H         1 UNK         0.0600 
    212 H212       -5.8293  -25.5724  -51.2342 H         1 UNK         0.0600 
    213 H213       -6.9708  -24.8471  -50.1113 H         1 UNK         0.0600 
    214 H214       -5.7878  -26.0044  -49.5251 H         1 UNK         0.0600 
    215 H215       -3.3950  -22.0558  -50.2350 H         1 UNK         0.3000 
    216 H216       -3.0844  -20.2827  -51.5290 H         1 UNK         0.0600 
    217 H217       -4.9964  -18.8052  -52.0806 H         1 UNK         0.0600 
    218 H218       -5.1997  -19.4211  -50.4509 H         1 UNK         0.0600 
    219 H219       -6.1390  -20.1009  -51.7656 H         1 UNK         0.0600 
    220 H220       -2.7080  -22.6675  -52.7416 H         1 UNK         0.3000 
    221 H221       -2.3403  -23.7262  -54.6502 H         1 UNK         0.0600 
    222 H222       -2.8513  -21.0580  -56.0740 H         1 UNK         0.0600 
    223 H223       -1.3095  -21.5544  -55.3806 H         1 UNK         0.0600 
    224 H224       -1.9966  -22.4451  -56.7294 H         1 UNK         0.0600 
    225 H225       -4.7010  -24.1926  -53.5619 H         1 UNK         0.3000 
    226 H226       -6.7855  -24.9097  -53.7239 H         1 UNK         0.0600 
    227 H227       -5.8679  -26.4544  -55.4556 H         1 UNK         0.0600 
    228 H228       -7.5458  -26.0475  -55.7773 H         1 UNK         0.0600 
    229 H229       -6.2692  -25.2945  -56.7212 H         1 UNK         0.0600 
    230 H230       -6.7468  -22.3967  -53.3246 H         1 UNK         0.3000 
    231 H231       -7.7676  -20.4384  -53.3376 H         1 UNK         0.0600 
    232 H232      -10.1148  -21.9937  -54.5385 H         1 UNK         0.0600 
    233 H233      -10.2160  -20.4625  -53.6789 H         1 UNK         0.0600 
    234 H234       -9.7031  -21.9091  -52.8264 H         1 UNK         0.0600 
    235 H235       -5.9937  -20.2746  -55.2346 H         1 UNK         0.3000 
    236 H236       -7.2898  -18.6442  -57.3661 H         1 UNK         0.0600 
    237 H237       -6.9782  -20.9144  -58.3423 H         1 UNK         0.0600 
    238 H238       -5.8941  -19.7580  -59.1012 H         1 UNK         0.0600 
    239 H239       -5.2726  -20.8876  -57.9022 H         1 UNK         0.0600 
    240 H240       -4.4858  -19.2726  -55.3117 H         1 UNK         0.3000 
    241 H241       -2.6078  -18.2463  -54.9043 H         1 UNK         0.0600 
    242 H242       -2.9792  -19.3524  -57.8209 H         1 UNK         0.3800 
    243 H243       -1.5168  -18.7597  -58.5627 H         1 UNK         0.3800 
    244 H244       -4.1244  -15.7640  -55.8227 H         1 UNK         0.0800 
    245 H245       -2.4763  -15.6385  -55.3069 H         1 UNK         0.0800 
    246 H246       -1.5062  -16.3254  -53.1218 H         1 UNK         0.0800 
    247 H247       -2.1153  -14.7046  -52.8785 H         1 UNK         0.0800 
@<TRIPOS>BOND
     1    1    2 1    
     2    1  127 1    
     3    1  128 1    
     4    1  129 1    
     5    2    3 2    
     6    2    4 am   BACKBONE|DICT|INTERRES
     7    4    5 1    
     8    4  130 1    
     9    5    6 1    
    10    5   65 1    
    11    5  131 1    
    12    6    7 1    
    13    6  132 1    
    14    6  133 1    
    15    7    8 1    
    16    8    9 1    
    17    8  134 1    
    18    8  135 1    
    19    9   10 ar   
    20    9   14 ar   
    21   10   11 ar   
    22   10  136 1    
    23   11   12 ar   
    24   11  126 1    
    25   12   13 ar   
    26   12  137 1    
    27   13   14 ar   
    28   13   15 1    
    29   14  138 1    
    30   15   16 1    
    31   15  139 1    
    32   15  140 1    
    33   16   17 1    
    34   17   18 1    
    35   17  141 1    
    36   17  142 1    
    37   18   19 1    
    38   18   67 1    
    39   18  143 1    
    40   19   20 am   BACKBONE|DICT|INTERRES
    41   19  144 1    
    42   20   21 2    
    43   20   22 1    
    44   22   23 1    
    45   22   24 1    
    46   22  145 1    
    47   23  146 1    
    48   23  147 1    
    49   23  148 1    
    50   24   25 am   BACKBONE|DICT|INTERRES
    51   24  149 1    
    52   25   26 2    
    53   25   27 1    
    54   27   28 1    
    55   27   29 1    
    56   27  150 1    
    57   28  151 1    
    58   28  152 1    
    59   28  153 1    
    60   29   30 am   BACKBONE|DICT|INTERRES
    61   29  154 1    
    62   30   31 2    
    63   30   32 1    
    64   32   33 1    
    65   32   34 1    
    66   32  155 1    
    67   33  156 1    
    68   33  157 1    
    69   33  158 1    
    70   34   35 am   BACKBONE|DICT|INTERRES
    71   34  159 1    
    72   35   36 2    
    73   35   37 1    
    74   37   38 1    
    75   37   39 1    
    76   37  160 1    
    77   38  161 1    
    78   38  162 1    
    79   38  163 1    
    80   39   40 am   BACKBONE|DICT|INTERRES
    81   39  164 1    
    82   40   41 2    
    83   40   42 1    
    84   42   43 1    
    85   42   44 1    
    86   42  165 1    
    87   43  166 1    
    88   43  167 1    
    89   43  168 1    
    90   44   45 am   BACKBONE|DICT|INTERRES
    91   44  169 1    
    92   45   46 2    
    93   45   47 1    
    94   47   48 1    
    95   47   49 1    
    96   47  170 1    
    97   48  171 1    
    98   48  172 1    
    99   48  173 1    
   100   49   50 am   BACKBONE|DICT|INTERRES
   101   49  174 1    
   102   50   51 2    
   103   50   52 1    
   104   52   53 1    
   105   52   54 1    
   106   52  175 1    
   107   53  176 1    
   108   53  177 1    
   109   53  178 1    
   110   54   55 am   BACKBONE|DICT|INTERRES
   111   54  179 1    
   112   55   56 2    
   113   55   57 1    
   114   57   58 1    
   115   57   59 1    
   116   57  180 1    
   117   58  181 1    
   118   58  182 1    
   119   58  183 1    
   120   59   60 am   BACKBONE|DICT|INTERRES
   121   59  184 1    
   122   60   61 2    
   123   60   62 1    
   124   62   63 1    
   125   62   64 1    
   126   62  185 1    
   127   63  186 1    
   128   63  187 1    
   129   63  188 1    
   130   64   65 am   BACKBONE|DICT|INTERRES
   131   64  189 1    
   132   65   66 2    
   133   67   68 2    
   134   67   69 am   BACKBONE|DICT|INTERRES
   135   69   70 1    
   136   69  190 1    
   137   70   71 1    
   138   70   72 1    
   139   70  191 1    
   140   71  192 1    
   141   71  193 1    
   142   71  194 1    
   143   72   73 2    
   144   72   74 am   BACKBONE|DICT|INTERRES
   145   74   75 1    
   146   74  195 1    
   147   75   76 1    
   148   75   77 1    
   149   75  196 1    
   150   76  197 1    
   151   76  198 1    
   152   76  199 1    
   153   77   78 2    
   154   77   79 am   BACKBONE|DICT|INTERRES
   155   79   80 1    
   156   79  200 1    
   157   80   81 1    
   158   80   82 1    
   159   80  201 1    
   160   81  202 1    
   161   81  203 1    
   162   81  204 1    
   163   82   83 2    
   164   82   84 am   BACKBONE|DICT|INTERRES
   165   84   85 1    
   166   84  205 1    
   167   85   86 1    
   168   85   87 1    
   169   85  206 1    
   170   86  207 1    
   171   86  208 1    
   172   86  209 1    
   173   87   88 2    
   174   87   89 am   BACKBONE|DICT|INTERRES
   175   89   90 1    
   176   89  210 1    
   177   90   91 1    
   178   90   92 1    
   179   90  211 1    
   180   91  212 1    
   181   91  213 1    
   182   91  214 1    
   183   92   93 2    
   184   92   94 am   BACKBONE|DICT|INTERRES
   185   94   95 1    
   186   94  215 1    
   187   95   96 1    
   188   95   97 1    
   189   95  216 1    
   190   96  217 1    
   191   96  218 1    
   192   96  219 1    
   193   97   98 2    
   194   97   99 am   BACKBONE|DICT|INTERRES
   195   99  100 1    
   196   99  220 1    
   197  100  101 1    
   198  100  102 1    
   199  100  221 1    
   200  101  222 1    
   201  101  223 1    
   202  101  224 1    
   203  102  103 2    
   204  102  104 am   BACKBONE|DICT|INTERRES
   205  104  105 1    
   206  104  225 1    
   207  105  106 1    
   208  105  107 1    
   209  105  226 1    
   210  106  227 1    
   211  106  228 1    
   212  106  229 1    
   213  107  108 2    
   214  107  109 am   BACKBONE|DICT|INTERRES
   215  109  110 1    
   216  109  230 1    
   217  110  111 1    
   218  110  112 1    
   219  110  231 1    
   220  111  232 1    
   221  111  233 1    
   222  111  234 1    
   223  112  113 2    
   224  112  114 am   BACKBONE|DICT|INTERRES
   225  114  115 1    
   226  114  235 1    
   227  115  116 1    
   228  115  117 1    
   229  115  236 1    
   230  116  237 1    
   231  116  238 1    
   232  116  239 1    
   233  117  118 2    
   234  117  119 am   BACKBONE|DICT|INTERRES
   235  119  120 1    
   236  119  240 1    
   237  120  121 1    
   238  120  124 1    
   239  120  241 1    
   240  121  122 am   BACKBONE|DICT|INTERRES
   241  121  123 2    
   242  122  242 1    
   243  122  243 1    
   244  124  125 1    
   245  124  244 1    
   246  124  245 1    
   247  125  126 1    
   248  126  246 1    
   249  126  247 1    
@<TRIPOS>SUBSTRUCTURE
     1 UNK         1 GROUP             0       ****    0 ROOT    
