@<TRIPOS>MOLECULE
3R540
247   249    1
SMALL
USER_CHARGES


@<TRIPOS>ATOM
      1 CA          0.8969   -9.3111  -47.4388 C.3       0 UNK        -0.1800 
      2 C           1.1924  -10.7652  -47.1046 C.2       0 UNK         0.5000 
      3 O           0.8817  -11.2152  -46.0005 O.2       0 UNK        -0.5000 
      4 N           1.7743  -11.5097  -48.0558 N.am      1 UNK        -0.5000 
      5 CA          2.1407  -12.9260  -47.9164 C.3       1 UNK         0.1400 
      6 C6          2.9480  -13.4601  -49.1268 C.3       23 UNK        -0.0398 
      7 S7          2.1085  -13.2645  -50.7410 S.3       23 UNK        -0.2404 
      8 C8          2.4005  -14.8825  -51.5286 C.3       23 UNK        -0.0205 
      9 C9          1.5544  -15.9948  -50.9238 C.ar      23 UNK        -0.0193 
     10 C10         0.1762  -16.0336  -51.1609 C.ar      23 UNK        -0.1150 
     11 C11        -0.6097  -17.0582  -50.6257 C.ar      23 UNK        -0.0193 
     12 C12         0.0018  -18.0520  -49.8578 C.ar      23 UNK        -0.1150 
     13 C13         1.3737  -18.0253  -49.6043 C.ar      23 UNK        -0.0193 
     14 C14         2.1479  -16.9935  -50.1433 C.ar      23 UNK        -0.1150 
     15 C15         1.9907  -19.0627  -48.6775 C.3       23 UNK        -0.0205 
     16 S16         1.7967  -20.7783  -49.2558 S.3       23 UNK        -0.2404 
     17 C17         1.9361  -21.6605  -47.6488 C.3       23 UNK        -0.0398 
     18 CA          0.6226  -22.1052  -46.9233 C.3       11 UNK         0.1400 
     19 N           0.7530  -22.0473  -45.4608 N.am      11 UNK        -0.5000 
     20 C          -0.1092  -22.5831  -44.5816 C.2       10 UNK         0.5000 
     21 O          -1.1339  -23.1740  -44.9237 O.2       10 UNK        -0.5000 
     22 CA          0.1726  -22.3715  -43.0781 C.3       10 UNK         0.1400 
     23 CB         -0.0581  -23.6490  -42.2463 C.3       10 UNK        -0.1800 
     24 N           1.4768  -21.7558  -42.8040 N.am      10 UNK        -0.5000 
     25 C           2.6960  -22.3000  -42.9202 C.2       9 UNK         0.5000 
     26 O           2.8981  -23.4837  -43.1895 O.2       9 UNK        -0.5000 
     27 CA          3.9012  -21.3578  -42.7584 C.3       9 UNK         0.1400 
     28 CB          4.4224  -20.9213  -44.1387 C.3       9 UNK        -0.1800 
     29 N           3.6075  -20.1563  -41.9662 N.am      9 UNK        -0.5000 
     30 C           4.3985  -19.7010  -40.9845 C.2       8 UNK         0.5000 
     31 O           5.4051  -20.2924  -40.5909 O.2       8 UNK        -0.5000 
     32 CA          4.0439  -18.3481  -40.3381 C.3       8 UNK         0.1400 
     33 CB          4.8178  -17.2069  -41.0162 C.3       8 UNK        -0.1800 
     34 N           2.6156  -18.0244  -40.3246 N.am      8 UNK        -0.5000 
     35 C           1.7401  -18.5851  -39.4764 C.2       7 UNK         0.5000 
     36 O           2.0121  -19.5354  -38.7421 O.2       7 UNK        -0.5000 
     37 CA          0.3360  -17.9626  -39.4126 C.3       7 UNK         0.1400 
     38 CB          0.3655  -16.6438  -38.6238 C.3       7 UNK        -0.1800 
     39 N          -0.1926  -17.7082  -40.7475 N.am      7 UNK        -0.5000 
     40 C          -0.9403  -18.5739  -41.4441 C.2       6 UNK         0.5000 
     41 O          -1.3223  -19.6617  -41.0142 O.2       6 UNK        -0.5000 
     42 CA         -1.2884  -18.1650  -42.8870 C.3       6 UNK         0.1400 
     43 CB         -2.5749  -17.3243  -42.9060 C.3       6 UNK        -0.1800 
     44 N          -0.1986  -17.4249  -43.5296 N.am      6 UNK        -0.5000 
     45 C           1.0167  -17.9362  -43.7746 C.2       5 UNK         0.5000 
     46 O           1.3071  -19.1141  -43.5763 O.2       5 UNK        -0.5000 
     47 CA          2.1131  -16.9905  -44.2830 C.3       5 UNK         0.1400 
     48 CB          2.4433  -17.2822  -45.7486 C.3       5 UNK        -0.1800 
     49 N           1.7906  -15.5751  -44.1132 N.am      5 UNK        -0.5000 
     50 C           1.8041  -14.9453  -42.9311 C.2       4 UNK         0.5000 
     51 O           1.9912  -15.5235  -41.8574 O.2       4 UNK        -0.5000 
     52 CA          1.5469  -13.4293  -42.9541 C.3       4 UNK         0.1400 
     53 CB          2.7908  -12.6783  -43.4527 C.3       4 UNK        -0.1800 
     54 N           0.3952  -13.0468  -43.7716 N.am      4 UNK        -0.5000 
     55 C          -0.8784  -13.3381  -43.4721 C.2       3 UNK         0.5000 
     56 O          -1.2131  -14.0346  -42.5142 O.2       3 UNK        -0.5000 
     57 CA         -1.9565  -12.7537  -44.3983 C.3       3 UNK         0.1400 
     58 CB         -2.1267  -11.2442  -44.1624 C.3       3 UNK        -0.1800 
     59 N          -1.6205  -12.9955  -45.7992 N.am      3 UNK        -0.5000 
     60 C          -2.0401  -14.0594  -46.4975 C.2       2 UNK         0.5000 
     61 O          -2.8342  -14.8883  -46.0550 O.2       2 UNK        -0.5000 
     62 CA         -1.4869  -14.2402  -47.9277 C.3       2 UNK         0.1400 
     63 CB         -2.5192  -13.7892  -48.9713 C.3       2 UNK        -0.1800 
     64 N          -0.2274  -13.5375  -48.1735 N.am      2 UNK        -0.5000 
     65 C           0.9370  -13.8277  -47.5777 C.2       1 UNK         0.5000 
     66 O           1.0667  -14.7086  -46.7318 O.2       1 UNK        -0.5000 
     67 C          -0.6629  -21.3865  -47.3865 C.2       11 UNK         0.5000 
     68 O          -1.4062  -21.9381  -48.1953 O.2       11 UNK        -0.5000 
     69 N          -0.9312  -20.1982  -46.8273 N.am      12 UNK        -0.5000 
     70 CA         -2.1182  -19.4043  -47.1499 C.3       12 UNK         0.1400 
     71 CB         -1.8547  -17.9368  -46.8016 C.3       12 UNK        -0.1800 
     72 C          -3.3956  -19.9207  -46.4666 C.2       12 UNK         0.5000 
     73 O          -4.4862  -19.6800  -46.9817 O.2       12 UNK        -0.5000 
     74 N          -3.2467  -20.6612  -45.3584 N.am      13 UNK        -0.5000 
     75 CA         -4.3455  -21.3645  -44.6917 C.3       13 UNK         0.1400 
     76 CB         -3.9154  -21.7760  -43.2750 C.3       13 UNK        -0.1800 
     77 C          -4.8132  -22.5813  -45.5143 C.2       13 UNK         0.5000 
     78 O          -6.0153  -22.8249  -45.6168 O.2       13 UNK        -0.5000 
     79 N          -3.8533  -23.2863  -46.1298 N.am      14 UNK        -0.5000 
     80 CA         -4.0837  -24.3660  -47.0920 C.3       14 UNK         0.1400 
     81 CB         -2.8254  -25.2481  -47.1384 C.3       14 UNK        -0.1800 
     82 C          -4.4254  -23.8593  -48.5097 C.2       14 UNK         0.5000 
     83 O          -4.7718  -24.6720  -49.3677 O.2       14 UNK        -0.5000 
     84 N          -4.2726  -22.5480  -48.7473 N.am      15 UNK        -0.5000 
     85 CA         -4.4028  -21.8400  -50.0260 C.3       15 UNK         0.1400 
     86 CB         -5.8803  -21.7707  -50.4599 C.3       15 UNK        -0.1800 
     87 C          -3.4748  -22.4144  -51.1178 C.2       15 UNK         0.5000 
     88 O          -3.9054  -22.6216  -52.2514 O.2       15 UNK        -0.5000 
     89 N          -2.2266  -22.7135  -50.7282 N.am      16 UNK        -0.5000 
     90 CA         -1.1806  -23.3751  -51.5148 C.3       16 UNK         0.1400 
     91 CB         -0.6222  -22.4190  -52.5853 C.3       16 UNK        -0.1800 
     92 C          -1.6417  -24.7353  -52.0839 C.2       16 UNK         0.5000 
     93 O          -1.4299  -25.0222  -53.2630 O.2       16 UNK        -0.5000 
     94 N          -2.2855  -25.5299  -51.2151 N.am      17 UNK        -0.5000 
     95 CA         -2.9447  -26.8100  -51.4910 C.3       17 UNK         0.1400 
     96 CB         -1.9388  -27.8720  -51.9846 C.3       17 UNK        -0.1800 
     97 C          -4.1694  -26.6387  -52.4135 C.2       17 UNK         0.5000 
     98 O          -4.2785  -27.3134  -53.4392 O.2       17 UNK        -0.5000 
     99 N          -5.0727  -25.7363  -52.0032 N.am      18 UNK        -0.5000 
    100 CA        -6.3559  -25.4028  -52.6306 C.3       18 UNK         0.1400 
    101 CB        -7.3415  -26.5824  -52.4942 C.3       18 UNK        -0.1800 
    102 C         -6.2293  -24.8852  -54.0798 C.2       18 UNK         0.5000 
    103 O         -7.0364  -25.2468  -54.9393 O.2       18 UNK        -0.5000 
    104 N         -5.2238  -24.0391  -54.3268 N.am      19 UNK        -0.5000 
    105 CA        -5.0135  -23.3533  -55.5968 C.3       19 UNK         0.1400 
    106 CB        -3.5095  -23.1126  -55.7867 C.3       19 UNK        -0.1800 
    107 C         -5.7883  -22.0251  -55.6080 C.2       19 UNK         0.5000 
    108 O         -5.8765  -21.3536  -54.5759 O.2       19 UNK        -0.5000 
    109 N         -6.3213  -21.6563  -56.7804 N.am      20 UNK        -0.5000 
    110 CA        -7.0699  -20.4192  -57.0126 C.3       20 UNK         0.1400 
    111 CB        -7.6192  -20.4212  -58.4481 C.3       20 UNK        -0.1800 
    112 C         -6.1923  -19.1819  -56.7529 C.2       20 UNK         0.5000 
    113 O         -5.2159  -18.9701  -57.4757 O.2       20 UNK        -0.5000 
    114 N         -6.5163  -18.4384  -55.6847 N.am      21 UNK        -0.5000 
    115 CA        -5.7714  -17.2886  -55.1514 C.3       21 UNK         0.1400 
    116 CB        -5.9048  -16.0779  -56.0987 C.3       21 UNK        -0.1800 
    117 C         -4.3001  -17.6191  -54.8051 C.2       21 UNK         0.5000 
    118 O         -3.4281  -16.7597  -54.9432 O.2       21 UNK        -0.5000 
    119 N         -4.0564  -18.8710  -54.3915 N.am      22 UNK        -0.5000 
    120 CA        -2.7336  -19.4781  -54.1647 C.3       22 UNK         0.1400 
    121 C         -1.9093  -19.7363  -55.4651 C.2       22 UNK         0.5000 
    122 N         -2.4789  -19.6307  -56.6607 N.am      22 UNK        -0.7600 
    123 O         -0.7306  -20.0719  -55.3954 O.2       22 UNK        -0.5000 
    124 C124       -1.8882  -18.7692  -53.0687 C.3       23 UNK        -0.0398 
    125 S125       -2.7420  -18.6660  -51.4606 S.3       23 UNK        -0.2404 
    126 C126       -2.1192  -17.0684  -50.8443 C.3       23 UNK        -0.0205 
    127 H127        1.2082   -9.0565  -48.4521 H         1 UNK         0.0600 
    128 H128        1.4217   -8.6543  -46.7452 H         1 UNK         0.0600 
    129 H129       -0.1720   -9.1172  -47.3512 H         1 UNK         0.0600 
    130 H130        1.9891  -11.0928  -48.9508 H         1 UNK         0.3000 
    131 H131        2.8050  -12.9801  -47.0513 H         1 UNK         0.0600 
    132 H132        3.8987  -12.9289  -49.1863 H         1 UNK         0.0800 
    133 H133        3.2127  -14.5067  -48.9680 H         1 UNK         0.0800 
    134 H134        2.1642  -14.7999  -52.5903 H         1 UNK         0.0800 
    135 H135        3.4628  -15.1260  -51.4744 H         1 UNK         0.0800 
    136 H136       -0.2830  -15.2564  -51.7556 H         1 UNK         0.1150 
    137 H137       -0.5920  -18.8513  -49.4458 H         1 UNK         0.1150 
    138 H138        3.2101  -16.9610  -49.9458 H         1 UNK         0.1150 
    139 H139        3.0478  -18.8576  -48.5013 H         1 UNK         0.0800 
    140 H140        1.4869  -18.9743  -47.7181 H         1 UNK         0.0800 
    141 H141        2.5354  -21.0347  -46.9861 H         1 UNK         0.0800 
    142 H142        2.5554  -22.5421  -47.8187 H         1 UNK         0.0800 
    143 H143        0.4692  -23.1568  -47.1767 H         1 UNK         0.0600 
    144 H144        1.5516  -21.5558  -45.0898 H         1 UNK         0.3000 
    145 H145       -0.5651  -21.6400  -42.7475 H         1 UNK         0.0600 
    146 H146        0.1535  -23.4759  -41.1912 H         1 UNK         0.0600 
    147 H147       -1.0957  -23.9770  -42.3182 H         1 UNK         0.0600 
    148 H148        0.5644  -24.4770  -42.5852 H         1 UNK         0.0600 
    149 H149        1.4324  -20.7482  -42.6922 H         1 UNK         0.3000 
    150 H150        4.6799  -21.9522  -42.2762 H         1 UNK         0.0600 
    151 H151        4.6452  -21.7840  -44.7681 H         1 UNK         0.0600 
    152 H152        5.3419  -20.3432  -44.0454 H         1 UNK         0.0600 
    153 H153        3.6944  -20.3055  -44.6670 H         1 UNK         0.0600 
    154 H154        2.7998  -19.6118  -42.2405 H         1 UNK         0.3000 
    155 H155        4.3824  -18.3940  -39.3004 H         1 UNK         0.0600 
    156 H156        5.8934  -17.3791  -40.9603 H         1 UNK         0.0600 
    157 H157        4.6173  -16.2508  -40.5322 H         1 UNK         0.0600 
    158 H158        4.5596  -17.1092  -42.0692 H         1 UNK         0.0600 
    159 H159        2.3295  -17.2164  -40.8687 H         1 UNK         0.3000 
    160 H160       -0.3180  -18.6565  -38.8798 H         1 UNK         0.0600 
    161 H161        0.9907  -15.8935  -39.1098 H         1 UNK         0.0600 
    162 H162        0.7587  -16.7987  -37.6182 H         1 UNK         0.0600 
    163 H163       -0.6362  -16.2264  -38.5201 H         1 UNK         0.0600 
    164 H164        0.0923  -16.8455  -41.1916 H         1 UNK         0.3000 
    165 H165       -1.4633  -19.0764  -43.4617 H         1 UNK         0.0600 
    166 H166       -2.8467  -17.0140  -43.9142 H         1 UNK         0.0600 
    167 H167       -3.4148  -17.8943  -42.5070 H         1 UNK         0.0600 
    168 H168       -2.4753  -16.4236  -42.2996 H         1 UNK         0.0600 
    169 H169       -0.3522  -16.4423  -43.7066 H         1 UNK         0.3000 
    170 H170        3.0104  -17.2040  -43.7024 H         1 UNK         0.0600 
    171 H171        2.8183  -18.2989  -45.8658 H         1 UNK         0.0600 
    172 H172        1.5615  -17.1738  -46.3790 H         1 UNK         0.0600 
    173 H173        3.2120  -16.6077  -46.1261 H         1 UNK         0.0600 
    174 H174        1.5669  -15.0620  -44.9633 H         1 UNK         0.3000 
    175 H175        1.3504  -13.1135  -41.9274 H         1 UNK         0.0600 
    176 H176        3.0190  -12.9210  -44.4912 H         1 UNK         0.0600 
    177 H177        2.6511  -11.5991  -43.3867 H         1 UNK         0.0600 
    178 H178        3.6672  -12.9306  -42.8543 H         1 UNK         0.0600 
    179 H179        0.5858  -12.4535  -44.5747 H         1 UNK         0.3000 
    180 H180       -2.9063  -13.2334  -44.1517 H         1 UNK         0.0600 
    181 H181       -1.2148  -10.6889  -44.3833 H         1 UNK         0.0600 
    182 H182       -2.3904  -11.0405  -43.1239 H         1 UNK         0.0600 
    183 H183       -2.9234  -10.8377  -44.7855 H         1 UNK         0.0600 
    184 H184       -0.9303  -12.3809  -46.2114 H         1 UNK         0.3000 
    185 H185       -1.3012  -15.3053  -48.0738 H         1 UNK         0.0600 
    186 H186       -3.4596  -14.3281  -48.8485 H         1 UNK         0.0600 
    187 H187       -2.7364  -12.7238  -48.8872 H         1 UNK         0.0600 
    188 H188       -2.1657  -13.9822  -49.9844 H         1 UNK         0.0600 
    189 H189       -0.2464  -12.7846  -48.8458 H         1 UNK         0.3000 
    190 H190       -0.2893  -19.8172  -46.1487 H         1 UNK         0.3000 
    191 H191       -2.3009  -19.4653  -48.2243 H         1 UNK         0.0600 
    192 H192       -0.9528  -17.5625  -47.2837 H         1 UNK         0.0600 
    193 H193       -2.6859  -17.3122  -47.1294 H         1 UNK         0.0600 
    194 H194       -1.7365  -17.7933  -45.7318 H         1 UNK         0.0600 
    195 H195       -2.3145  -20.8574  -45.0301 H         1 UNK         0.3000 
    196 H196       -5.1889  -20.6766  -44.5998 H         1 UNK         0.0600 
    197 H197       -4.7473  -22.2309  -42.7363 H         1 UNK         0.0600 
    198 H198       -3.5858  -20.9138  -42.6947 H         1 UNK         0.0600 
    199 H199       -3.1032  -22.5021  -43.2882 H         1 UNK         0.0600 
    200 H200       -2.8828  -23.0692  -45.9267 H         1 UNK         0.3000 
    201 H201       -4.9211  -24.9769  -46.7490 H         1 UNK         0.0600 
    202 H202       -2.5887  -25.6476  -46.1520 H         1 UNK         0.0600 
    203 H203       -1.9561  -24.6892  -47.4878 H         1 UNK         0.0600 
    204 H204       -2.9632  -26.0983  -47.8077 H         1 UNK         0.0600 
    205 H205       -3.9428  -21.9859  -47.9767 H         1 UNK         0.3000 
    206 H206       -4.0648  -20.8195  -49.8449 H         1 UNK         0.0600 
    207 H207       -6.4896  -21.2882  -49.6958 H         1 UNK         0.0600 
    208 H208       -5.9928  -21.1925  -51.3782 H         1 UNK         0.0600 
    209 H209       -6.2953  -22.7610  -50.6419 H         1 UNK         0.0600 
    210 H210       -1.9683  -22.4839  -49.7682 H         1 UNK         0.3000 
    211 H211       -0.3695  -23.5939  -50.8188 H         1 UNK         0.0600 
    212 H212       -1.3697  -22.1765  -53.3388 H         1 UNK         0.0600 
    213 H213        0.2293  -22.8631  -53.1017 H         1 UNK         0.0600 
    214 H214       -0.2780  -21.4877  -52.1358 H         1 UNK         0.0600 
    215 H215       -2.4447  -25.1608  -50.2888 H         1 UNK         0.3000 
    216 H216       -3.3352  -27.1592  -50.5339 H         1 UNK         0.0600 
    217 H217       -2.4143  -28.8508  -52.0559 H         1 UNK         0.0600 
    218 H218       -1.0986  -27.9688  -51.2971 H         1 UNK         0.0600 
    219 H219       -1.5403  -27.6340  -52.9710 H         1 UNK         0.0600 
    220 H220       -4.8851  -25.2483  -51.1295 H         1 UNK         0.3000 
    221 H221       -6.7653  -24.5728  -52.0551 H         1 UNK         0.0600 
    222 H222       -7.0238  -27.4451  -53.0805 H         1 UNK         0.0600 
    223 H223       -7.4352  -26.8987  -51.4553 H         1 UNK         0.0600 
    224 H224       -8.3382  -26.3023  -52.8370 H         1 UNK         0.0600 
    225 H225       -4.6666  -23.6968  -53.5456 H         1 UNK         0.3000 
    226 H226       -5.3650  -23.9802  -56.4190 H         1 UNK         0.0600 
    227 H227       -2.9630  -24.0551  -55.8262 H         1 UNK         0.0600 
    228 H228       -3.3089  -22.5772  -56.7154 H         1 UNK         0.0600 
    229 H229       -3.0933  -22.5260  -54.9692 H         1 UNK         0.0600 
    230 H230       -6.1774  -22.2449  -57.5879 H         1 UNK         0.3000 
    231 H231       -7.9188  -20.4051  -56.3258 H         1 UNK         0.0600 
    232 H232       -6.8191  -20.4798  -59.1872 H         1 UNK         0.0600 
    233 H233       -8.1855  -19.5109  -58.6493 H         1 UNK         0.0600 
    234 H234       -8.2907  -21.2640  -58.6128 H         1 UNK         0.0600 
    235 H235       -7.3094  -18.7297  -55.1299 H         1 UNK         0.3000 
    236 H236       -6.2494  -17.0235  -54.2073 H         1 UNK         0.0600 
    237 H237       -6.9507  -15.8589  -56.3139 H         1 UNK         0.0600 
    238 H238       -5.4728  -15.1812  -55.6530 H         1 UNK         0.0600 
    239 H239       -5.3958  -16.2494  -57.0477 H         1 UNK         0.0600 
    240 H240       -4.8348  -19.5187  -54.3330 H         1 UNK         0.3000 
    241 H241       -2.9594  -20.4741  -53.7864 H         1 UNK         0.0600 
    242 H242       -1.9231  -19.8100  -57.4812 H         1 UNK         0.3800 
    243 H243       -3.4479  -19.3485  -56.7719 H         1 UNK         0.3800 
    244 H244       -0.9538  -19.3047  -52.8966 H         1 UNK         0.0800 
    245 H245       -1.5986  -17.7706  -53.3973 H         1 UNK         0.0800 
    246 H246       -2.4182  -16.2819  -51.5390 H         1 UNK         0.0800 
    247 H247       -2.6096  -16.8456  -49.8960 H         1 UNK         0.0800 
@<TRIPOS>BOND
     1    1    2 1    
     2    1  127 1    
     3    1  128 1    
     4    1  129 1    
     5    2    3 2    
     6    2    4 am   BACKBONE|DICT|INTERRES
     7    4    5 1    
     8    4  130 1    
     9    5    6 1    
    10    5   65 1    
    11    5  131 1    
    12    6    7 1    
    13    6  132 1    
    14    6  133 1    
    15    7    8 1    
    16    8    9 1    
    17    8  134 1    
    18    8  135 1    
    19    9   10 ar   
    20    9   14 ar   
    21   10   11 ar   
    22   10  136 1    
    23   11   12 ar   
    24   11  126 1    
    25   12   13 ar   
    26   12  137 1    
    27   13   14 ar   
    28   13   15 1    
    29   14  138 1    
    30   15   16 1    
    31   15  139 1    
    32   15  140 1    
    33   16   17 1    
    34   17   18 1    
    35   17  141 1    
    36   17  142 1    
    37   18   19 1    
    38   18   67 1    
    39   18  143 1    
    40   19   20 am   BACKBONE|DICT|INTERRES
    41   19  144 1    
    42   20   21 2    
    43   20   22 1    
    44   22   23 1    
    45   22   24 1    
    46   22  145 1    
    47   23  146 1    
    48   23  147 1    
    49   23  148 1    
    50   24   25 am   BACKBONE|DICT|INTERRES
    51   24  149 1    
    52   25   26 2    
    53   25   27 1    
    54   27   28 1    
    55   27   29 1    
    56   27  150 1    
    57   28  151 1    
    58   28  152 1    
    59   28  153 1    
    60   29   30 am   BACKBONE|DICT|INTERRES
    61   29  154 1    
    62   30   31 2    
    63   30   32 1    
    64   32   33 1    
    65   32   34 1    
    66   32  155 1    
    67   33  156 1    
    68   33  157 1    
    69   33  158 1    
    70   34   35 am   BACKBONE|DICT|INTERRES
    71   34  159 1    
    72   35   36 2    
    73   35   37 1    
    74   37   38 1    
    75   37   39 1    
    76   37  160 1    
    77   38  161 1    
    78   38  162 1    
    79   38  163 1    
    80   39   40 am   BACKBONE|DICT|INTERRES
    81   39  164 1    
    82   40   41 2    
    83   40   42 1    
    84   42   43 1    
    85   42   44 1    
    86   42  165 1    
    87   43  166 1    
    88   43  167 1    
    89   43  168 1    
    90   44   45 am   BACKBONE|DICT|INTERRES
    91   44  169 1    
    92   45   46 2    
    93   45   47 1    
    94   47   48 1    
    95   47   49 1    
    96   47  170 1    
    97   48  171 1    
    98   48  172 1    
    99   48  173 1    
   100   49   50 am   BACKBONE|DICT|INTERRES
   101   49  174 1    
   102   50   51 2    
   103   50   52 1    
   104   52   53 1    
   105   52   54 1    
   106   52  175 1    
   107   53  176 1    
   108   53  177 1    
   109   53  178 1    
   110   54   55 am   BACKBONE|DICT|INTERRES
   111   54  179 1    
   112   55   56 2    
   113   55   57 1    
   114   57   58 1    
   115   57   59 1    
   116   57  180 1    
   117   58  181 1    
   118   58  182 1    
   119   58  183 1    
   120   59   60 am   BACKBONE|DICT|INTERRES
   121   59  184 1    
   122   60   61 2    
   123   60   62 1    
   124   62   63 1    
   125   62   64 1    
   126   62  185 1    
   127   63  186 1    
   128   63  187 1    
   129   63  188 1    
   130   64   65 am   BACKBONE|DICT|INTERRES
   131   64  189 1    
   132   65   66 2    
   133   67   68 2    
   134   67   69 am   BACKBONE|DICT|INTERRES
   135   69   70 1    
   136   69  190 1    
   137   70   71 1    
   138   70   72 1    
   139   70  191 1    
   140   71  192 1    
   141   71  193 1    
   142   71  194 1    
   143   72   73 2    
   144   72   74 am   BACKBONE|DICT|INTERRES
   145   74   75 1    
   146   74  195 1    
   147   75   76 1    
   148   75   77 1    
   149   75  196 1    
   150   76  197 1    
   151   76  198 1    
   152   76  199 1    
   153   77   78 2    
   154   77   79 am   BACKBONE|DICT|INTERRES
   155   79   80 1    
   156   79  200 1    
   157   80   81 1    
   158   80   82 1    
   159   80  201 1    
   160   81  202 1    
   161   81  203 1    
   162   81  204 1    
   163   82   83 2    
   164   82   84 am   BACKBONE|DICT|INTERRES
   165   84   85 1    
   166   84  205 1    
   167   85   86 1    
   168   85   87 1    
   169   85  206 1    
   170   86  207 1    
   171   86  208 1    
   172   86  209 1    
   173   87   88 2    
   174   87   89 am   BACKBONE|DICT|INTERRES
   175   89   90 1    
   176   89  210 1    
   177   90   91 1    
   178   90   92 1    
   179   90  211 1    
   180   91  212 1    
   181   91  213 1    
   182   91  214 1    
   183   92   93 2    
   184   92   94 am   BACKBONE|DICT|INTERRES
   185   94   95 1    
   186   94  215 1    
   187   95   96 1    
   188   95   97 1    
   189   95  216 1    
   190   96  217 1    
   191   96  218 1    
   192   96  219 1    
   193   97   98 2    
   194   97   99 am   BACKBONE|DICT|INTERRES
   195   99  100 1    
   196   99  220 1    
   197  100  101 1    
   198  100  102 1    
   199  100  221 1    
   200  101  222 1    
   201  101  223 1    
   202  101  224 1    
   203  102  103 2    
   204  102  104 am   BACKBONE|DICT|INTERRES
   205  104  105 1    
   206  104  225 1    
   207  105  106 1    
   208  105  107 1    
   209  105  226 1    
   210  106  227 1    
   211  106  228 1    
   212  106  229 1    
   213  107  108 2    
   214  107  109 am   BACKBONE|DICT|INTERRES
   215  109  110 1    
   216  109  230 1    
   217  110  111 1    
   218  110  112 1    
   219  110  231 1    
   220  111  232 1    
   221  111  233 1    
   222  111  234 1    
   223  112  113 2    
   224  112  114 am   BACKBONE|DICT|INTERRES
   225  114  115 1    
   226  114  235 1    
   227  115  116 1    
   228  115  117 1    
   229  115  236 1    
   230  116  237 1    
   231  116  238 1    
   232  116  239 1    
   233  117  118 2    
   234  117  119 am   BACKBONE|DICT|INTERRES
   235  119  120 1    
   236  119  240 1    
   237  120  121 1    
   238  120  124 1    
   239  120  241 1    
   240  121  122 am   BACKBONE|DICT|INTERRES
   241  121  123 2    
   242  122  242 1    
   243  122  243 1    
   244  124  125 1    
   245  124  244 1    
   246  124  245 1    
   247  125  126 1    
   248  126  246 1    
   249  126  247 1    
@<TRIPOS>SUBSTRUCTURE
     1 UNK         1 GROUP             0       ****    0 ROOT    
