@<TRIPOS>MOLECULE
3R540
247   249    1
SMALL
USER_CHARGES


@<TRIPOS>ATOM
      1 CA          0.6448  -10.7775  -46.9877 C.3       0 UNK        -0.1800 
      2 C           0.8104  -12.2621  -46.7009 C.2       0 UNK         0.5000 
      3 O           0.1485  -12.7906  -45.8116 O.2       0 UNK        -0.5000 
      4 N           1.6691  -12.9441  -47.4681 N.am      1 UNK        -0.5000 
      5 CA          2.0210  -14.3671  -47.3328 C.3       1 UNK         0.1400 
      6 C6          3.2554  -14.7303  -48.1966 C.3       23 UNK        -0.0398 
      7 S7          3.1209  -14.2101  -49.9438 S.3       23 UNK        -0.2404 
      8 C8          3.6773  -15.7035  -50.8209 C.3       23 UNK        -0.0205 
      9 C9          2.6616  -16.8325  -50.7425 C.ar      23 UNK        -0.0193 
     10 C10         1.4339  -16.7127  -51.3986 C.ar      23 UNK        -0.1150 
     11 C11         0.5110  -17.7599  -51.3720 C.ar      23 UNK        -0.0193 
     12 C12         0.8167  -18.9303  -50.6703 C.ar      23 UNK        -0.1150 
     13 C13         2.0421  -19.0636  -50.0113 C.ar      23 UNK        -0.0193 
     14 C14         2.9602  -18.0099  -50.0495 C.ar      23 UNK        -0.1150 
     15 C15         2.3952  -20.3642  -49.3027 C.3       23 UNK        -0.0205 
     16 S16         2.3936  -20.2095  -47.4886 S.3       23 UNK        -0.2404 
     17 C17         0.6167  -20.0132  -47.1212 C.3       23 UNK        -0.0398 
     18 CA         -0.1354  -21.3613  -46.9813 C.3       11 UNK         0.1400 
     19 N           0.4636  -22.2549  -45.9830 N.am      11 UNK        -0.5000 
     20 C           0.1290  -23.5463  -45.8286 C.2       10 UNK         0.5000 
     21 O          -0.7104  -24.1191  -46.5218 O.2       10 UNK        -0.5000 
     22 CA          0.8031  -24.3239  -44.6808 C.3       10 UNK         0.1400 
     23 CB          2.1243  -24.9433  -45.1597 C.3       10 UNK        -0.1800 
     24 N           1.0618  -23.5088  -43.4953 N.am      10 UNK        -0.5000 
     25 C           0.1490  -22.8056  -42.8105 C.2       9 UNK         0.5000 
     26 O          -1.0585  -22.8452  -43.0441 O.2       9 UNK        -0.5000 
     27 CA          0.6756  -21.8517  -41.7202 C.3       9 UNK         0.1400 
     28 CB          0.4542  -22.4580  -40.3269 C.3       9 UNK        -0.1800 
     29 N           2.0897  -21.4839  -41.8654 N.am      9 UNK        -0.5000 
     30 C           2.6275  -20.8623  -42.9242 C.2       8 UNK         0.5000 
     31 O           1.9982  -20.5785  -43.9462 O.2       8 UNK        -0.5000 
     32 CA          4.1394  -20.5844  -42.8510 C.3       8 UNK         0.1400 
     33 CB          4.9162  -21.7186  -43.5377 C.3       8 UNK        -0.1800 
     34 N           4.5050  -19.3148  -43.4768 N.am      8 UNK        -0.5000 
     35 C           4.1068  -18.1097  -43.0513 C.2       7 UNK         0.5000 
     36 O           3.4037  -17.9358  -42.0524 O.2       7 UNK        -0.5000 
     37 CA          4.5912  -16.9106  -43.8878 C.3       7 UNK         0.1400 
     38 CB          3.9575  -16.9047  -45.2874 C.3       7 UNK        -0.1800 
     39 N           4.2980  -15.6398  -43.2252 N.am      7 UNK        -0.5000 
     40 C           5.0626  -15.0972  -42.2674 C.2       6 UNK         0.5000 
     41 O           6.1381  -15.5765  -41.9038 O.2       6 UNK        -0.5000 
     42 CA          4.5672  -13.7947  -41.6084 C.3       6 UNK         0.1400 
     43 CB          5.2721  -12.5791  -42.2305 C.3       6 UNK        -0.1800 
     44 N           3.1218  -13.6005  -41.7119 N.am      6 UNK        -0.5000 
     45 C           2.2028  -14.2380  -40.9751 C.2       5 UNK         0.5000 
     46 O           2.4753  -15.0512  -40.0913 O.2       5 UNK        -0.5000 
     47 CA          0.7233  -13.9060  -41.2659 C.3       5 UNK         0.1400 
     48 CB          0.5182  -12.5055  -41.8863 C.3       5 UNK        -0.1800 
     49 N           0.0644  -14.9365  -42.0774 N.am      5 UNK        -0.5000 
     50 C           0.4628  -15.4094  -43.2692 C.2       4 UNK         0.5000 
     51 O           1.4651  -15.0145  -43.8638 O.2       4 UNK        -0.5000 
     52 CA         -0.3941  -16.5198  -43.9046 C.3       4 UNK         0.1400 
     53 CB          0.2383  -17.8891  -43.6224 C.3       4 UNK        -0.1800 
     54 N          -1.7751  -16.5625  -43.4181 N.am      4 UNK        -0.5000 
     55 C          -2.8409  -15.7871  -43.6844 C.2       3 UNK         0.5000 
     56 O          -3.8965  -15.9948  -43.0890 O.2       3 UNK        -0.5000 
     57 CA         -2.8289  -14.6246  -44.7090 C.3       3 UNK         0.1400 
     58 CB         -2.4654  -13.2929  -44.0394 C.3       3 UNK        -0.1800 
     59 N          -2.0484  -14.7996  -45.9348 N.am      3 UNK        -0.5000 
     60 C          -2.3386  -15.6850  -46.9012 C.2       2 UNK         0.5000 
     61 O          -3.2392  -16.5179  -46.8040 O.2       2 UNK        -0.5000 
     62 CA         -1.5288  -15.6139  -48.2152 C.3       2 UNK         0.1400 
     63 CB         -2.3685  -14.9452  -49.3157 C.3       2 UNK        -0.1800 
     64 N          -0.2757  -14.8732  -48.0877 N.am      2 UNK        -0.5000 
     65 C           0.8475  -15.3558  -47.5423 C.2       1 UNK         0.5000 
     66 O           0.9679  -16.5244  -47.1773 O.2       1 UNK        -0.5000 
     67 C          -1.6296  -21.1178  -46.6869 C.2       11 UNK         0.5000 
     68 O          -2.4493  -21.1607  -47.6051 O.2       11 UNK        -0.5000 
     69 N          -1.9573  -20.9116  -45.4033 N.am      12 UNK        -0.5000 
     70 CA         -3.3247  -20.7329  -44.9197 C.3       12 UNK         0.1400 
     71 CB         -3.2993  -20.1337  -43.5060 C.3       12 UNK        -0.1800 
     72 C          -4.1212  -22.0480  -44.9455 C.2       12 UNK         0.5000 
     73 O          -5.2766  -22.0439  -45.3683 O.2       12 UNK        -0.5000 
     74 N          -3.4835  -23.1539  -44.5341 N.am      13 UNK        -0.5000 
     75 CA         -4.0600  -24.5022  -44.5228 C.3       13 UNK         0.1400 
     76 CB         -3.0874  -25.4678  -43.8309 C.3       13 UNK        -0.1800 
     77 C          -4.4291  -25.0194  -45.9266 C.2       13 UNK         0.5000 
     78 O          -5.4397  -25.7067  -46.0754 O.2       13 UNK        -0.5000 
     79 N          -3.6293  -24.6442  -46.9337 N.am      14 UNK        -0.5000 
     80 CA         -3.8826  -24.9054  -48.3519 C.3       14 UNK         0.1400 
     81 CB         -2.5591  -24.7514  -49.1188 C.3       14 UNK        -0.1800 
     82 C          -4.9651  -23.9916  -48.9659 C.2       14 UNK         0.5000 
     83 O          -5.3405  -24.2074  -50.1175 O.2       14 UNK        -0.5000 
     84 N          -5.4245  -22.9793  -48.2134 N.am      15 UNK        -0.5000 
     85 CA         -6.3447  -21.9141  -48.6230 C.3       15 UNK         0.1400 
     86 CB         -7.7711  -22.4526  -48.8516 C.3       15 UNK        -0.1800 
     87 C          -5.7859  -21.0492  -49.7731 C.2       15 UNK         0.5000 
     88 O          -6.5318  -20.6238  -50.6589 O.2       15 UNK        -0.5000 
     89 N          -4.4709  -20.7955  -49.6887 N.am      16 UNK        -0.5000 
     90 CA         -3.6553  -19.8325  -50.4240 C.3       16 UNK         0.1400 
     91 CB         -3.6527  -18.5021  -49.6420 C.3       16 UNK        -0.1800 
     92 C          -3.9967  -19.6838  -51.9214 C.2       16 UNK         0.5000 
     93 O          -3.9234  -20.6610  -52.6680 O.2       16 UNK        -0.5000 
     94 N          -4.3134  -18.4541  -52.3429 N.am      17 UNK        -0.5000 
     95 CA         -4.6097  -18.0912  -53.7255 C.3       17 UNK         0.1400 
     96 CB         -4.4543  -16.5703  -53.8770 C.3       17 UNK        -0.1800 
     97 C          -6.0109  -18.5343  -54.1847 C.2       17 UNK         0.5000 
     98 O          -6.2425  -18.6239  -55.3902 O.2       17 UNK        -0.5000 
     99 N          -6.9218  -18.7779  -53.2322 N.am      18 UNK        -0.5000 
    100 CA        -8.3194  -19.1090  -53.4979 C.3       18 UNK         0.1400 
    101 CB        -9.1582  -18.8720  -52.2317 C.3       18 UNK        -0.1800 
    102 C         -8.4976  -20.5439  -54.0170 C.2       18 UNK         0.5000 
    103 O         -9.2052  -20.7398  -55.0063 O.2       18 UNK        -0.5000 
    104 N         -7.8643  -21.5130  -53.3428 N.am      19 UNK        -0.5000 
    105 CA        -7.9967  -22.9351  -53.6626 C.3       19 UNK         0.1400 
    106 CB        -8.2649  -23.7283  -52.3767 C.3       19 UNK        -0.1800 
    107 C         -6.7508  -23.4726  -54.3783 C.2       19 UNK         0.5000 
    108 O         -6.8711  -24.0310  -55.4693 O.2       19 UNK        -0.5000 
    109 N         -5.5793  -23.3152  -53.7485 N.am      20 UNK        -0.5000 
    110 CA        -4.3206  -23.9090  -54.2042 C.3       20 UNK         0.1400 
    111 CB        -3.4108  -24.1371  -52.9862 C.3       20 UNK        -0.1800 
    112 C         -3.5923  -23.0801  -55.2757 C.2       20 UNK         0.5000 
    113 O         -2.6037  -23.5637  -55.8293 O.2       20 UNK        -0.5000 
    114 N         -4.0458  -21.8402  -55.5167 N.am      21 UNK        -0.5000 
    115 CA        -3.4291  -20.8364  -56.3960 C.3       21 UNK         0.1400 
    116 CB        -3.5492  -21.2600  -57.8745 C.3       21 UNK        -0.1800 
    117 C         -1.9782  -20.5021  -55.9775 C.2       21 UNK         0.5000 
    118 O         -1.1230  -20.2684  -56.8328 O.2       21 UNK        -0.5000 
    119 N         -1.7343  -20.5321  -54.6596 N.am      22 UNK        -0.5000 
    120 CA        -0.4215  -20.4406  -53.9984 C.3       22 UNK         0.1400 
    121 C          0.5014  -21.6833  -54.1996 C.2       22 UNK         0.5000 
    122 N          0.0384  -22.7885  -54.7724 N.am      22 UNK        -0.7600 
    123 O          1.6603  -21.6630  -53.7949 O.2       22 UNK        -0.5000 
    124 C124        0.3356  -19.1076  -54.2669 C.3       23 UNK        -0.0398 
    125 S125       -0.6318  -17.5960  -53.9230 S.3       23 UNK        -0.2404 
    126 C126       -0.8118  -17.6330  -52.1100 C.3       23 UNK        -0.0205 
    127 H127        0.9074  -10.1952  -46.1046 H         1 UNK         0.0600 
    128 H128       -0.3915  -10.5591  -47.2454 H         1 UNK         0.0600 
    129 H129        1.2780  -10.4503  -47.8127 H         1 UNK         0.0600 
    130 H130        2.1564  -12.4603  -48.2096 H         1 UNK         0.3000 
    131 H131        2.3203  -14.5016  -46.2925 H         1 UNK         0.0600 
    132 H132        4.1374  -14.2410  -47.7816 H         1 UNK         0.0800 
    133 H133        3.4653  -15.7995  -48.1382 H         1 UNK         0.0800 
    134 H134        3.8436  -15.4523  -51.8693 H         1 UNK         0.0800 
    135 H135        4.6451  -16.0167  -50.4258 H         1 UNK         0.0800 
    136 H136        1.2024  -15.8082  -51.9437 H         1 UNK         0.1150 
    137 H137        0.1089  -19.7465  -50.6492 H         1 UNK         0.1150 
    138 H138        3.9116  -18.1153  -49.5473 H         1 UNK         0.1150 
    139 H139        1.7168  -21.1658  -49.5983 H         1 UNK         0.0800 
    140 H140        3.3893  -20.6799  -49.6223 H         1 UNK         0.0800 
    141 H141        0.1595  -19.3896  -47.8909 H         1 UNK         0.0800 
    142 H142        0.5451  -19.4393  -46.1965 H         1 UNK         0.0800 
    143 H143       -0.0817  -21.8712  -47.9456 H         1 UNK         0.0600 
    144 H144        1.1443  -21.8346  -45.3582 H         1 UNK         0.3000 
    145 H145        0.1336  -25.1327  -44.3851 H         1 UNK         0.0600 
    146 H146        2.5718  -25.5673  -44.3859 H         1 UNK         0.0600 
    147 H147        1.9643  -25.5762  -46.0337 H         1 UNK         0.0600 
    148 H148        2.8503  -24.1777  -45.4368 H         1 UNK         0.0600 
    149 H149        2.0281  -23.4035  -43.2265 H         1 UNK         0.3000 
    150 H150        0.0899  -20.9328  -41.7913 H         1 UNK         0.0600 
    151 H151        1.0407  -23.3667  -40.1860 H         1 UNK         0.0600 
    152 H152       -0.5946  -22.7174  -40.1751 H         1 UNK         0.0600 
    153 H153        0.7291  -21.7540  -39.5412 H         1 UNK         0.0600 
    154 H154        2.6842  -21.7004  -41.0781 H         1 UNK         0.3000 
    155 H155        4.4399  -20.5389  -41.8022 H         1 UNK         0.0600 
    156 H156        4.6605  -21.7972  -44.5956 H         1 UNK         0.0600 
    157 H157        4.6966  -22.6816  -43.0750 H         1 UNK         0.0600 
    158 H158        5.9926  -21.5627  -43.4629 H         1 UNK         0.0600 
    159 H159        5.0479  -19.3782  -44.3250 H         1 UNK         0.3000 
    160 H160        5.6721  -17.0073  -44.0109 H         1 UNK         0.0600 
    161 H161        2.8743  -16.8045  -45.2425 H         1 UNK         0.0600 
    162 H162        4.1751  -17.8237  -45.8327 H         1 UNK         0.0600 
    163 H163        4.3482  -16.0792  -45.8801 H         1 UNK         0.0600 
    164 H164        3.3845  -15.2374  -43.4130 H         1 UNK         0.3000 
    165 H165        4.8358  -13.8390  -40.5508 H         1 UNK         0.0600 
    166 H166        4.9848  -11.6556  -41.7273 H         1 UNK         0.0600 
    167 H167        6.3559  -12.6699  -42.1461 H         1 UNK         0.0600 
    168 H168        5.0330  -12.4740  -43.2896 H         1 UNK         0.0600 
    169 H169        2.7992  -12.9802  -42.4404 H         1 UNK         0.3000 
    170 H170        0.2202  -13.9060  -40.2978 H         1 UNK         0.0600 
    171 H171        1.0549  -11.7412  -41.3227 H         1 UNK         0.0600 
    172 H172        0.8562  -12.4553  -42.9221 H         1 UNK         0.0600 
    173 H173       -0.5345  -12.2253  -41.8676 H         1 UNK         0.0600 
    174 H174       -0.7544  -15.3562  -41.6615 H         1 UNK         0.3000 
    175 H175       -0.3793  -16.3900  -44.9808 H         1 UNK         0.0600 
    176 H176        1.2352  -17.9517  -44.0570 H         1 UNK         0.0600 
    177 H177        0.3365  -18.0832  -42.5535 H         1 UNK         0.0600 
    178 H178       -0.3485  -18.6973  -44.0577 H         1 UNK         0.0600 
    179 H179       -1.9321  -17.2861  -42.7340 H         1 UNK         0.3000 
    180 H180       -3.8661  -14.5199  -45.0351 H         1 UNK         0.0600 
    181 H181       -1.4094  -13.2490  -43.7881 H         1 UNK         0.0600 
    182 H182       -3.0307  -13.1421  -43.1189 H         1 UNK         0.0600 
    183 H183       -2.6826  -12.4506  -44.6964 H         1 UNK         0.0600 
    184 H184       -1.2722  -14.1571  -46.0639 H         1 UNK         0.3000 
    185 H185       -1.3042  -16.6372  -48.5242 H         1 UNK         0.0600 
    186 H186       -3.3142  -15.4669  -49.4653 H         1 UNK         0.0600 
    187 H187       -2.6063  -13.9108  -49.0644 H         1 UNK         0.0600 
    188 H188       -1.8413  -14.9431  -50.2694 H         1 UNK         0.0600 
    189 H189       -0.2899  -13.9010  -48.3582 H         1 UNK         0.3000 
    190 H190       -1.2321  -20.9699  -44.7034 H         1 UNK         0.3000 
    191 H191       -3.8301  -20.0222  -45.5778 H         1 UNK         0.0600 
    192 H192       -2.8001  -19.1666  -43.5014 H         1 UNK         0.0600 
    193 H193       -4.3117  -19.9761  -43.1320 H         1 UNK         0.0600 
    194 H194       -2.7846  -20.7817  -42.7963 H         1 UNK         0.0600 
    195 H195       -2.5468  -23.0583  -44.1488 H         1 UNK         0.3000 
    196 H196       -4.9779  -24.4622  -43.9328 H         1 UNK         0.0600 
    197 H197       -3.5245  -26.4630  -43.7405 H         1 UNK         0.0600 
    198 H198       -2.8385  -25.1281  -42.8254 H         1 UNK         0.0600 
    199 H199       -2.1591  -25.5681  -44.3922 H         1 UNK         0.0600 
    200 H200       -2.7760  -24.1400  -46.7164 H         1 UNK         0.3000 
    201 H201       -4.2243  -25.9364  -48.4623 H         1 UNK         0.0600 
    202 H202       -2.6852  -24.9840  -50.1760 H         1 UNK         0.0600 
    203 H203       -1.7976  -25.4277  -48.7304 H         1 UNK         0.0600 
    204 H204       -2.1713  -23.7341  -49.0489 H         1 UNK         0.0600 
    205 H205       -5.0752  -22.8947  -47.2661 H         1 UNK         0.3000 
    206 H206       -6.4050  -21.2328  -47.7733 H         1 UNK         0.0600 
    207 H207       -8.1860  -22.8441  -47.9229 H         1 UNK         0.0600 
    208 H208       -8.4452  -21.6686  -49.1985 H         1 UNK         0.0600 
    209 H209       -7.7960  -23.2583  -49.5801 H         1 UNK         0.0600 
    210 H210       -3.9703  -21.2330  -48.9215 H         1 UNK         0.3000 
    211 H211       -2.6386  -20.2267  -50.3962 H         1 UNK         0.0600 
    212 H212       -4.6485  -18.0610  -49.5816 H         1 UNK         0.0600 
    213 H213       -2.9823  -17.7715  -50.0919 H         1 UNK         0.0600 
    214 H214       -3.3040  -18.6561  -48.6204 H         1 UNK         0.0600 
    215 H215       -4.3608  -17.7085  -51.6642 H         1 UNK         0.3000 
    216 H216       -3.8739  -18.5688  -54.3726 H         1 UNK         0.0600 
    217 H217       -4.6228  -16.2615  -54.9095 H         1 UNK         0.0600 
    218 H218       -3.4503  -16.2458  -53.6035 H         1 UNK         0.0600 
    219 H219       -5.1646  -16.0280  -53.2517 H         1 UNK         0.0600 
    220 H220       -6.6359  -18.7537  -52.2633 H         1 UNK         0.3000 
    221 H221       -8.6885  -18.4294  -54.2694 H         1 UNK         0.0600 
    222 H222       -8.8420  -19.5111  -51.4070 H         1 UNK         0.0600 
    223 H223       -9.0859  -17.8364  -51.8995 H         1 UNK         0.0600 
    224 H224      -10.2124  -19.0797  -52.4195 H         1 UNK         0.0600 
    225 H225       -7.3092  -21.2608  -52.5317 H         1 UNK         0.3000 
    226 H226       -8.8518  -23.1003  -54.3216 H         1 UNK         0.0600 
    227 H227       -8.4595  -24.7779  -52.6000 H         1 UNK         0.0600 
    228 H228       -7.4093  -23.6934  -51.7051 H         1 UNK         0.0600 
    229 H229       -9.1326  -23.3403  -51.8430 H         1 UNK         0.0600 
    230 H230       -5.5489  -22.8292  -52.8628 H         1 UNK         0.3000 
    231 H231       -4.5280  -24.8853  -54.6476 H         1 UNK         0.0600 
    232 H232       -3.2122  -23.2119  -52.4450 H         1 UNK         0.0600 
    233 H233       -2.4487  -24.5583  -53.2808 H         1 UNK         0.0600 
    234 H234       -3.8680  -24.8406  -52.2914 H         1 UNK         0.0600 
    235 H235       -4.8341  -21.5280  -54.9673 H         1 UNK         0.3000 
    236 H236       -4.0039  -19.9190  -56.2769 H         1 UNK         0.0600 
    237 H237       -4.5823  -21.4899  -58.1349 H         1 UNK         0.0600 
    238 H238       -3.2189  -20.4598  -58.5379 H         1 UNK         0.0600 
    239 H239       -2.9434  -22.1389  -58.0967 H         1 UNK         0.0600 
    240 H240       -2.5140  -20.7367  -54.0419 H         1 UNK         0.3000 
    241 H241       -0.6539  -20.4653  -52.9345 H         1 UNK         0.0600 
    242 H242       -0.9082  -22.8531  -55.1313 H         1 UNK         0.3800 
    243 H243        0.6570  -23.5767  -54.8769 H         1 UNK         0.3800 
    244 H244        1.2527  -19.0610  -53.6779 H         1 UNK         0.0800 
    245 H245        0.6601  -19.0636  -55.3071 H         1 UNK         0.0800 
    246 H246       -1.3201  -16.7240  -51.7891 H         1 UNK         0.0800 
    247 H247       -1.4643  -18.4606  -51.8472 H         1 UNK         0.0800 
@<TRIPOS>BOND
     1    1    2 1    
     2    1  127 1    
     3    1  128 1    
     4    1  129 1    
     5    2    3 2    
     6    2    4 am   BACKBONE|DICT|INTERRES
     7    4    5 1    
     8    4  130 1    
     9    5    6 1    
    10    5   65 1    
    11    5  131 1    
    12    6    7 1    
    13    6  132 1    
    14    6  133 1    
    15    7    8 1    
    16    8    9 1    
    17    8  134 1    
    18    8  135 1    
    19    9   10 ar   
    20    9   14 ar   
    21   10   11 ar   
    22   10  136 1    
    23   11   12 ar   
    24   11  126 1    
    25   12   13 ar   
    26   12  137 1    
    27   13   14 ar   
    28   13   15 1    
    29   14  138 1    
    30   15   16 1    
    31   15  139 1    
    32   15  140 1    
    33   16   17 1    
    34   17   18 1    
    35   17  141 1    
    36   17  142 1    
    37   18   19 1    
    38   18   67 1    
    39   18  143 1    
    40   19   20 am   BACKBONE|DICT|INTERRES
    41   19  144 1    
    42   20   21 2    
    43   20   22 1    
    44   22   23 1    
    45   22   24 1    
    46   22  145 1    
    47   23  146 1    
    48   23  147 1    
    49   23  148 1    
    50   24   25 am   BACKBONE|DICT|INTERRES
    51   24  149 1    
    52   25   26 2    
    53   25   27 1    
    54   27   28 1    
    55   27   29 1    
    56   27  150 1    
    57   28  151 1    
    58   28  152 1    
    59   28  153 1    
    60   29   30 am   BACKBONE|DICT|INTERRES
    61   29  154 1    
    62   30   31 2    
    63   30   32 1    
    64   32   33 1    
    65   32   34 1    
    66   32  155 1    
    67   33  156 1    
    68   33  157 1    
    69   33  158 1    
    70   34   35 am   BACKBONE|DICT|INTERRES
    71   34  159 1    
    72   35   36 2    
    73   35   37 1    
    74   37   38 1    
    75   37   39 1    
    76   37  160 1    
    77   38  161 1    
    78   38  162 1    
    79   38  163 1    
    80   39   40 am   BACKBONE|DICT|INTERRES
    81   39  164 1    
    82   40   41 2    
    83   40   42 1    
    84   42   43 1    
    85   42   44 1    
    86   42  165 1    
    87   43  166 1    
    88   43  167 1    
    89   43  168 1    
    90   44   45 am   BACKBONE|DICT|INTERRES
    91   44  169 1    
    92   45   46 2    
    93   45   47 1    
    94   47   48 1    
    95   47   49 1    
    96   47  170 1    
    97   48  171 1    
    98   48  172 1    
    99   48  173 1    
   100   49   50 am   BACKBONE|DICT|INTERRES
   101   49  174 1    
   102   50   51 2    
   103   50   52 1    
   104   52   53 1    
   105   52   54 1    
   106   52  175 1    
   107   53  176 1    
   108   53  177 1    
   109   53  178 1    
   110   54   55 am   BACKBONE|DICT|INTERRES
   111   54  179 1    
   112   55   56 2    
   113   55   57 1    
   114   57   58 1    
   115   57   59 1    
   116   57  180 1    
   117   58  181 1    
   118   58  182 1    
   119   58  183 1    
   120   59   60 am   BACKBONE|DICT|INTERRES
   121   59  184 1    
   122   60   61 2    
   123   60   62 1    
   124   62   63 1    
   125   62   64 1    
   126   62  185 1    
   127   63  186 1    
   128   63  187 1    
   129   63  188 1    
   130   64   65 am   BACKBONE|DICT|INTERRES
   131   64  189 1    
   132   65   66 2    
   133   67   68 2    
   134   67   69 am   BACKBONE|DICT|INTERRES
   135   69   70 1    
   136   69  190 1    
   137   70   71 1    
   138   70   72 1    
   139   70  191 1    
   140   71  192 1    
   141   71  193 1    
   142   71  194 1    
   143   72   73 2    
   144   72   74 am   BACKBONE|DICT|INTERRES
   145   74   75 1    
   146   74  195 1    
   147   75   76 1    
   148   75   77 1    
   149   75  196 1    
   150   76  197 1    
   151   76  198 1    
   152   76  199 1    
   153   77   78 2    
   154   77   79 am   BACKBONE|DICT|INTERRES
   155   79   80 1    
   156   79  200 1    
   157   80   81 1    
   158   80   82 1    
   159   80  201 1    
   160   81  202 1    
   161   81  203 1    
   162   81  204 1    
   163   82   83 2    
   164   82   84 am   BACKBONE|DICT|INTERRES
   165   84   85 1    
   166   84  205 1    
   167   85   86 1    
   168   85   87 1    
   169   85  206 1    
   170   86  207 1    
   171   86  208 1    
   172   86  209 1    
   173   87   88 2    
   174   87   89 am   BACKBONE|DICT|INTERRES
   175   89   90 1    
   176   89  210 1    
   177   90   91 1    
   178   90   92 1    
   179   90  211 1    
   180   91  212 1    
   181   91  213 1    
   182   91  214 1    
   183   92   93 2    
   184   92   94 am   BACKBONE|DICT|INTERRES
   185   94   95 1    
   186   94  215 1    
   187   95   96 1    
   188   95   97 1    
   189   95  216 1    
   190   96  217 1    
   191   96  218 1    
   192   96  219 1    
   193   97   98 2    
   194   97   99 am   BACKBONE|DICT|INTERRES
   195   99  100 1    
   196   99  220 1    
   197  100  101 1    
   198  100  102 1    
   199  100  221 1    
   200  101  222 1    
   201  101  223 1    
   202  101  224 1    
   203  102  103 2    
   204  102  104 am   BACKBONE|DICT|INTERRES
   205  104  105 1    
   206  104  225 1    
   207  105  106 1    
   208  105  107 1    
   209  105  226 1    
   210  106  227 1    
   211  106  228 1    
   212  106  229 1    
   213  107  108 2    
   214  107  109 am   BACKBONE|DICT|INTERRES
   215  109  110 1    
   216  109  230 1    
   217  110  111 1    
   218  110  112 1    
   219  110  231 1    
   220  111  232 1    
   221  111  233 1    
   222  111  234 1    
   223  112  113 2    
   224  112  114 am   BACKBONE|DICT|INTERRES
   225  114  115 1    
   226  114  235 1    
   227  115  116 1    
   228  115  117 1    
   229  115  236 1    
   230  116  237 1    
   231  116  238 1    
   232  116  239 1    
   233  117  118 2    
   234  117  119 am   BACKBONE|DICT|INTERRES
   235  119  120 1    
   236  119  240 1    
   237  120  121 1    
   238  120  124 1    
   239  120  241 1    
   240  121  122 am   BACKBONE|DICT|INTERRES
   241  121  123 2    
   242  122  242 1    
   243  122  243 1    
   244  124  125 1    
   245  124  244 1    
   246  124  245 1    
   247  125  126 1    
   248  126  246 1    
   249  126  247 1    
@<TRIPOS>SUBSTRUCTURE
     1 UNK         1 GROUP             0       ****    0 ROOT    
