@<TRIPOS>MOLECULE
3R540
247   249    1
SMALL
USER_CHARGES


@<TRIPOS>ATOM
      1 CA          1.7865  -10.8733  -53.1412 C.3       0 UNK        -0.1800 
      2 C           1.5430  -12.0764  -52.2405 C.2       0 UNK         0.5000 
      3 O           1.6840  -13.2132  -52.6903 O.2       0 UNK        -0.5000 
      4 N           1.1741  -11.8244  -50.9783 N.am      1 UNK        -0.5000 
      5 CA          0.9094  -12.8304  -49.9424 C.3       1 UNK         0.1400 
      6 C6          0.3426  -12.1853  -48.6511 C.3       23 UNK        -0.0398 
      7 S7         -1.1919  -11.2400  -48.9385 S.3       23 UNK        -0.2404 
      8 C8         -2.4272  -12.2245  -48.0205 C.3       23 UNK        -0.0205 
      9 C9         -2.6560  -13.6339  -48.5640 C.ar      23 UNK        -0.0193 
     10 C10        -2.6217  -13.9044  -49.9381 C.ar      23 UNK        -0.1150 
     11 C11        -2.8491  -15.1970  -50.4172 C.ar      23 UNK        -0.0193 
     12 C12        -3.1575  -16.2165  -49.5166 C.ar      23 UNK        -0.1150 
     13 C13        -3.2021  -15.9639  -48.1462 C.ar      23 UNK        -0.0193 
     14 C14        -2.9458  -14.6737  -47.6728 C.ar      23 UNK        -0.1150 
     15 C15        -3.5234  -17.0988  -47.1925 C.3       23 UNK        -0.0205 
     16 S16        -1.9936  -17.9069  -46.6390 S.3       23 UNK        -0.2404 
     17 C17        -2.6145  -19.5183  -46.0509 C.3       23 UNK        -0.0398 
     18 CA         -1.6436  -20.6440  -46.4690 C.3       11 UNK         0.1400 
     19 N          -0.3525  -20.5266  -45.7921 N.am      11 UNK        -0.5000 
     20 C           0.8193  -20.9053  -46.3133 C.2       10 UNK         0.5000 
     21 O           0.9507  -21.3253  -47.4629 O.2       10 UNK        -0.5000 
     22 CA          2.0485  -20.8155  -45.3911 C.3       10 UNK         0.1400 
     23 CB          2.8469  -19.5360  -45.6778 C.3       10 UNK        -0.1800 
     24 N           1.6962  -20.8794  -43.9682 N.am      10 UNK        -0.5000 
     25 C           1.3421  -22.0170  -43.3526 C.2       9 UNK         0.5000 
     26 O           1.2402  -23.0955  -43.9347 O.2       9 UNK        -0.5000 
     27 CA          1.0081  -21.9552  -41.8504 C.3       9 UNK         0.1400 
     28 CB          2.2808  -22.1404  -41.0108 C.3       9 UNK        -0.1800 
     29 N           0.3034  -20.7512  -41.4049 N.am      9 UNK        -0.5000 
     30 C          -0.8374  -20.2692  -41.9151 C.2       8 UNK         0.5000 
     31 O          -1.3701  -20.7158  -42.9341 O.2       8 UNK        -0.5000 
     32 CA         -1.5062  -19.1016  -41.1699 C.3       8 UNK         0.1400 
     33 CB         -0.6287  -18.4341  -40.0900 C.3       8 UNK        -0.1800 
     34 N          -1.9135  -18.1079  -42.1511 N.am      8 UNK        -0.5000 
     35 C          -3.0149  -17.3504  -42.0962 C.2       7 UNK         0.5000 
     36 O          -3.8395  -17.4126  -41.1826 O.2       7 UNK        -0.5000 
     37 CA         -3.2376  -16.3719  -43.2719 C.3       7 UNK         0.1400 
     38 CB         -4.0133  -15.1016  -42.8665 C.3       7 UNK        -0.1800 
     39 N          -1.9997  -16.0339  -43.9865 N.am      7 UNK        -0.5000 
     40 C          -0.9316  -15.3942  -43.4924 C.2       6 UNK         0.5000 
     41 O          -0.8775  -14.8835  -42.3714 O.2       6 UNK        -0.5000 
     42 CA          0.3013  -15.3446  -44.4090 C.3       6 UNK         0.1400 
     43 CB          0.4679  -13.9440  -45.0179 C.3       6 UNK        -0.1800 
     44 N           1.5135  -15.7177  -43.6807 N.am      6 UNK        -0.5000 
     45 C           1.7585  -16.9363  -43.1797 C.2       5 UNK         0.5000 
     46 O           1.0000  -17.9013  -43.3142 O.2       5 UNK        -0.5000 
     47 CA          3.1003  -17.1000  -42.4482 C.3       5 UNK         0.1400 
     48 CB          3.3122  -18.5175  -41.8741 C.3       5 UNK        -0.1800 
     49 N           4.1871  -16.7258  -43.3521 N.am      5 UNK        -0.5000 
     50 C           5.4592  -16.5082  -42.9884 C.2       4 UNK         0.5000 
     51 O           5.8743  -16.6257  -41.8347 O.2       4 UNK        -0.5000 
     52 CA          6.4363  -16.0539  -44.0926 C.3       4 UNK         0.1400 
     53 CB          7.0481  -17.2724  -44.8008 C.3       4 UNK        -0.1800 
     54 N           5.8134  -15.1853  -45.0915 N.am      4 UNK        -0.5000 
     55 C           5.2503  -13.9973  -44.8364 C.2       3 UNK         0.5000 
     56 O           5.3119  -13.4394  -43.7401 O.2       3 UNK        -0.5000 
     57 CA          4.4653  -13.3142  -45.9748 C.3       3 UNK         0.1400 
     58 CB          5.2135  -12.0652  -46.4670 C.3       3 UNK        -0.1800 
     59 N           4.1257  -14.1354  -47.1436 N.am      3 UNK        -0.5000 
     60 C           3.4783  -15.3079  -47.1815 C.2       2 UNK         0.5000 
     61 O           3.2145  -15.9826  -46.1861 O.2       2 UNK        -0.5000 
     62 CA          3.0108  -15.7609  -48.5800 C.3       2 UNK         0.1400 
     63 CB          2.4809  -17.2034  -48.5914 C.3       2 UNK        -0.1800 
     64 N           1.9640  -14.8716  -49.0878 N.am      2 UNK        -0.5000 
     65 C           2.1707  -13.6496  -49.5962 C.2       1 UNK         0.5000 
     66 O           3.2928  -13.1518  -49.7306 O.2       1 UNK        -0.5000 
     67 C          -2.2450  -22.0390  -46.2300 C.2       11 UNK         0.5000 
     68 O          -2.8221  -22.6128  -47.1549 O.2       11 UNK        -0.5000 
     69 N          -2.0652  -22.5774  -45.0155 N.am      12 UNK        -0.5000 
     70 CA         -2.4850  -23.9226  -44.6268 C.3       12 UNK         0.1400 
     71 CB         -2.3225  -24.0930  -43.1094 C.3       12 UNK        -0.1800 
     72 C          -1.7226  -25.0221  -45.3876 C.2       12 UNK         0.5000 
     73 O          -2.3515  -25.9601  -45.8766 O.2       12 UNK        -0.5000 
     74 N          -0.3948  -24.8709  -45.5097 N.am      13 UNK        -0.5000 
     75 CA          0.4796  -25.7869  -46.2481 C.3       13 UNK         0.1400 
     76 CB          1.9488  -25.4526  -45.9497 C.3       13 UNK        -0.1800 
     77 C           0.2249  -25.7688  -47.7658 C.2       13 UNK         0.5000 
     78 O           0.3215  -26.8140  -48.4099 O.2       13 UNK        -0.5000 
     79 N          -0.1152  -24.5897  -48.3042 N.am      14 UNK        -0.5000 
     80 CA         -0.5054  -24.4057  -49.7024 C.3       14 UNK         0.1400 
     81 CB         -0.4124  -22.9132  -50.0557 C.3       14 UNK        -0.1800 
     82 C          -1.9226  -24.9267  -50.0051 C.2       14 UNK         0.5000 
     83 O          -2.2153  -25.2130  -51.1652 O.2       14 UNK        -0.5000 
     84 N          -2.7726  -25.0046  -48.9676 N.am      15 UNK        -0.5000 
     85 CA         -4.2227  -25.2193  -49.0149 C.3       15 UNK         0.1400 
     86 CB         -4.5653  -26.6349  -49.5226 C.3       15 UNK        -0.1800 
     87 C          -4.9087  -24.0992  -49.8214 C.2       15 UNK         0.5000 
     88 O          -5.7151  -24.3740  -50.7117 O.2       15 UNK        -0.5000 
     89 N          -4.5203  -22.8510  -49.5194 N.am      16 UNK        -0.5000 
     90 CA         -4.7327  -21.6557  -50.3401 C.3       16 UNK         0.1400 
     91 CB         -4.1399  -20.4351  -49.6189 C.3       16 UNK        -0.1800 
     92 C          -6.1860  -21.3828  -50.7632 C.2       16 UNK         0.5000 
     93 O          -6.4134  -20.9323  -51.8865 O.2       16 UNK        -0.5000 
     94 N          -7.1397  -21.6977  -49.8775 N.am      17 UNK        -0.5000 
     95 CA         -8.5776  -21.5618  -50.1179 C.3       17 UNK         0.1400 
     96 CB         -9.3263  -21.7808  -48.7944 C.3       17 UNK        -0.1800 
     97 C          -9.1198  -22.5107  -51.2065 C.2       17 UNK         0.5000 
     98 O         -10.1125  -22.1747  -51.8537 O.2       17 UNK        -0.5000 
     99 N          -8.4683  -23.6667  -51.3888 N.am      18 UNK        -0.5000 
    100 CA        -8.8045  -24.6599  -52.4072 C.3       18 UNK         0.1400 
    101 CB        -8.6817  -26.0657  -51.7976 C.3       18 UNK        -0.1800 
    102 C         -7.8916  -24.5255  -53.6366 C.2       18 UNK         0.5000 
    103 O         -8.3698  -24.6518  -54.7644 O.2       18 UNK        -0.5000 
    104 N         -6.5957  -24.2796  -53.3994 N.am      19 UNK        -0.5000 
    105 CA        -5.5600  -24.1872  -54.4282 C.3       19 UNK         0.1400 
    106 CB        -4.1822  -24.2827  -53.7566 C.3       19 UNK        -0.1800 
    107 C         -5.6433  -22.9128  -55.2865 C.2       19 UNK         0.5000 
    108 O         -5.2144  -22.9442  -56.4406 O.2       19 UNK        -0.5000 
    109 N         -6.1678  -21.8209  -54.7075 N.am      20 UNK        -0.5000 
    110 CA        -6.2561  -20.4736  -55.2850 C.3       20 UNK         0.1400 
    111 CB        -7.2087  -20.4492  -56.4989 C.3       20 UNK        -0.1800 
    112 C         -4.8701  -19.8570  -55.5829 C.2       20 UNK         0.5000 
    113 O         -4.7157  -19.0989  -56.5423 O.2       20 UNK        -0.5000 
    114 N         -3.8887  -20.1933  -54.7403 N.am      21 UNK        -0.5000 
    115 CA        -2.5185  -19.6983  -54.7541 C.3       21 UNK         0.1400 
    116 CB        -1.6202  -20.6874  -55.5135 C.3       21 UNK        -0.1800 
    117 C         -2.0788  -19.5544  -53.2927 C.2       21 UNK         0.5000 
    118 O         -2.5269  -20.3354  -52.4516 O.2       21 UNK        -0.5000 
    119 N         -1.2486  -18.5479  -53.0075 N.am      22 UNK        -0.5000 
    120 CA        -0.8549  -18.1709  -51.6420 C.3       22 UNK         0.1400 
    121 C          0.0346  -19.2252  -50.9234 C.2       22 UNK         0.5000 
    122 N         -0.0886  -19.3502  -49.6072 N.am      22 UNK        -0.7600 
    123 O          0.8624  -19.8915  -51.5401 O.2       22 UNK        -0.5000 
    124 C124       -0.2007  -16.7648  -51.5892 C.3       23 UNK        -0.0398 
    125 S125       -1.0612  -15.4512  -52.5331 S.3       23 UNK        -0.2404 
    126 C126       -2.7726  -15.4928  -51.9062 C.3       23 UNK        -0.0205 
    127 H127        1.6143   -9.9325  -52.6177 H         1 UNK         0.0600 
    128 H128        1.1203  -10.9092  -54.0032 H         1 UNK         0.0600 
    129 H129        2.8147  -10.8778  -53.5029 H         1 UNK         0.0600 
    130 H130        1.0812  -10.8653  -50.6772 H         1 UNK         0.3000 
    131 H131        0.1668  -13.5214  -50.3451 H         1 UNK         0.0600 
    132 H132        1.0751  -11.5070  -48.2092 H         1 UNK         0.0800 
    133 H133        0.1473  -12.9484  -47.8964 H         1 UNK         0.0800 
    134 H134       -3.3788  -11.6923  -48.0463 H         1 UNK         0.0800 
    135 H135       -2.1273  -12.2640  -46.9722 H         1 UNK         0.0800 
    136 H136       -2.4086  -13.1132  -50.6428 H         1 UNK         0.1150 
    137 H137       -3.3692  -17.2119  -49.8767 H         1 UNK         0.1150 
    138 H138       -2.9840  -14.4787  -46.6100 H         1 UNK         0.1150 
    139 H139       -4.1709  -17.8211  -47.6919 H         1 UNK         0.0800 
    140 H140       -4.0833  -16.7257  -46.3348 H         1 UNK         0.0800 
    141 H141       -2.7338  -19.4813  -44.9670 H         1 UNK         0.0800 
    142 H142       -3.6079  -19.6985  -46.4637 H         1 UNK         0.0800 
    143 H143       -1.4898  -20.5622  -47.5460 H         1 UNK         0.0600 
    144 H144       -0.3753  -20.2198  -44.8282 H         1 UNK         0.3000 
    145 H145        2.6932  -21.6664  -45.6220 H         1 UNK         0.0600 
    146 H146        3.2446  -19.5607  -46.6916 H         1 UNK         0.0600 
    147 H147        3.6977  -19.4312  -45.0055 H         1 UNK         0.0600 
    148 H148        2.2297  -18.6417  -45.5913 H         1 UNK         0.0600 
    149 H149        1.6690  -20.0039  -43.4597 H         1 UNK         0.3000 
    150 H150        0.3491  -22.7978  -41.6360 H         1 UNK         0.0600 
    151 H151        2.9802  -21.3158  -41.1470 H         1 UNK         0.0600 
    152 H152        2.8009  -23.0583  -41.2887 H         1 UNK         0.0600 
    153 H153        2.0476  -22.2118  -39.9483 H         1 UNK         0.0600 
    154 H154        0.6716  -20.3059  -40.5777 H         1 UNK         0.3000 
    155 H155       -2.3913  -19.5202  -40.6870 H         1 UNK         0.0600 
    156 H156       -1.1676  -17.6228  -39.6003 H         1 UNK         0.0600 
    157 H157        0.2815  -18.0098  -40.5143 H         1 UNK         0.0600 
    158 H158       -0.3450  -19.1401  -39.3088 H         1 UNK         0.0600 
    159 H159       -1.2816  -18.0031  -42.9349 H         1 UNK         0.3000 
    160 H160       -3.8581  -16.9156  -43.9843 H         1 UNK         0.0600 
    161 H161       -3.4998  -14.5434  -42.0836 H         1 UNK         0.0600 
    162 H162       -5.0048  -15.3533  -42.4885 H         1 UNK         0.0600 
    163 H163       -4.1520  -14.4362  -43.7186 H         1 UNK         0.0600 
    164 H164       -1.9224  -16.4349  -44.9133 H         1 UNK         0.3000 
    165 H165        0.1719  -16.0584  -45.2258 H         1 UNK         0.0600 
    166 H166        1.2780  -13.9228  -45.7447 H         1 UNK         0.0600 
    167 H167       -0.4400  -13.6364  -45.5380 H         1 UNK         0.0600 
    168 H168        0.6787  -13.1944  -44.2543 H         1 UNK         0.0600 
    169 H169        2.1865  -14.9837  -43.5222 H         1 UNK         0.3000 
    170 H170        3.0857  -16.3956  -41.6142 H         1 UNK         0.0600 
    171 H171        4.1714  -18.5535  -41.2053 H         1 UNK         0.0600 
    172 H172        3.4803  -19.2503  -42.6608 H         1 UNK         0.0600 
    173 H173        2.4509  -18.8397  -41.2903 H         1 UNK         0.0600 
    174 H174        3.9183  -16.5734  -44.3212 H         1 UNK         0.3000 
    175 H175        7.2415  -15.4917  -43.6151 H         1 UNK         0.0600 
    176 H176        7.5403  -17.9329  -44.0857 H         1 UNK         0.0600 
    177 H177        6.2888  -17.8586  -45.3204 H         1 UNK         0.0600 
    178 H178        7.7981  -16.9693  -45.5315 H         1 UNK         0.0600 
    179 H179        5.6883  -15.5730  -46.0147 H         1 UNK         0.3000 
    180 H180        3.5207  -12.9861  -45.5384 H         1 UNK         0.0600 
    181 H181        6.1534  -12.3288  -46.9535 H         1 UNK         0.0600 
    182 H182        5.4481  -11.3927  -45.6406 H         1 UNK         0.0600 
    183 H183        4.6129  -11.5005  -47.1806 H         1 UNK         0.0600 
    184 H184        4.2409  -13.6711  -48.0390 H         1 UNK         0.3000 
    185 H185        3.8724  -15.7187  -49.2497 H         1 UNK         0.0600 
    186 H186        3.2550  -17.8971  -48.2659 H         1 UNK         0.0600 
    187 H187        1.6196  -17.3309  -47.9338 H         1 UNK         0.0600 
    188 H188        2.1872  -17.5045  -49.5963 H         1 UNK         0.0600 
    189 H189        1.0165  -15.1930  -48.9579 H         1 UNK         0.3000 
    190 H190       -1.6318  -22.0101  -44.2923 H         1 UNK         0.3000 
    191 H191       -3.5455  -24.0225  -44.8676 H         1 UNK         0.0600 
    192 H192       -2.8777  -23.3297  -42.5637 H         1 UNK         0.0600 
    193 H193       -2.6970  -25.0644  -42.7845 H         1 UNK         0.0600 
    194 H194       -1.2777  -24.0277  -42.8078 H         1 UNK         0.0600 
    195 H195        0.0643  -24.0994  -45.0316 H         1 UNK         0.3000 
    196 H196        0.2830  -26.8003  -45.8917 H         1 UNK         0.0600 
    197 H197        2.6205  -26.1273  -46.4818 H         1 UNK         0.0600 
    198 H198        2.1666  -25.5509  -44.8861 H         1 UNK         0.0600 
    199 H199        2.1982  -24.4340  -46.2504 H         1 UNK         0.0600 
    200 H200       -0.1423  -23.7715  -47.7125 H         1 UNK         0.3000 
    201 H201        0.1942  -24.9524  -50.3380 H         1 UNK         0.0600 
    202 H202       -0.6990  -22.7331  -51.0929 H         1 UNK         0.0600 
    203 H203        0.6047  -22.5406  -49.9342 H         1 UNK         0.0600 
    204 H204       -1.0684  -22.3080  -49.4292 H         1 UNK         0.0600 
    205 H205       -2.4167  -24.7267  -48.0627 H         1 UNK         0.3000 
    206 H206       -4.5837  -25.1344  -47.9890 H         1 UNK         0.0600 
    207 H207       -4.2870  -26.7733  -50.5677 H         1 UNK         0.0600 
    208 H208       -5.6361  -26.8262  -49.4443 H         1 UNK         0.0600 
    209 H209       -4.0540  -27.3972  -48.9348 H         1 UNK         0.0600 
    210 H210       -3.8752  -22.7427  -48.7408 H         1 UNK         0.3000 
    211 H211       -4.1697  -21.8192  -51.2582 H         1 UNK         0.0600 
    212 H212       -4.6124  -20.2730  -48.6501 H         1 UNK         0.0600 
    213 H213       -4.2746  -19.5285  -50.2103 H         1 UNK         0.0600 
    214 H214       -3.0685  -20.5564  -49.4598 H         1 UNK         0.0600 
    215 H215       -6.8582  -22.0823  -48.9877 H         1 UNK         0.3000 
    216 H216       -8.7663  -20.5394  -50.4520 H         1 UNK         0.0600 
    217 H217      -10.4020  -21.6591  -48.9290 H         1 UNK         0.0600 
    218 H218       -9.1563  -22.7824  -48.3973 H         1 UNK         0.0600 
    219 H219       -9.0116  -21.0608  -48.0387 H         1 UNK         0.0600 
    220 H220       -7.6239  -23.8422  -50.8544 H         1 UNK         0.3000 
    221 H221       -9.8366  -24.5287  -52.7391 H         1 UNK         0.0600 
    222 H222       -7.6699  -26.2676  -51.4433 H         1 UNK         0.0600 
    223 H223       -9.3613  -26.1885  -50.9542 H         1 UNK         0.0600 
    224 H224       -8.9321  -26.8326  -52.5316 H         1 UNK         0.0600 
    225 H225       -6.2773  -24.2383  -52.4337 H         1 UNK         0.3000 
    226 H226       -5.6706  -25.0427  -55.0979 H         1 UNK         0.0600 
    227 H227       -3.3802  -24.2460  -54.4949 H         1 UNK         0.0600 
    228 H228       -4.0174  -23.4662  -53.0529 H         1 UNK         0.0600 
    229 H229       -4.0772  -25.2195  -53.2092 H         1 UNK         0.0600 
    230 H230       -6.4559  -21.8855  -53.7370 H         1 UNK         0.3000 
    231 H231       -6.7008  -19.8460  -54.5115 H         1 UNK         0.0600 
    232 H232       -6.7981  -20.9927  -57.3501 H         1 UNK         0.0600 
    233 H233       -7.3969  -19.4262  -56.8263 H         1 UNK         0.0600 
    234 H234       -8.1733  -20.8923  -56.2511 H         1 UNK         0.0600 
    235 H235       -4.1084  -20.7686  -53.9372 H         1 UNK         0.3000 
    236 H236       -2.4786  -18.7184  -55.2346 H         1 UNK         0.0600 
    237 H237       -1.6326  -21.6758  -55.0518 H         1 UNK         0.0600 
    238 H238       -1.9440  -20.7980  -56.5485 H         1 UNK         0.0600 
    239 H239       -0.5856  -20.3429  -55.5289 H         1 UNK         0.0600 
    240 H240       -0.9017  -17.9566  -53.7481 H         1 UNK         0.3000 
    241 H241       -1.7812  -18.1245  -51.0730 H         1 UNK         0.0600 
    242 H242       -0.7357  -18.7885  -49.0788 H         1 UNK         0.3800 
    243 H243        0.4792  -20.0356  -49.1245 H         1 UNK         0.3800 
    244 H244        0.8213  -16.8123  -51.9697 H         1 UNK         0.0800 
    245 H245       -0.1187  -16.4335  -50.5534 H         1 UNK         0.0800 
    246 H246       -3.3593  -14.7486  -52.4463 H         1 UNK         0.0800 
    247 H247       -3.2251  -16.4576  -52.1394 H         1 UNK         0.0800 
@<TRIPOS>BOND
     1    1    2 1    
     2    1  127 1    
     3    1  128 1    
     4    1  129 1    
     5    2    3 2    
     6    2    4 am   BACKBONE|DICT|INTERRES
     7    4    5 1    
     8    4  130 1    
     9    5    6 1    
    10    5   65 1    
    11    5  131 1    
    12    6    7 1    
    13    6  132 1    
    14    6  133 1    
    15    7    8 1    
    16    8    9 1    
    17    8  134 1    
    18    8  135 1    
    19    9   10 ar   
    20    9   14 ar   
    21   10   11 ar   
    22   10  136 1    
    23   11   12 ar   
    24   11  126 1    
    25   12   13 ar   
    26   12  137 1    
    27   13   14 ar   
    28   13   15 1    
    29   14  138 1    
    30   15   16 1    
    31   15  139 1    
    32   15  140 1    
    33   16   17 1    
    34   17   18 1    
    35   17  141 1    
    36   17  142 1    
    37   18   19 1    
    38   18   67 1    
    39   18  143 1    
    40   19   20 am   BACKBONE|DICT|INTERRES
    41   19  144 1    
    42   20   21 2    
    43   20   22 1    
    44   22   23 1    
    45   22   24 1    
    46   22  145 1    
    47   23  146 1    
    48   23  147 1    
    49   23  148 1    
    50   24   25 am   BACKBONE|DICT|INTERRES
    51   24  149 1    
    52   25   26 2    
    53   25   27 1    
    54   27   28 1    
    55   27   29 1    
    56   27  150 1    
    57   28  151 1    
    58   28  152 1    
    59   28  153 1    
    60   29   30 am   BACKBONE|DICT|INTERRES
    61   29  154 1    
    62   30   31 2    
    63   30   32 1    
    64   32   33 1    
    65   32   34 1    
    66   32  155 1    
    67   33  156 1    
    68   33  157 1    
    69   33  158 1    
    70   34   35 am   BACKBONE|DICT|INTERRES
    71   34  159 1    
    72   35   36 2    
    73   35   37 1    
    74   37   38 1    
    75   37   39 1    
    76   37  160 1    
    77   38  161 1    
    78   38  162 1    
    79   38  163 1    
    80   39   40 am   BACKBONE|DICT|INTERRES
    81   39  164 1    
    82   40   41 2    
    83   40   42 1    
    84   42   43 1    
    85   42   44 1    
    86   42  165 1    
    87   43  166 1    
    88   43  167 1    
    89   43  168 1    
    90   44   45 am   BACKBONE|DICT|INTERRES
    91   44  169 1    
    92   45   46 2    
    93   45   47 1    
    94   47   48 1    
    95   47   49 1    
    96   47  170 1    
    97   48  171 1    
    98   48  172 1    
    99   48  173 1    
   100   49   50 am   BACKBONE|DICT|INTERRES
   101   49  174 1    
   102   50   51 2    
   103   50   52 1    
   104   52   53 1    
   105   52   54 1    
   106   52  175 1    
   107   53  176 1    
   108   53  177 1    
   109   53  178 1    
   110   54   55 am   BACKBONE|DICT|INTERRES
   111   54  179 1    
   112   55   56 2    
   113   55   57 1    
   114   57   58 1    
   115   57   59 1    
   116   57  180 1    
   117   58  181 1    
   118   58  182 1    
   119   58  183 1    
   120   59   60 am   BACKBONE|DICT|INTERRES
   121   59  184 1    
   122   60   61 2    
   123   60   62 1    
   124   62   63 1    
   125   62   64 1    
   126   62  185 1    
   127   63  186 1    
   128   63  187 1    
   129   63  188 1    
   130   64   65 am   BACKBONE|DICT|INTERRES
   131   64  189 1    
   132   65   66 2    
   133   67   68 2    
   134   67   69 am   BACKBONE|DICT|INTERRES
   135   69   70 1    
   136   69  190 1    
   137   70   71 1    
   138   70   72 1    
   139   70  191 1    
   140   71  192 1    
   141   71  193 1    
   142   71  194 1    
   143   72   73 2    
   144   72   74 am   BACKBONE|DICT|INTERRES
   145   74   75 1    
   146   74  195 1    
   147   75   76 1    
   148   75   77 1    
   149   75  196 1    
   150   76  197 1    
   151   76  198 1    
   152   76  199 1    
   153   77   78 2    
   154   77   79 am   BACKBONE|DICT|INTERRES
   155   79   80 1    
   156   79  200 1    
   157   80   81 1    
   158   80   82 1    
   159   80  201 1    
   160   81  202 1    
   161   81  203 1    
   162   81  204 1    
   163   82   83 2    
   164   82   84 am   BACKBONE|DICT|INTERRES
   165   84   85 1    
   166   84  205 1    
   167   85   86 1    
   168   85   87 1    
   169   85  206 1    
   170   86  207 1    
   171   86  208 1    
   172   86  209 1    
   173   87   88 2    
   174   87   89 am   BACKBONE|DICT|INTERRES
   175   89   90 1    
   176   89  210 1    
   177   90   91 1    
   178   90   92 1    
   179   90  211 1    
   180   91  212 1    
   181   91  213 1    
   182   91  214 1    
   183   92   93 2    
   184   92   94 am   BACKBONE|DICT|INTERRES
   185   94   95 1    
   186   94  215 1    
   187   95   96 1    
   188   95   97 1    
   189   95  216 1    
   190   96  217 1    
   191   96  218 1    
   192   96  219 1    
   193   97   98 2    
   194   97   99 am   BACKBONE|DICT|INTERRES
   195   99  100 1    
   196   99  220 1    
   197  100  101 1    
   198  100  102 1    
   199  100  221 1    
   200  101  222 1    
   201  101  223 1    
   202  101  224 1    
   203  102  103 2    
   204  102  104 am   BACKBONE|DICT|INTERRES
   205  104  105 1    
   206  104  225 1    
   207  105  106 1    
   208  105  107 1    
   209  105  226 1    
   210  106  227 1    
   211  106  228 1    
   212  106  229 1    
   213  107  108 2    
   214  107  109 am   BACKBONE|DICT|INTERRES
   215  109  110 1    
   216  109  230 1    
   217  110  111 1    
   218  110  112 1    
   219  110  231 1    
   220  111  232 1    
   221  111  233 1    
   222  111  234 1    
   223  112  113 2    
   224  112  114 am   BACKBONE|DICT|INTERRES
   225  114  115 1    
   226  114  235 1    
   227  115  116 1    
   228  115  117 1    
   229  115  236 1    
   230  116  237 1    
   231  116  238 1    
   232  116  239 1    
   233  117  118 2    
   234  117  119 am   BACKBONE|DICT|INTERRES
   235  119  120 1    
   236  119  240 1    
   237  120  121 1    
   238  120  124 1    
   239  120  241 1    
   240  121  122 am   BACKBONE|DICT|INTERRES
   241  121  123 2    
   242  122  242 1    
   243  122  243 1    
   244  124  125 1    
   245  124  244 1    
   246  124  245 1    
   247  125  126 1    
   248  126  246 1    
   249  126  247 1    
@<TRIPOS>SUBSTRUCTURE
     1 UNK         1 GROUP             0       ****    0 ROOT    
