@<TRIPOS>MOLECULE
3R540
247   249    1
SMALL
USER_CHARGES


@<TRIPOS>ATOM
      1 CA         -5.6483  -12.1119  -50.2199 C.3       0 UNK        -0.1800 
      2 C          -4.8141  -13.3381  -49.8797 C.2       0 UNK         0.5000 
      3 O          -3.5870  -13.2912  -49.9715 O.2       0 UNK        -0.5000 
      4 N          -5.4695  -14.4316  -49.4720 N.am      1 UNK        -0.5000 
      5 CA         -4.8694  -15.7197  -49.1010 C.3       1 UNK         0.1400 
      6 C6         -5.8599  -16.8946  -49.2951 C.3       23 UNK        -0.0398 
      7 S7         -7.4636  -16.6935  -48.4383 S.3       23 UNK        -0.2404 
      8 C8         -8.5114  -17.8787  -49.3545 C.3       23 UNK        -0.0205 
      9 C9         -7.9793  -19.3118  -49.4016 C.ar      23 UNK        -0.0193 
     10 C10        -8.2801  -20.1144  -50.5049 C.ar      23 UNK        -0.1150 
     11 C11        -7.8114  -21.4291  -50.5855 C.ar      23 UNK        -0.0193 
     12 C12        -7.0062  -21.9367  -49.5609 C.ar      23 UNK        -0.1150 
     13 C13        -6.7064  -21.1530  -48.4415 C.ar      23 UNK        -0.0193 
     14 C14        -7.2205  -19.8549  -48.3595 C.ar      23 UNK        -0.1150 
     15 C15        -5.8772  -21.7288  -47.2991 C.3       23 UNK        -0.0205 
     16 S16        -4.6123  -20.5687  -46.6785 S.3       23 UNK        -0.2404 
     17 C17        -4.0121  -21.4753  -45.2144 C.3       23 UNK        -0.0398 
     18 CA         -2.5117  -21.8475  -45.3025 C.3       11 UNK         0.1400 
     19 N          -1.9384  -22.2598  -44.0180 N.am      11 UNK        -0.5000 
     20 C          -2.3260  -23.2492  -43.2004 C.2       10 UNK         0.5000 
     21 O          -3.2768  -23.9946  -43.4378 O.2       10 UNK        -0.5000 
     22 CA         -1.5062  -23.4540  -41.9144 C.3       10 UNK         0.1400 
     23 CB         -0.3127  -24.3798  -42.1901 C.3       10 UNK        -0.1800 
     24 N          -1.0054  -22.1832  -41.3885 N.am      10 UNK        -0.5000 
     25 C          -1.3649  -21.6332  -40.2204 C.2       9 UNK         0.5000 
     26 O          -2.1158  -22.1753  -39.4084 O.2       9 UNK        -0.5000 
     27 CA         -0.8034  -20.2292  -39.9048 C.3       9 UNK         0.1400 
     28 CB          0.4895  -20.3388  -39.0825 C.3       9 UNK        -0.1800 
     29 N          -0.5340  -19.4279  -41.0996 N.am      9 UNK        -0.5000 
     30 C          -1.4572  -19.0304  -41.9856 C.2       8 UNK         0.5000 
     31 O          -2.6671  -19.1961  -41.8303 O.2       8 UNK        -0.5000 
     32 CA         -0.9516  -18.3734  -43.2846 C.3       8 UNK         0.1400 
     33 CB         -1.1614  -16.8521  -43.2257 C.3       8 UNK        -0.1800 
     34 N           0.4486  -18.6541  -43.6302 N.am      8 UNK        -0.5000 
     35 C           1.0037  -19.8627  -43.8103 C.2       7 UNK         0.5000 
     36 O           0.4026  -20.9229  -43.6474 O.2       7 UNK        -0.5000 
     37 CA          2.4876  -19.8995  -44.2024 C.3       7 UNK         0.1400 
     38 CB          2.6433  -19.7728  -45.7247 C.3       7 UNK        -0.1800 
     39 N           3.2431  -18.8440  -43.5295 N.am      7 UNK        -0.5000 
     40 C           3.6586  -18.9160  -42.2561 C.2       6 UNK         0.5000 
     41 O           3.4946  -19.9032  -41.5388 O.2       6 UNK        -0.5000 
     42 CA          4.3575  -17.6703  -41.6789 C.3       6 UNK         0.1400 
     43 CB          5.8658  -17.7167  -41.9662 C.3       6 UNK        -0.1800 
     44 N           3.8062  -16.4206  -42.2031 N.am      6 UNK        -0.5000 
     45 C           2.5835  -15.9507  -41.9182 C.2       5 UNK         0.5000 
     46 O           1.8113  -16.4896  -41.1253 O.2       5 UNK        -0.5000 
     47 CA          2.1362  -14.6845  -42.6759 C.3       5 UNK         0.1400 
     48 CB          2.4772  -13.4246  -41.8667 C.3       5 UNK        -0.1800 
     49 N           2.7088  -14.5630  -44.0215 N.am      5 UNK        -0.5000 
     50 C           2.5139  -15.4376  -45.0166 C.2       4 UNK         0.5000 
     51 O           1.8544  -16.4719  -44.8972 O.2       4 UNK        -0.5000 
     52 CA          3.1623  -15.1049  -46.3647 C.3       4 UNK         0.1400 
     53 CB          3.9449  -16.3045  -46.9218 C.3       4 UNK        -0.1800 
     54 N           2.0971  -14.7451  -47.2907 N.am      4 UNK        -0.5000 
     55 C           1.7933  -13.4937  -47.6514 C.2       3 UNK         0.5000 
     56 O           2.4657  -12.5070  -47.3476 O.2       3 UNK        -0.5000 
     57 CA          0.4942  -13.3072  -48.4544 C.3       3 UNK         0.1400 
     58 CB          0.6755  -13.7373  -49.9169 C.3       3 UNK        -0.1800 
     59 N          -0.6409  -14.0250  -47.8712 N.am      3 UNK        -0.5000 
     60 C          -1.2107  -13.7235  -46.6943 C.2       2 UNK         0.5000 
     61 O          -0.8023  -12.8303  -45.9508 O.2       2 UNK        -0.5000 
     62 CA         -2.4778  -14.5142  -46.3203 C.3       2 UNK         0.1400 
     63 CB         -3.3150  -13.8340  -45.2185 C.3       2 UNK        -0.1800 
     64 N          -3.2887  -14.7240  -47.5170 N.am      2 UNK        -0.5000 
     65 C          -4.1936  -15.6888  -47.7071 C.2       1 UNK         0.5000 
     66 O          -4.4893  -16.5142  -46.8423 O.2       1 UNK        -0.5000 
     67 C          -2.2021  -22.8543  -46.4280 C.2       11 UNK         0.5000 
     68 O          -1.5824  -22.4781  -47.4241 O.2       11 UNK        -0.5000 
     69 N          -2.5972  -24.1171  -46.2244 N.am      12 UNK        -0.5000 
     70 CA         -2.4190  -25.2411  -47.1469 C.3       12 UNK         0.1400 
     71 CB         -3.3619  -26.3754  -46.7164 C.3       12 UNK        -0.1800 
     72 C          -0.9650  -25.7475  -47.2508 C.2       12 UNK         0.5000 
     73 O          -0.6746  -26.5771  -48.1132 O.2       12 UNK        -0.5000 
     74 N          -0.0727  -25.2388  -46.3884 N.am      13 UNK        -0.5000 
     75 CA          1.3740  -25.4720  -46.4322 C.3       13 UNK         0.1400 
     76 CB          1.9933  -24.9846  -45.1133 C.3       13 UNK        -0.1800 
     77 C           2.0671  -24.7943  -47.6339 C.2       13 UNK         0.5000 
     78 O           3.2029  -25.1463  -47.9549 O.2       13 UNK        -0.5000 
     79 N           1.3764  -23.8441  -48.2718 N.am      14 UNK        -0.5000 
     80 CA          1.7760  -23.1592  -49.4927 C.3       14 UNK         0.1400 
     81 CB          2.3503  -21.7815  -49.1169 C.3       14 UNK        -0.1800 
     82 C           0.5469  -23.0468  -50.4115 C.2       14 UNK         0.5000 
     83 O          -0.5325  -23.5376  -50.0697 O.2       14 UNK        -0.5000 
     84 N           0.7164  -22.3916  -51.5653 N.am      15 UNK        -0.5000 
     85 CA         -0.3549  -22.0985  -52.5184 C.3       15 UNK         0.1400 
     86 CB          0.2762  -21.7610  -53.8796 C.3       15 UNK        -0.1800 
     87 C          -1.2578  -20.9655  -51.9912 C.2       15 UNK         0.5000 
     88 O          -1.0872  -19.8129  -52.3960 O.2       15 UNK        -0.5000 
     89 N          -2.1547  -21.3195  -51.0581 N.am      16 UNK        -0.5000 
     90 CA         -3.1051  -20.4550  -50.3498 C.3       16 UNK         0.1400 
     91 CB         -4.1660  -19.8974  -51.3204 C.3       16 UNK        -0.1800 
     92 C          -2.3700  -19.3557  -49.5623 C.2       16 UNK         0.5000 
     93 O          -2.5619  -18.1674  -49.8219 O.2       16 UNK        -0.5000 
     94 N          -1.4760  -19.7916  -48.6611 N.am      17 UNK        -0.5000 
     95 CA         -0.5599  -18.9599  -47.8714 C.3       17 UNK         0.1400 
     96 CB         -1.3372  -18.0737  -46.8869 C.3       17 UNK        -0.1800 
     97 C           0.4114  -18.1393  -48.7471 C.2       17 UNK         0.5000 
     98 O           0.7244  -16.9938  -48.4196 O.2       17 UNK        -0.5000 
     99 N           0.8549  -18.7565  -49.8516 N.am      18 UNK        -0.5000 
    100 CA         1.7831  -18.2365  -50.8611 C.3       18 UNK         0.1400 
    101 CB         3.1447  -17.8742  -50.2336 C.3       18 UNK        -0.1800 
    102 C          1.2032  -17.0934  -51.7207 C.2       18 UNK         0.5000 
    103 O          1.9675  -16.3406  -52.3261 O.2       18 UNK        -0.5000 
    104 N         -0.1317  -16.9994  -51.7983 N.am      19 UNK        -0.5000 
    105 CA        -0.8490  -16.0678  -52.6725 C.3       19 UNK         0.1400 
    106 CB        -2.2742  -15.8801  -52.1379 C.3       19 UNK        -0.1800 
    107 C         -0.8696  -16.5113  -54.1505 C.2       19 UNK         0.5000 
    108 O         -1.2557  -15.7139  -55.0059 O.2       19 UNK        -0.5000 
    109 N         -0.4506  -17.7576  -54.4189 N.am      20 UNK        -0.5000 
    110 CA        -0.3761  -18.4200  -55.7239 C.3       20 UNK         0.1400 
    111 CB         0.5254  -17.6491  -56.7123 C.3       20 UNK        -0.1800 
    112 C         -1.7752  -18.7446  -56.2780 C.2       20 UNK         0.5000 
    113 O         -2.0641  -18.4822  -57.4472 O.2       20 UNK        -0.5000 
    114 N         -2.6148  -19.3224  -55.4136 N.am      21 UNK        -0.5000 
    115 CA        -3.9512  -19.8160  -55.7271 C.3       21 UNK         0.1400 
    116 CB        -4.9906  -18.8243  -55.1769 C.3       21 UNK        -0.1800 
    117 C         -4.1300  -21.2068  -55.1010 C.2       21 UNK         0.5000 
    118 O         -3.3395  -21.5997  -54.2421 O.2       21 UNK        -0.5000 
    119 N         -5.1758  -21.9218  -55.5302 N.am      22 UNK        -0.5000 
    120 CA        -5.6275  -23.2053  -54.9548 C.3       22 UNK         0.1400 
    121 C         -4.6540  -24.4088  -55.1580 C.2       22 UNK         0.5000 
    122 N         -3.6810  -24.3286  -56.0572 N.am      22 UNK        -0.7600 
    123 O         -4.8017  -25.4481  -54.5203 O.2       22 UNK        -0.5000 
    124 C124       -6.1048  -23.0649  -53.4788 C.3       23 UNK        -0.0398 
    125 S125       -7.4209  -21.8096  -53.3078 S.3       23 UNK        -0.2404 
    126 C126       -8.2304  -22.3061  -51.7562 C.3       23 UNK        -0.0205 
    127 H127       -5.4785  -11.8194  -51.2561 H         1 UNK         0.0600 
    128 H128       -6.7147  -12.2977  -50.0888 H         1 UNK         0.0600 
    129 H129       -5.3664  -11.2772  -49.5780 H         1 UNK         0.0600 
    130 H130       -6.4751  -14.3967  -49.3794 H         1 UNK         0.3000 
    131 H131       -4.0559  -15.9078  -49.8011 H         1 UNK         0.0600 
    132 H132       -5.3985  -17.8300  -48.9746 H         1 UNK         0.0800 
    133 H133       -6.0576  -17.0165  -50.3609 H         1 UNK         0.0800 
    134 H134       -8.6443  -17.4987  -50.3687 H         1 UNK         0.0800 
    135 H135       -9.5015  -17.8926  -48.8977 H         1 UNK         0.0800 
    136 H136       -8.8937  -19.7209  -51.3034 H         1 UNK         0.1150 
    137 H137       -6.6399  -22.9519  -49.6209 H         1 UNK         0.1150 
    138 H138       -7.0115  -19.2601  -47.4821 H         1 UNK         0.1150 
    139 H139       -6.5555  -21.9920  -46.4865 H         1 UNK         0.0800 
    140 H140       -5.3826  -22.6508  -47.6096 H         1 UNK         0.0800 
    141 H141       -4.6269  -22.3596  -45.0414 H         1 UNK         0.0800 
    142 H142       -4.1739  -20.8292  -44.3503 H         1 UNK         0.0800 
    143 H143       -1.9696  -20.9357  -45.5572 H         1 UNK         0.0600 
    144 H144       -1.0858  -21.7574  -43.7749 H         1 UNK         0.3000 
    145 H145       -2.1587  -23.9445  -41.1893 H         1 UNK         0.0600 
    146 H146        0.2119  -24.6266  -41.2671 H         1 UNK         0.0600 
    147 H147       -0.6350  -25.3185  -42.6430 H         1 UNK         0.0600 
    148 H148        0.4046  -23.9122  -42.8646 H         1 UNK         0.0600 
    149 H149       -0.3911  -21.6552  -41.9989 H         1 UNK         0.3000 
    150 H150       -1.5491  -19.7010  -39.3073 H         1 UNK         0.0600 
    151 H151        0.3245  -20.9097  -38.1678 H         1 UNK         0.0600 
    152 H152        0.8554  -19.3544  -38.7896 H         1 UNK         0.0600 
    153 H153        1.2814  -20.8370  -39.6437 H         1 UNK         0.0600 
    154 H154        0.4346  -19.2253  -41.3022 H         1 UNK         0.3000 
    155 H155       -1.5661  -18.7738  -44.0906 H         1 UNK         0.0600 
    156 H156       -0.6482  -16.4134  -42.3702 H         1 UNK         0.0600 
    157 H157       -2.2203  -16.6082  -43.1312 H         1 UNK         0.0600 
    158 H158       -0.7939  -16.3582  -44.1243 H         1 UNK         0.0600 
    159 H159        1.0186  -17.8417  -43.8491 H         1 UNK         0.3000 
    160 H160        2.8922  -20.8692  -43.9039 H         1 UNK         0.0600 
    161 H161        3.6930  -19.7570  -46.0181 H         1 UNK         0.0600 
    162 H162        2.1726  -18.8666  -46.1048 H         1 UNK         0.0600 
    163 H163        2.1778  -20.6199  -46.2292 H         1 UNK         0.0600 
    164 H164        3.3552  -17.9759  -44.0337 H         1 UNK         0.3000 
    165 H165        4.2151  -17.6801  -40.5961 H         1 UNK         0.0600 
    166 H166        6.3817  -16.8759  -41.5022 H         1 UNK         0.0600 
    167 H167        6.3107  -18.6294  -41.5676 H         1 UNK         0.0600 
    168 H168        6.0742  -17.6902  -43.0366 H         1 UNK         0.0600 
    169 H169        4.3785  -15.9055  -42.8556 H         1 UNK         0.3000 
    170 H170        1.0514  -14.7334  -42.7850 H         1 UNK         0.0600 
    171 H171        2.0433  -13.4730  -40.8670 H         1 UNK         0.0600 
    172 H172        3.5545  -13.2989  -41.7516 H         1 UNK         0.0600 
    173 H173        2.0829  -12.5287  -42.3468 H         1 UNK         0.0600 
    174 H174        3.2489  -13.7293  -44.2042 H         1 UNK         0.3000 
    175 H175        3.8654  -14.2804  -46.2306 H         1 UNK         0.0600 
    176 H176        3.2882  -17.1383  -47.1675 H         1 UNK         0.0600 
    177 H177        4.4832  -16.0294  -47.8286 H         1 UNK         0.0600 
    178 H178        4.6819  -16.6635  -46.2026 H         1 UNK         0.0600 
    179 H179        1.4887  -15.5070  -47.5863 H         1 UNK         0.3000 
    180 H180        0.2515  -12.2424  -48.4481 H         1 UNK         0.0600 
    181 H181        0.9081  -14.7982  -49.9938 H         1 UNK         0.0600 
    182 H182        1.4913  -13.1885  -50.3887 H         1 UNK         0.0600 
    183 H183       -0.2263  -13.5480  -50.4996 H         1 UNK         0.0600 
    184 H184       -1.0005  -14.8039  -48.4039 H         1 UNK         0.3000 
    185 H185       -2.1434  -15.4805  -45.9429 H         1 UNK         0.0600 
    186 H186       -2.7291  -13.6963  -44.3090 H         1 UNK         0.0600 
    187 H187       -3.6712  -12.8534  -45.5361 H         1 UNK         0.0600 
    188 H188       -4.1837  -14.4353  -44.9504 H         1 UNK         0.0600 
    189 H189       -3.1287  -14.0759  -48.2854 H         1 UNK         0.3000 
    190 H190       -3.0480  -24.3252  -45.3376 H         1 UNK         0.3000 
    191 H191       -2.7128  -24.9090  -48.1450 H         1 UNK         0.0600 
    192 H192       -3.1221  -26.7377  -45.7159 H         1 UNK         0.0600 
    193 H193       -3.2949  -27.2237  -47.3988 H         1 UNK         0.0600 
    194 H194       -4.4007  -26.0446  -46.7137 H         1 UNK         0.0600 
    195 H195       -0.4035  -24.5702  -45.7099 H         1 UNK         0.3000 
    196 H196        1.5474  -26.5466  -46.5180 H         1 UNK         0.0600 
    197 H197        1.8131  -23.9207  -44.9520 H         1 UNK         0.0600 
    198 H198        3.0732  -25.1384  -45.1066 H         1 UNK         0.0600 
    199 H199        1.5871  -25.5328  -44.2636 H         1 UNK         0.0600 
    200 H200        0.4156  -23.6738  -47.9976 H         1 UNK         0.3000 
    201 H201        2.5326  -23.7395  -50.0248 H         1 UNK         0.0600 
    202 H202        2.6890  -21.2308  -49.9945 H         1 UNK         0.0600 
    203 H203        3.2104  -21.8845  -48.4549 H         1 UNK         0.0600 
    204 H204        1.6100  -21.1711  -48.6011 H         1 UNK         0.0600 
    205 H205        1.6297  -22.0286  -51.7956 H         1 UNK         0.3000 
    206 H206       -0.9745  -22.9882  -52.6523 H         1 UNK         0.0600 
    207 H207        0.8589  -22.5996  -54.2608 H         1 UNK         0.0600 
    208 H208       -0.4957  -21.5438  -54.6186 H         1 UNK         0.0600 
    209 H209        0.9366  -20.8954  -53.8183 H         1 UNK         0.0600 
    210 H210       -2.1145  -22.2796  -50.7348 H         1 UNK         0.3000 
    211 H211       -3.6194  -21.0811  -49.6193 H         1 UNK         0.0600 
    212 H212       -3.7275  -19.2259  -52.0584 H         1 UNK         0.0600 
    213 H213       -4.9335  -19.3422  -50.7824 H         1 UNK         0.0600 
    214 H214       -4.6705  -20.6998  -51.8566 H         1 UNK         0.0600 
    215 H215       -1.4195  -20.7919  -48.4891 H         1 UNK         0.3000 
    216 H216        0.0486  -19.6491  -47.2859 H         1 UNK         0.0600 
    217 H217       -0.6614  -17.6089  -46.1695 H         1 UNK         0.0600 
    218 H218       -2.0849  -18.6408  -46.3351 H         1 UNK         0.0600 
    219 H219       -1.8528  -17.2746  -47.4137 H         1 UNK         0.0600 
    220 H220        0.4686  -19.6667  -50.0501 H         1 UNK         0.3000 
    221 H221        1.9547  -19.0634  -51.5515 H         1 UNK         0.0600 
    222 H222        3.0841  -16.9531  -49.6544 H         1 UNK         0.0600 
    223 H223        3.5060  -18.6651  -49.5763 H         1 UNK         0.0600 
    224 H224        3.9008  -17.7209  -51.0042 H         1 UNK         0.0600 
    225 H225       -0.7004  -17.6667  -51.2911 H         1 UNK         0.3000 
    226 H226       -0.3471  -15.0989  -52.6333 H         1 UNK         0.0600 
    227 H227       -2.8373  -16.8138  -52.1531 H         1 UNK         0.0600 
    228 H228       -2.2493  -15.5118  -51.1131 H         1 UNK         0.0600 
    229 H229       -2.8270  -15.1506  -52.7309 H         1 UNK         0.0600 
    230 H230       -0.2718  -18.3543  -53.6185 H         1 UNK         0.3000 
    231 H231        0.1067  -19.3802  -55.5466 H         1 UNK         0.0600 
    232 H232        1.4995  -17.4350  -56.2726 H         1 UNK         0.0600 
    233 H233        0.0814  -16.7034  -57.0232 H         1 UNK         0.0600 
    234 H234        0.6987  -18.2358  -57.6151 H         1 UNK         0.0600 
    235 H235       -2.2852  -19.5578  -54.4843 H         1 UNK         0.3000 
    236 H236       -4.0794  -19.9154  -56.8070 H         1 UNK         0.0600 
    237 H237       -4.8607  -17.8353  -55.6167 H         1 UNK         0.0600 
    238 H238       -6.0064  -19.1499  -55.4037 H         1 UNK         0.0600 
    239 H239       -4.9148  -18.7202  -54.0944 H         1 UNK         0.0600 
    240 H240       -5.7704  -21.5365  -56.2496 H         1 UNK         0.3000 
    241 H241       -6.5043  -23.4816  -55.5413 H         1 UNK         0.0600 
    242 H242       -3.5480  -23.4856  -56.5921 H         1 UNK         0.3800 
    243 H243       -3.0639  -25.1136  -56.1933 H         1 UNK         0.3800 
    244 H244       -6.4948  -24.0189  -53.1216 H         1 UNK         0.0800 
    245 H245       -5.2750  -22.8086  -52.8194 H         1 UNK         0.0800 
    246 H246       -9.3098  -22.2188  -51.8889 H         1 UNK         0.0800 
    247 H247       -8.0427  -23.3587  -51.5411 H         1 UNK         0.0800 
@<TRIPOS>BOND
     1    1    2 1    
     2    1  127 1    
     3    1  128 1    
     4    1  129 1    
     5    2    3 2    
     6    2    4 am   BACKBONE|DICT|INTERRES
     7    4    5 1    
     8    4  130 1    
     9    5    6 1    
    10    5   65 1    
    11    5  131 1    
    12    6    7 1    
    13    6  132 1    
    14    6  133 1    
    15    7    8 1    
    16    8    9 1    
    17    8  134 1    
    18    8  135 1    
    19    9   10 ar   
    20    9   14 ar   
    21   10   11 ar   
    22   10  136 1    
    23   11   12 ar   
    24   11  126 1    
    25   12   13 ar   
    26   12  137 1    
    27   13   14 ar   
    28   13   15 1    
    29   14  138 1    
    30   15   16 1    
    31   15  139 1    
    32   15  140 1    
    33   16   17 1    
    34   17   18 1    
    35   17  141 1    
    36   17  142 1    
    37   18   19 1    
    38   18   67 1    
    39   18  143 1    
    40   19   20 am   BACKBONE|DICT|INTERRES
    41   19  144 1    
    42   20   21 2    
    43   20   22 1    
    44   22   23 1    
    45   22   24 1    
    46   22  145 1    
    47   23  146 1    
    48   23  147 1    
    49   23  148 1    
    50   24   25 am   BACKBONE|DICT|INTERRES
    51   24  149 1    
    52   25   26 2    
    53   25   27 1    
    54   27   28 1    
    55   27   29 1    
    56   27  150 1    
    57   28  151 1    
    58   28  152 1    
    59   28  153 1    
    60   29   30 am   BACKBONE|DICT|INTERRES
    61   29  154 1    
    62   30   31 2    
    63   30   32 1    
    64   32   33 1    
    65   32   34 1    
    66   32  155 1    
    67   33  156 1    
    68   33  157 1    
    69   33  158 1    
    70   34   35 am   BACKBONE|DICT|INTERRES
    71   34  159 1    
    72   35   36 2    
    73   35   37 1    
    74   37   38 1    
    75   37   39 1    
    76   37  160 1    
    77   38  161 1    
    78   38  162 1    
    79   38  163 1    
    80   39   40 am   BACKBONE|DICT|INTERRES
    81   39  164 1    
    82   40   41 2    
    83   40   42 1    
    84   42   43 1    
    85   42   44 1    
    86   42  165 1    
    87   43  166 1    
    88   43  167 1    
    89   43  168 1    
    90   44   45 am   BACKBONE|DICT|INTERRES
    91   44  169 1    
    92   45   46 2    
    93   45   47 1    
    94   47   48 1    
    95   47   49 1    
    96   47  170 1    
    97   48  171 1    
    98   48  172 1    
    99   48  173 1    
   100   49   50 am   BACKBONE|DICT|INTERRES
   101   49  174 1    
   102   50   51 2    
   103   50   52 1    
   104   52   53 1    
   105   52   54 1    
   106   52  175 1    
   107   53  176 1    
   108   53  177 1    
   109   53  178 1    
   110   54   55 am   BACKBONE|DICT|INTERRES
   111   54  179 1    
   112   55   56 2    
   113   55   57 1    
   114   57   58 1    
   115   57   59 1    
   116   57  180 1    
   117   58  181 1    
   118   58  182 1    
   119   58  183 1    
   120   59   60 am   BACKBONE|DICT|INTERRES
   121   59  184 1    
   122   60   61 2    
   123   60   62 1    
   124   62   63 1    
   125   62   64 1    
   126   62  185 1    
   127   63  186 1    
   128   63  187 1    
   129   63  188 1    
   130   64   65 am   BACKBONE|DICT|INTERRES
   131   64  189 1    
   132   65   66 2    
   133   67   68 2    
   134   67   69 am   BACKBONE|DICT|INTERRES
   135   69   70 1    
   136   69  190 1    
   137   70   71 1    
   138   70   72 1    
   139   70  191 1    
   140   71  192 1    
   141   71  193 1    
   142   71  194 1    
   143   72   73 2    
   144   72   74 am   BACKBONE|DICT|INTERRES
   145   74   75 1    
   146   74  195 1    
   147   75   76 1    
   148   75   77 1    
   149   75  196 1    
   150   76  197 1    
   151   76  198 1    
   152   76  199 1    
   153   77   78 2    
   154   77   79 am   BACKBONE|DICT|INTERRES
   155   79   80 1    
   156   79  200 1    
   157   80   81 1    
   158   80   82 1    
   159   80  201 1    
   160   81  202 1    
   161   81  203 1    
   162   81  204 1    
   163   82   83 2    
   164   82   84 am   BACKBONE|DICT|INTERRES
   165   84   85 1    
   166   84  205 1    
   167   85   86 1    
   168   85   87 1    
   169   85  206 1    
   170   86  207 1    
   171   86  208 1    
   172   86  209 1    
   173   87   88 2    
   174   87   89 am   BACKBONE|DICT|INTERRES
   175   89   90 1    
   176   89  210 1    
   177   90   91 1    
   178   90   92 1    
   179   90  211 1    
   180   91  212 1    
   181   91  213 1    
   182   91  214 1    
   183   92   93 2    
   184   92   94 am   BACKBONE|DICT|INTERRES
   185   94   95 1    
   186   94  215 1    
   187   95   96 1    
   188   95   97 1    
   189   95  216 1    
   190   96  217 1    
   191   96  218 1    
   192   96  219 1    
   193   97   98 2    
   194   97   99 am   BACKBONE|DICT|INTERRES
   195   99  100 1    
   196   99  220 1    
   197  100  101 1    
   198  100  102 1    
   199  100  221 1    
   200  101  222 1    
   201  101  223 1    
   202  101  224 1    
   203  102  103 2    
   204  102  104 am   BACKBONE|DICT|INTERRES
   205  104  105 1    
   206  104  225 1    
   207  105  106 1    
   208  105  107 1    
   209  105  226 1    
   210  106  227 1    
   211  106  228 1    
   212  106  229 1    
   213  107  108 2    
   214  107  109 am   BACKBONE|DICT|INTERRES
   215  109  110 1    
   216  109  230 1    
   217  110  111 1    
   218  110  112 1    
   219  110  231 1    
   220  111  232 1    
   221  111  233 1    
   222  111  234 1    
   223  112  113 2    
   224  112  114 am   BACKBONE|DICT|INTERRES
   225  114  115 1    
   226  114  235 1    
   227  115  116 1    
   228  115  117 1    
   229  115  236 1    
   230  116  237 1    
   231  116  238 1    
   232  116  239 1    
   233  117  118 2    
   234  117  119 am   BACKBONE|DICT|INTERRES
   235  119  120 1    
   236  119  240 1    
   237  120  121 1    
   238  120  124 1    
   239  120  241 1    
   240  121  122 am   BACKBONE|DICT|INTERRES
   241  121  123 2    
   242  122  242 1    
   243  122  243 1    
   244  124  125 1    
   245  124  244 1    
   246  124  245 1    
   247  125  126 1    
   248  126  246 1    
   249  126  247 1    
@<TRIPOS>SUBSTRUCTURE
     1 UNK         1 GROUP             0       ****    0 ROOT    
