@<TRIPOS>MOLECULE
3R540
247   249    1
SMALL
USER_CHARGES


@<TRIPOS>ATOM
      1 CA         -0.1030  -12.8172  -48.0230 C.3       0 UNK        -0.1800 
      2 C           1.3878  -12.8148  -48.3168 C.2       0 UNK         0.5000 
      3 O           1.8075  -12.2854  -49.3457 O.2       0 UNK        -0.5000 
      4 N           2.1896  -13.3987  -47.4156 N.am      1 UNK        -0.5000 
      5 CA          3.6562  -13.4600  -47.5300 C.3       1 UNK         0.1400 
      6 C6          4.2697  -14.6014  -46.6791 C.3       23 UNK        -0.0398 
      7 S7          3.5069  -16.2259  -47.0116 S.3       23 UNK        -0.2404 
      8 C8          4.3100  -16.6887  -48.5765 C.3       23 UNK        -0.0205 
      9 C9          3.4723  -17.7010  -49.3412 C.ar      23 UNK        -0.0193 
     10 C10         2.4149  -17.2677  -50.1476 C.ar      23 UNK        -0.1150 
     11 C11         1.6497  -18.1899  -50.8669 C.ar      23 UNK        -0.0193 
     12 C12         1.9373  -19.5529  -50.7609 C.ar      23 UNK        -0.1150 
     13 C13         2.9833  -20.0026  -49.9510 C.ar      23 UNK        -0.0193 
     14 C14         3.7573  -19.0667  -49.2539 C.ar      23 UNK        -0.1150 
     15 C15         3.2562  -21.5015  -49.8464 C.3       23 UNK        -0.0205 
     16 S16         3.6054  -22.0813  -48.1511 S.3       23 UNK        -0.2404 
     17 C17         2.1645  -21.4478  -47.2282 C.3       23 UNK        -0.0398 
     18 CA          1.1727  -22.5450  -46.7861 C.3       11 UNK         0.1400 
     19 N           0.3171  -22.0670  -45.6991 N.am      11 UNK        -0.5000 
     20 C          -0.5124  -22.8312  -44.9778 C.2       10 UNK         0.5000 
     21 O          -0.6203  -24.0484  -45.1220 O.2       10 UNK        -0.5000 
     22 CA         -1.3977  -22.1063  -43.9488 C.3       10 UNK         0.1400 
     23 CB         -0.6101  -21.8147  -42.6630 C.3       10 UNK        -0.1800 
     24 N          -1.9658  -20.8631  -44.4735 N.am      10 UNK        -0.5000 
     25 C          -2.8426  -20.8030  -45.4862 C.2       9 UNK         0.5000 
     26 O          -3.2959  -21.7960  -46.0544 O.2       9 UNK        -0.5000 
     27 CA         -3.2528  -19.4023  -45.9770 C.3       9 UNK         0.1400 
     28 CB         -4.3083  -18.7834  -45.0493 C.3       9 UNK        -0.1800 
     29 N          -2.1202  -18.4868  -46.1146 N.am      9 UNK        -0.5000 
     30 C          -1.0854  -18.6797  -46.9457 C.2       8 UNK         0.5000 
     31 O          -0.9819  -19.6478  -47.6958 O.2       8 UNK        -0.5000 
     32 CA          0.0585  -17.6555  -46.8769 C.3       8 UNK         0.1400 
     33 CB         -0.3032  -16.3666  -47.6255 C.3       8 UNK        -0.1800 
     34 N           0.4285  -17.3353  -45.4992 N.am      8 UNK        -0.5000 
     35 C           0.9306  -18.2219  -44.6284 C.2       7 UNK         0.5000 
     36 O           1.1569  -19.4011  -44.8958 O.2       7 UNK        -0.5000 
     37 CA          1.1587  -17.7170  -43.1964 C.3       7 UNK         0.1400 
     38 CB          2.4434  -16.8796  -43.1140 C.3       7 UNK        -0.1800 
     39 N           0.0180  -16.9418  -42.7062 N.am      7 UNK        -0.5000 
     40 C          -1.2004  -17.4573  -42.4815 C.2       6 UNK         0.5000 
     41 O          -1.4789  -18.6464  -42.6303 O.2       6 UNK        -0.5000 
     42 CA         -2.3048  -16.4744  -42.0556 C.3       6 UNK         0.1400 
     43 CB         -2.2926  -16.2758  -40.5327 C.3       6 UNK        -0.1800 
     44 N          -2.1973  -15.1725  -42.7144 N.am      6 UNK        -0.5000 
     45 C          -2.3329  -14.9665  -44.0325 C.2       5 UNK         0.5000 
     46 O          -2.5660  -15.8607  -44.8459 O.2       5 UNK        -0.5000 
     47 CA         -2.1295  -13.5206  -44.5207 C.3       5 UNK         0.1400 
     48 CB         -3.4377  -12.7234  -44.4180 C.3       5 UNK        -0.1800 
     49 N          -1.0769  -12.8242  -43.7767 N.am      5 UNK        -0.5000 
     50 C           0.2209  -13.1504  -43.7959 C.2       4 UNK         0.5000 
     51 O           0.7017  -13.9947  -44.5575 O.2       4 UNK        -0.5000 
     52 CA          1.1136  -12.4138  -42.7761 C.3       4 UNK         0.1400 
     53 CB          2.4392  -13.1511  -42.5220 C.3       4 UNK        -0.1800 
     54 N           1.4220  -11.0498  -43.1914 N.am      4 UNK        -0.5000 
     55 C           0.5896   -9.9979  -43.1910 C.2       3 UNK         0.5000 
     56 O          -0.5826  -10.0577  -42.8173 O.2       3 UNK        -0.5000 
     57 CA          1.1736   -8.6509  -43.6792 C.3       3 UNK         0.1400 
     58 CB          1.4321   -7.7133  -42.4899 C.3       3 UNK        -0.1800 
     59 N           2.4246   -8.8263  -44.4264 N.am      3 UNK        -0.5000 
     60 C           2.4843   -9.3220  -45.6688 C.2       2 UNK         0.5000 
     61 O           1.4909   -9.4751  -46.3828 O.2       2 UNK        -0.5000 
     62 CA          3.8403   -9.8576  -46.1579 C.3       2 UNK         0.1400 
     63 CB          4.9857   -9.7582  -45.1245 C.3       2 UNK        -0.1800 
     64 N           3.5676  -11.2458  -46.5001 N.am      2 UNK        -0.5000 
     65 C           4.3182  -12.1029  -47.1971 C.2       1 UNK         0.5000 
     66 O           5.4600  -11.8611  -47.5897 O.2       1 UNK        -0.5000 
     67 C           0.3439  -23.0966  -47.9663 C.2       11 UNK         0.5000 
     68 O           0.6558  -24.1740  -48.4740 O.2       11 UNK        -0.5000 
     69 N          -0.7292  -22.3853  -48.3424 N.am      12 UNK        -0.5000 
     70 CA         -1.7045  -22.8167  -49.3426 C.3       12 UNK         0.1400 
     71 CB         -2.7189  -21.6951  -49.6037 C.3       12 UNK        -0.1800 
     72 C          -2.4203  -24.1132  -48.9325 C.2       12 UNK         0.5000 
     73 O          -2.4907  -25.0378  -49.7395 O.2       12 UNK        -0.5000 
     74 N          -2.8845  -24.1830  -47.6764 N.am      13 UNK        -0.5000 
     75 CA         -3.5271  -25.3636  -47.0974 C.3       13 UNK         0.1400 
     76 CB         -4.0629  -25.0309  -45.6973 C.3       13 UNK        -0.1800 
     77 C          -2.6000  -26.5927  -47.0558 C.2       13 UNK         0.5000 
     78 O          -3.0409  -27.6910  -47.3945 O.2       13 UNK        -0.5000 
     79 N          -1.3236  -26.3840  -46.7011 N.am      14 UNK        -0.5000 
     80 CA         -0.2724  -27.4055  -46.7261 C.3       14 UNK         0.1400 
     81 CB          0.9944  -26.8544  -46.0545 C.3       14 UNK        -0.1800 
     82 C           0.0400  -27.9174  -48.1470 C.2       14 UNK         0.5000 
     83 O           0.3272  -29.1027  -48.3165 O.2       14 UNK        -0.5000 
     84 N          -0.0622  -27.0282  -49.1436 N.am      15 UNK        -0.5000 
     85 CA          0.0557  -27.3357  -50.5710 C.3       15 UNK         0.1400 
     86 CB          0.4682  -26.0555  -51.3174 C.3       15 UNK        -0.1800 
     87 C          -1.2306  -27.9390  -51.1810 C.2       15 UNK         0.5000 
     88 O          -1.2214  -28.2883  -52.3622 O.2       15 UNK        -0.5000 
     89 N          -2.3044  -28.0454  -50.3827 N.am      16 UNK        -0.5000 
     90 CA         -3.6474  -28.5210  -50.7319 C.3       16 UNK         0.1400 
     91 CB         -3.6205  -30.0023  -51.1644 C.3       16 UNK        -0.1800 
     92 C          -4.3847  -27.6057  -51.7343 C.2       16 UNK         0.5000 
     93 O          -5.2127  -28.0842  -52.5123 O.2       16 UNK        -0.5000 
     94 N          -4.0886  -26.3028  -51.6830 N.am      17 UNK        -0.5000 
     95 CA         -4.7541  -25.2460  -52.4373 C.3       17 UNK         0.1400 
     96 CB         -3.6787  -24.3028  -53.0036 C.3       17 UNK        -0.1800 
     97 C          -5.7092  -24.4673  -51.5170 C.2       17 UNK         0.5000 
     98 O          -5.5904  -24.5323  -50.2907 O.2       17 UNK        -0.5000 
     99 N          -6.6267  -23.7094  -52.1277 N.am      18 UNK        -0.5000 
    100 CA        -7.4537  -22.7237  -51.4341 C.3       18 UNK         0.1400 
    101 CB        -8.6442  -22.3460  -52.3290 C.3       18 UNK        -0.1800 
    102 C         -6.6151  -21.4763  -51.1128 C.2       18 UNK         0.5000 
    103 O         -5.8227  -21.0522  -51.9565 O.2       18 UNK        -0.5000 
    104 N         -6.8287  -20.8793  -49.9340 N.am      19 UNK        -0.5000 
    105 CA        -6.1125  -19.6852  -49.4683 C.3       19 UNK         0.1400 
    106 CB        -6.4847  -19.4147  -48.0030 C.3       19 UNK        -0.1800 
    107 C         -6.3587  -18.4316  -50.3315 C.2       19 UNK         0.5000 
    108 O         -5.4811  -17.5733  -50.4178 O.2       19 UNK        -0.5000 
    109 N         -7.5355  -18.3613  -50.9698 N.am      20 UNK        -0.5000 
    110 CA        -7.9091  -17.3044  -51.9108 C.3       20 UNK         0.1400 
    111 CB        -9.4262  -17.3582  -52.1473 C.3       20 UNK        -0.1800 
    112 C         -7.1514  -17.3972  -53.2500 C.2       20 UNK         0.5000 
    113 O         -6.8953  -16.3650  -53.8711 O.2       20 UNK        -0.5000 
    114 N         -6.8090  -18.6235  -53.6687 N.am      21 UNK        -0.5000 
    115 CA        -6.0154  -18.8962  -54.8666 C.3       21 UNK         0.1400 
    116 CB        -6.3905  -20.2807  -55.4203 C.3       21 UNK        -0.1800 
    117 C         -4.5110  -18.8215  -54.5581 C.2       21 UNK         0.5000 
    118 O         -3.7552  -18.2329  -55.3313 O.2       21 UNK        -0.5000 
    119 N         -4.1172  -19.4141  -53.4240 N.am      22 UNK        -0.5000 
    120 CA        -2.7465  -19.4974  -52.9010 C.3       22 UNK         0.1400 
    121 C         -1.7959  -20.4420  -53.7029 C.2       22 UNK         0.5000 
    122 N         -2.3020  -21.2825  -54.5975 N.am      22 UNK        -0.7600 
    123 O         -0.5867  -20.4457  -53.4977 O.2       22 UNK        -0.5000 
    124 C124       -2.1448  -18.0962  -52.5884 C.3       23 UNK        -0.0398 
    125 S125       -1.1069  -18.0971  -51.0870 S.3       23 UNK        -0.2404 
    126 C126        0.5310  -17.7271  -51.7864 C.3       23 UNK        -0.0205 
    127 H127       -0.3236  -13.4143  -47.1418 H         1 UNK         0.0600 
    128 H128       -0.6552  -13.2359  -48.8644 H         1 UNK         0.0600 
    129 H129       -0.4551  -11.8008  -47.8466 H         1 UNK         0.0600 
    130 H130        1.7910  -13.8294  -46.5892 H         1 UNK         0.3000 
    131 H131        3.8973  -13.6626  -48.5749 H         1 UNK         0.0600 
    132 H132        5.3447  -14.6779  -46.8519 H         1 UNK         0.0800 
    133 H133        4.1450  -14.3908  -45.6154 H         1 UNK         0.0800 
    134 H134        5.3030  -17.0891  -48.3667 H         1 UNK         0.0800 
    135 H135        4.4607  -15.8088  -49.2019 H         1 UNK         0.0800 
    136 H136        2.1941  -16.2117  -50.2188 H         1 UNK         0.1150 
    137 H137        1.3372  -20.2628  -51.3139 H         1 UNK         0.1150 
    138 H138        4.5745  -19.4019  -48.6310 H         1 UNK         0.1150 
    139 H139        2.4080  -22.0709  -50.2305 H         1 UNK         0.0800 
    140 H140        4.1064  -21.7469  -50.4837 H         1 UNK         0.0800 
    141 H141        1.6485  -20.6588  -47.7761 H         1 UNK         0.0800 
    142 H142        2.5832  -20.9616  -46.3471 H         1 UNK         0.0800 
    143 H143        1.7517  -23.3773  -46.3801 H         1 UNK         0.0600 
    144 H144        0.3747  -21.0747  -45.4867 H         1 UNK         0.3000 
    145 H145       -2.2251  -22.7721  -43.6955 H         1 UNK         0.0600 
    146 H146       -1.2551  -21.3860  -41.8959 H         1 UNK         0.0600 
    147 H147       -0.1788  -22.7284  -42.2524 H         1 UNK         0.0600 
    148 H148        0.2072  -21.1148  -42.8409 H         1 UNK         0.0600 
    149 H149       -1.6695  -20.0022  -44.0224 H         1 UNK         0.3000 
    150 H150       -3.6958  -19.5195  -46.9676 H         1 UNK         0.0600 
    151 H151       -5.1803  -19.4326  -44.9619 H         1 UNK         0.0600 
    152 H152       -4.6541  -17.8225  -45.4309 H         1 UNK         0.0600 
    153 H153       -3.9165  -18.6222  -44.0450 H         1 UNK         0.0600 
    154 H154       -2.1434  -17.6423  -45.5503 H         1 UNK         0.3000 
    155 H155        0.9292  -18.0978  -47.3666 H         1 UNK         0.0600 
    156 H156       -1.1197  -15.8294  -47.1432 H         1 UNK         0.0600 
    157 H157       -0.6092  -16.5797  -48.6487 H         1 UNK         0.0600 
    158 H158        0.5564  -15.7020  -47.6820 H         1 UNK         0.0600 
    159 H159        0.2686  -16.3865  -45.1899 H         1 UNK         0.3000 
    160 H160        1.2790  -18.5883  -42.5488 H         1 UNK         0.0600 
    161 H161        2.3892  -15.9910  -43.7436 H         1 UNK         0.0600 
    162 H162        3.3050  -17.4591  -43.4480 H         1 UNK         0.0600 
    163 H163        2.6436  -16.5626  -42.0908 H         1 UNK         0.0600 
    164 H164        0.1539  -15.9494  -42.5917 H         1 UNK         0.3000 
    165 H165       -3.2649  -16.9130  -42.3348 H         1 UNK         0.0600 
    166 H166       -3.1219  -15.6460  -40.2104 H         1 UNK         0.0600 
    167 H167       -2.3911  -17.2306  -40.0144 H         1 UNK         0.0600 
    168 H168       -1.3657  -15.8119  -40.1930 H         1 UNK         0.0600 
    169 H169       -2.0107  -14.3774  -42.1218 H         1 UNK         0.3000 
    170 H170       -1.8456  -13.5652  -45.5708 H         1 UNK         0.0600 
    171 H171       -4.2370  -13.2115  -44.9773 H         1 UNK         0.0600 
    172 H172       -3.7716  -12.6252  -43.3843 H         1 UNK         0.0600 
    173 H173       -3.3199  -11.7205  -44.8290 H         1 UNK         0.0600 
    174 H174       -1.3629  -12.0489  -43.1902 H         1 UNK         0.3000 
    175 H175        0.5724  -12.3709  -41.8286 H         1 UNK         0.0600 
    176 H176        3.0308  -13.2550  -43.4328 H         1 UNK         0.0600 
    177 H177        3.0484  -12.6260  -41.7861 H         1 UNK         0.0600 
    178 H178        2.2551  -14.1498  -42.1281 H         1 UNK         0.0600 
    179 H179        2.3643  -10.8944  -43.5129 H         1 UNK         0.3000 
    180 H180        0.4314   -8.1836  -44.3299 H         1 UNK         0.0600 
    181 H181        2.1660   -8.1305  -41.7992 H         1 UNK         0.0600 
    182 H182        0.5152   -7.5351  -41.9264 H         1 UNK         0.0600 
    183 H183        1.7993   -6.7432  -42.8254 H         1 UNK         0.0600 
    184 H184        3.2824   -8.7154  -43.9046 H         1 UNK         0.3000 
    185 H185        4.1131   -9.3103  -47.0619 H         1 UNK         0.0600 
    186 H186        5.9216  -10.1334  -45.5381 H         1 UNK         0.0600 
    187 H187        5.1667   -8.7230  -44.8331 H         1 UNK         0.0600 
    188 H188        4.7745  -10.3339  -44.2226 H         1 UNK         0.0600 
    189 H189        2.6153  -11.5299  -46.3106 H         1 UNK         0.3000 
    190 H190       -0.8917  -21.4737  -47.9188 H         1 UNK         0.3000 
    191 H191       -1.1629  -23.0079  -50.2712 H         1 UNK         0.0600 
    192 H192       -3.3164  -21.4770  -48.7189 H         1 UNK         0.0600 
    193 H193       -3.4068  -21.9677  -50.4051 H         1 UNK         0.0600 
    194 H194       -2.2147  -20.7749  -49.8957 H         1 UNK         0.0600 
    195 H195       -2.8215  -23.3611  -47.0818 H         1 UNK         0.3000 
    196 H196       -4.3782  -25.6149  -47.7341 H         1 UNK         0.0600 
    197 H197       -4.5682  -25.8917  -45.2577 H         1 UNK         0.0600 
    198 H198       -4.7845  -24.2148  -45.7362 H         1 UNK         0.0600 
    199 H199       -3.2627  -24.7370  -45.0181 H         1 UNK         0.0600 
    200 H200       -1.0512  -25.4584  -46.3809 H         1 UNK         0.3000 
    201 H201       -0.6235  -28.2570  -46.1396 H         1 UNK         0.0600 
    202 H202        0.7973  -26.5593  -45.0238 H         1 UNK         0.0600 
    203 H203        1.3842  -25.9839  -46.5822 H         1 UNK         0.0600 
    204 H204        1.7840  -27.6064  -46.0327 H         1 UNK         0.0600 
    205 H205       -0.2544  -26.0601  -48.9098 H         1 UNK         0.3000 
    206 H206        0.8505  -28.0723  -50.7039 H         1 UNK         0.0600 
    207 H207        1.3921  -25.6427  -50.9118 H         1 UNK         0.0600 
    208 H208        0.6393  -26.2551  -52.3758 H         1 UNK         0.0600 
    209 H209       -0.2990  -25.2841  -51.2503 H         1 UNK         0.0600 
    210 H210       -2.2105  -27.7065  -49.4333 H         1 UNK         0.3000 
    211 H211       -4.2261  -28.4667  -49.8090 H         1 UNK         0.0600 
    212 H212       -3.1290  -30.1362  -52.1282 H         1 UNK         0.0600 
    213 H213       -4.6316  -30.4002  -51.2572 H         1 UNK         0.0600 
    214 H214       -3.0979  -30.6171  -50.4316 H         1 UNK         0.0600 
    215 H215       -3.4508  -25.9742  -50.9588 H         1 UNK         0.3000 
    216 H216       -5.3284  -25.6657  -53.2656 H         1 UNK         0.0600 
    217 H217       -4.1268  -23.5044  -53.5960 H         1 UNK         0.0600 
    218 H218       -2.9866  -24.8397  -53.6524 H         1 UNK         0.0600 
    219 H219       -3.0949  -23.8326  -52.2115 H         1 UNK         0.0600 
    220 H220       -6.6436  -23.6760  -53.1363 H         1 UNK         0.3000 
    221 H221       -7.8334  -23.1572  -50.5063 H         1 UNK         0.0600 
    222 H222       -8.3190  -21.9025  -53.2712 H         1 UNK         0.0600 
    223 H223       -9.2526  -23.2197  -52.5633 H         1 UNK         0.0600 
    224 H224       -9.2933  -21.6233  -51.8328 H         1 UNK         0.0600 
    225 H225       -7.5014  -21.2780  -49.2949 H         1 UNK         0.3000 
    226 H226       -5.0427  -19.8975  -49.5138 H         1 UNK         0.0600 
    227 H227       -6.2016  -20.2513  -47.3636 H         1 UNK         0.0600 
    228 H228       -5.9711  -18.5291  -47.6265 H         1 UNK         0.0600 
    229 H229       -7.5556  -19.2464  -47.8840 H         1 UNK         0.0600 
    230 H230       -8.2056  -19.1016  -50.8243 H         1 UNK         0.3000 
    231 H231       -7.6680  -16.3399  -51.4586 H         1 UNK         0.0600 
    232 H232       -9.9759  -17.2228  -51.2156 H         1 UNK         0.0600 
    233 H233       -9.7330  -18.3096  -52.5840 H         1 UNK         0.0600 
    234 H234       -9.7434  -16.5671  -52.8281 H         1 UNK         0.0600 
    235 H235       -7.0086  -19.4119  -53.0702 H         1 UNK         0.3000 
    236 H236       -6.2435  -18.1532  -55.6339 H         1 UNK         0.0600 
    237 H237       -5.8246  -20.5041  -56.3256 H         1 UNK         0.0600 
    238 H238       -6.1890  -21.0764  -54.7023 H         1 UNK         0.0600 
    239 H239       -7.4483  -20.3260  -55.6798 H         1 UNK         0.0600 
    240 H240       -4.8102  -19.9238  -52.8785 H         1 UNK         0.3000 
    241 H241       -2.8869  -20.0100  -51.9516 H         1 UNK         0.0600 
    242 H242       -1.6823  -21.8942  -55.1041 H         1 UNK         0.3800 
    243 H243       -3.2910  -21.3008  -54.7813 H         1 UNK         0.3800 
    244 H244       -2.9461  -17.3811  -52.3961 H         1 UNK         0.0800 
    245 H245       -1.5990  -17.6999  -53.4460 H         1 UNK         0.0800 
    246 H246        0.6034  -16.6559  -51.9798 H         1 UNK         0.0800 
    247 H247        0.6473  -18.2224  -52.7509 H         1 UNK         0.0800 
@<TRIPOS>BOND
     1    1    2 1    
     2    1  127 1    
     3    1  128 1    
     4    1  129 1    
     5    2    3 2    
     6    2    4 am   BACKBONE|DICT|INTERRES
     7    4    5 1    
     8    4  130 1    
     9    5    6 1    
    10    5   65 1    
    11    5  131 1    
    12    6    7 1    
    13    6  132 1    
    14    6  133 1    
    15    7    8 1    
    16    8    9 1    
    17    8  134 1    
    18    8  135 1    
    19    9   10 ar   
    20    9   14 ar   
    21   10   11 ar   
    22   10  136 1    
    23   11   12 ar   
    24   11  126 1    
    25   12   13 ar   
    26   12  137 1    
    27   13   14 ar   
    28   13   15 1    
    29   14  138 1    
    30   15   16 1    
    31   15  139 1    
    32   15  140 1    
    33   16   17 1    
    34   17   18 1    
    35   17  141 1    
    36   17  142 1    
    37   18   19 1    
    38   18   67 1    
    39   18  143 1    
    40   19   20 am   BACKBONE|DICT|INTERRES
    41   19  144 1    
    42   20   21 2    
    43   20   22 1    
    44   22   23 1    
    45   22   24 1    
    46   22  145 1    
    47   23  146 1    
    48   23  147 1    
    49   23  148 1    
    50   24   25 am   BACKBONE|DICT|INTERRES
    51   24  149 1    
    52   25   26 2    
    53   25   27 1    
    54   27   28 1    
    55   27   29 1    
    56   27  150 1    
    57   28  151 1    
    58   28  152 1    
    59   28  153 1    
    60   29   30 am   BACKBONE|DICT|INTERRES
    61   29  154 1    
    62   30   31 2    
    63   30   32 1    
    64   32   33 1    
    65   32   34 1    
    66   32  155 1    
    67   33  156 1    
    68   33  157 1    
    69   33  158 1    
    70   34   35 am   BACKBONE|DICT|INTERRES
    71   34  159 1    
    72   35   36 2    
    73   35   37 1    
    74   37   38 1    
    75   37   39 1    
    76   37  160 1    
    77   38  161 1    
    78   38  162 1    
    79   38  163 1    
    80   39   40 am   BACKBONE|DICT|INTERRES
    81   39  164 1    
    82   40   41 2    
    83   40   42 1    
    84   42   43 1    
    85   42   44 1    
    86   42  165 1    
    87   43  166 1    
    88   43  167 1    
    89   43  168 1    
    90   44   45 am   BACKBONE|DICT|INTERRES
    91   44  169 1    
    92   45   46 2    
    93   45   47 1    
    94   47   48 1    
    95   47   49 1    
    96   47  170 1    
    97   48  171 1    
    98   48  172 1    
    99   48  173 1    
   100   49   50 am   BACKBONE|DICT|INTERRES
   101   49  174 1    
   102   50   51 2    
   103   50   52 1    
   104   52   53 1    
   105   52   54 1    
   106   52  175 1    
   107   53  176 1    
   108   53  177 1    
   109   53  178 1    
   110   54   55 am   BACKBONE|DICT|INTERRES
   111   54  179 1    
   112   55   56 2    
   113   55   57 1    
   114   57   58 1    
   115   57   59 1    
   116   57  180 1    
   117   58  181 1    
   118   58  182 1    
   119   58  183 1    
   120   59   60 am   BACKBONE|DICT|INTERRES
   121   59  184 1    
   122   60   61 2    
   123   60   62 1    
   124   62   63 1    
   125   62   64 1    
   126   62  185 1    
   127   63  186 1    
   128   63  187 1    
   129   63  188 1    
   130   64   65 am   BACKBONE|DICT|INTERRES
   131   64  189 1    
   132   65   66 2    
   133   67   68 2    
   134   67   69 am   BACKBONE|DICT|INTERRES
   135   69   70 1    
   136   69  190 1    
   137   70   71 1    
   138   70   72 1    
   139   70  191 1    
   140   71  192 1    
   141   71  193 1    
   142   71  194 1    
   143   72   73 2    
   144   72   74 am   BACKBONE|DICT|INTERRES
   145   74   75 1    
   146   74  195 1    
   147   75   76 1    
   148   75   77 1    
   149   75  196 1    
   150   76  197 1    
   151   76  198 1    
   152   76  199 1    
   153   77   78 2    
   154   77   79 am   BACKBONE|DICT|INTERRES
   155   79   80 1    
   156   79  200 1    
   157   80   81 1    
   158   80   82 1    
   159   80  201 1    
   160   81  202 1    
   161   81  203 1    
   162   81  204 1    
   163   82   83 2    
   164   82   84 am   BACKBONE|DICT|INTERRES
   165   84   85 1    
   166   84  205 1    
   167   85   86 1    
   168   85   87 1    
   169   85  206 1    
   170   86  207 1    
   171   86  208 1    
   172   86  209 1    
   173   87   88 2    
   174   87   89 am   BACKBONE|DICT|INTERRES
   175   89   90 1    
   176   89  210 1    
   177   90   91 1    
   178   90   92 1    
   179   90  211 1    
   180   91  212 1    
   181   91  213 1    
   182   91  214 1    
   183   92   93 2    
   184   92   94 am   BACKBONE|DICT|INTERRES
   185   94   95 1    
   186   94  215 1    
   187   95   96 1    
   188   95   97 1    
   189   95  216 1    
   190   96  217 1    
   191   96  218 1    
   192   96  219 1    
   193   97   98 2    
   194   97   99 am   BACKBONE|DICT|INTERRES
   195   99  100 1    
   196   99  220 1    
   197  100  101 1    
   198  100  102 1    
   199  100  221 1    
   200  101  222 1    
   201  101  223 1    
   202  101  224 1    
   203  102  103 2    
   204  102  104 am   BACKBONE|DICT|INTERRES
   205  104  105 1    
   206  104  225 1    
   207  105  106 1    
   208  105  107 1    
   209  105  226 1    
   210  106  227 1    
   211  106  228 1    
   212  106  229 1    
   213  107  108 2    
   214  107  109 am   BACKBONE|DICT|INTERRES
   215  109  110 1    
   216  109  230 1    
   217  110  111 1    
   218  110  112 1    
   219  110  231 1    
   220  111  232 1    
   221  111  233 1    
   222  111  234 1    
   223  112  113 2    
   224  112  114 am   BACKBONE|DICT|INTERRES
   225  114  115 1    
   226  114  235 1    
   227  115  116 1    
   228  115  117 1    
   229  115  236 1    
   230  116  237 1    
   231  116  238 1    
   232  116  239 1    
   233  117  118 2    
   234  117  119 am   BACKBONE|DICT|INTERRES
   235  119  120 1    
   236  119  240 1    
   237  120  121 1    
   238  120  124 1    
   239  120  241 1    
   240  121  122 am   BACKBONE|DICT|INTERRES
   241  121  123 2    
   242  122  242 1    
   243  122  243 1    
   244  124  125 1    
   245  124  244 1    
   246  124  245 1    
   247  125  126 1    
   248  126  246 1    
   249  126  247 1    
@<TRIPOS>SUBSTRUCTURE
     1 UNK         1 GROUP             0       ****    0 ROOT    
