@<TRIPOS>MOLECULE
3R540
247   249    1
SMALL
USER_CHARGES


@<TRIPOS>ATOM
      1 CA         -2.7906  -12.7466  -50.1616 C.3       0 UNK        -0.1800 
      2 C          -2.0608  -13.4033  -48.9991 C.2       0 UNK         0.5000 
      3 O          -2.1326  -12.9114  -47.8718 O.2       0 UNK        -0.5000 
      4 N          -1.3755  -14.5246  -49.2674 N.am      1 UNK        -0.5000 
      5 CA         -0.5684  -15.2989  -48.3100 C.3       1 UNK         0.1400 
      6 C6          0.1581  -16.4850  -48.9876 C.3       23 UNK        -0.0398 
      7 S7          1.3780  -15.8631  -50.1925 S.3       23 UNK        -0.2404 
      8 C8          2.9286  -16.6555  -49.6523 C.3       23 UNK        -0.0205 
      9 C9          3.1063  -18.0760  -50.1800 C.ar      23 UNK        -0.0193 
     10 C10         2.8333  -18.3821  -51.5186 C.ar      23 UNK        -0.1150 
     11 C11         3.0664  -19.6648  -52.0215 C.ar      23 UNK        -0.0193 
     12 C12         3.5924  -20.6457  -51.1780 C.ar      23 UNK        -0.1150 
     13 C13         3.8715  -20.3569  -49.8393 C.ar      23 UNK        -0.0193 
     14 C14         3.6205  -19.0729  -49.3439 C.ar      23 UNK        -0.1150 
     15 C15         4.4805  -21.4282  -48.9477 C.3       23 UNK        -0.0205 
     16 S16         3.2512  -22.6652  -48.4341 S.3       23 UNK        -0.2404 
     17 C17         2.3747  -21.7524  -47.1251 C.3       23 UNK        -0.0398 
     18 CA          1.1630  -22.5440  -46.5778 C.3       11 UNK         0.1400 
     19 N           0.8821  -22.2108  -45.1795 N.am      11 UNK        -0.5000 
     20 C           0.0321  -22.8837  -44.3913 C.2       10 UNK         0.5000 
     21 O          -0.5663  -23.9008  -44.7429 O.2       10 UNK        -0.5000 
     22 CA         -0.2354  -22.2850  -42.9969 C.3       10 UNK         0.1400 
     23 CB          0.8695  -22.6784  -42.0056 C.3       10 UNK        -0.1800 
     24 N          -0.3678  -20.8272  -43.0369 N.am      10 UNK        -0.5000 
     25 C          -1.3451  -20.1816  -43.6890 C.2       9 UNK         0.5000 
     26 O          -2.2818  -20.7504  -44.2461 O.2       9 UNK        -0.5000 
     27 CA         -1.2348  -18.6533  -43.7888 C.3       9 UNK         0.1400 
     28 CB         -1.8280  -17.9739  -42.5472 C.3       9 UNK        -0.1800 
     29 N           0.1362  -18.2008  -44.0023 N.am      9 UNK        -0.5000 
     30 C           0.8629  -18.4419  -45.1018 C.2       8 UNK         0.5000 
     31 O           0.4484  -19.0704  -46.0737 O.2       8 UNK        -0.5000 
     32 CA          2.3200  -17.9502  -45.0914 C.3       8 UNK         0.1400 
     33 CB          2.4118  -16.4620  -45.4551 C.3       8 UNK        -0.1800 
     34 N           2.9606  -18.1771  -43.7977 N.am      8 UNK        -0.5000 
     35 C           3.2324  -19.3869  -43.2901 C.2       7 UNK         0.5000 
     36 O           3.0167  -20.4432  -43.8852 O.2       7 UNK        -0.5000 
     37 CA          3.7993  -19.4136  -41.8595 C.3       7 UNK         0.1400 
     38 CB          5.3190  -19.1917  -41.8739 C.3       7 UNK        -0.1800 
     39 N           3.1688  -18.4141  -40.9933 N.am      7 UNK        -0.5000 
     40 C           1.8955  -18.4758  -40.5782 C.2       6 UNK         0.5000 
     41 O           1.1279  -19.3944  -40.8662 O.2       6 UNK        -0.5000 
     42 CA          1.3854  -17.2878  -39.7385 C.3       6 UNK         0.1400 
     43 CB          1.8215  -17.4317  -38.2727 C.3       6 UNK        -0.1800 
     44 N           1.8161  -15.9819  -40.2525 N.am      6 UNK        -0.5000 
     45 C           1.4773  -15.5018  -41.4557 C.2       5 UNK         0.5000 
     46 O           0.7926  -16.1276  -42.2652 O.2       5 UNK        -0.5000 
     47 CA          2.0163  -14.1200  -41.8459 C.3       5 UNK         0.1400 
     48 CB          3.5170  -14.2145  -42.1902 C.3       5 UNK        -0.1800 
     49 N           1.2523  -13.6532  -43.0016 N.am      5 UNK        -0.5000 
     50 C           1.3012  -12.4382  -43.5558 C.2       4 UNK         0.5000 
     51 O           1.9800  -11.5097  -43.1150 O.2       4 UNK        -0.5000 
     52 CA          0.4541  -12.2226  -44.8228 C.3       4 UNK         0.1400 
     53 CB          1.2075  -12.7180  -46.0653 C.3       4 UNK        -0.1800 
     54 N          -0.8646  -12.8610  -44.7610 N.am      4 UNK        -0.5000 
     55 C          -1.9021  -12.3465  -44.0840 C.2       3 UNK         0.5000 
     56 O          -1.8060  -11.3442  -43.3736 O.2       3 UNK        -0.5000 
     57 CA         -3.2804  -13.0240  -44.2271 C.3       3 UNK         0.1400 
     58 CB         -4.3721  -12.0003  -44.5868 C.3       3 UNK        -0.1800 
     59 N          -3.2905  -14.0798  -45.2406 N.am      3 UNK        -0.5000 
     60 C          -3.7304  -15.3297  -45.0377 C.2       2 UNK         0.5000 
     61 O          -4.1902  -15.7247  -43.9660 O.2       2 UNK        -0.5000 
     62 CA         -3.6562  -16.3211  -46.2204 C.3       2 UNK         0.1400 
     63 CB         -5.0322  -16.4566  -46.8897 C.3       2 UNK        -0.1800 
     64 N          -2.6719  -15.9985  -47.2555 N.am      2 UNK        -0.5000 
     65 C          -1.3655  -15.7583  -47.0738 C.2       1 UNK         0.5000 
     66 O          -0.8054  -15.7926  -45.9797 O.2       1 UNK        -0.5000 
     67 C          -0.0872  -22.3743  -47.4686 C.2       11 UNK         0.5000 
     68 O          -0.4013  -23.2646  -48.2572 O.2       11 UNK        -0.5000 
     69 N          -0.8110  -21.2617  -47.2875 N.am      12 UNK        -0.5000 
     70 CA         -2.0725  -20.9633  -47.9632 C.3       12 UNK         0.1400 
     71 CB         -2.5036  -19.5314  -47.6240 C.3       12 UNK        -0.1800 
     72 C          -3.1876  -21.9689  -47.6221 C.2       12 UNK         0.5000 
     73 O          -3.9235  -22.3776  -48.5173 O.2       12 UNK        -0.5000 
     74 N          -3.2690  -22.3879  -46.3517 N.am      13 UNK        -0.5000 
     75 CA         -4.1832  -23.4296  -45.8818 C.3       13 UNK         0.1400 
     76 CB         -4.1476  -23.5039  -44.3482 C.3       13 UNK        -0.1800 
     77 C          -3.8844  -24.8044  -46.5076 C.2       13 UNK         0.5000 
     78 O          -4.8199  -25.5077  -46.8891 O.2       13 UNK        -0.5000 
     79 N          -2.5940  -25.1420  -46.6496 N.am      14 UNK        -0.5000 
     80 CA         -2.1255  -26.3428  -47.3466 C.3       14 UNK         0.1400 
     81 CB         -0.6318  -26.5576  -47.0589 C.3       14 UNK        -0.1800 
     82 C          -2.3990  -26.2980  -48.8643 C.2       14 UNK         0.5000 
     83 O          -2.7105  -27.3332  -49.4539 O.2       14 UNK        -0.5000 
     84 N          -2.3163  -25.0997  -49.4608 N.am      15 UNK        -0.5000 
     85 CA         -2.6726  -24.8209  -50.8556 C.3       15 UNK         0.1400 
     86 CB         -2.0834  -23.4613  -51.2645 C.3       15 UNK        -0.1800 
     87 C          -4.1938  -24.8706  -51.1239 C.2       15 UNK         0.5000 
     88 O          -4.5943  -24.9790  -52.2841 O.2       15 UNK        -0.5000 
     89 N          -5.0052  -24.8140  -50.0569 N.am      16 UNK        -0.5000 
     90 CA         -6.4591  -24.9769  -50.0072 C.3       16 UNK         0.1400 
     91 CB         -6.8385  -26.4475  -50.2874 C.3       16 UNK        -0.1800 
     92 C          -7.1956  -23.9643  -50.9041 C.2       16 UNK         0.5000 
     93 O          -7.3401  -22.8056  -50.5162 O.2       16 UNK        -0.5000 
     94 N          -7.6371  -24.4034  -52.0902 N.am      17 UNK        -0.5000 
     95 CA         -8.2902  -23.5694  -53.1012 C.3       17 UNK         0.1400 
     96 CB         -8.8564  -24.4761  -54.2043 C.3       17 UNK        -0.1800 
     97 C          -7.3595  -22.4994  -53.7073 C.2       17 UNK         0.5000 
     98 O          -7.8484  -21.4749  -54.1840 O.2       17 UNK        -0.5000 
     99 N          -6.0426  -22.7409  -53.6613 N.am      18 UNK        -0.5000 
    100 CA        -4.9999  -21.8467  -54.1609 C.3       18 UNK         0.1400 
    101 CB        -3.9616  -22.6840  -54.9267 C.3       18 UNK        -0.1800 
    102 C         -4.3746  -20.9963  -53.0337 C.2       18 UNK         0.5000 
    103 O         -3.2202  -20.5847  -53.1482 O.2       18 UNK        -0.5000 
    104 N         -5.1440  -20.7154  -51.9699 N.am      19 UNK        -0.5000 
    105 CA        -4.7511  -19.8742  -50.8311 C.3       19 UNK         0.1400 
    106 CB        -5.8832  -19.8673  -49.7927 C.3       19 UNK        -0.1800 
    107 C         -4.3718  -18.4264  -51.2048 C.2       19 UNK         0.5000 
    108 O         -3.5944  -17.7929  -50.4872 O.2       19 UNK        -0.5000 
    109 N         -4.8974  -17.9374  -52.3360 N.am      20 UNK        -0.5000 
    110 CA        -4.5722  -16.6540  -52.9561 C.3       20 UNK         0.1400 
    111 CB        -5.6937  -16.2893  -53.9448 C.3       20 UNK        -0.1800 
    112 C         -3.1776  -16.6770  -53.6205 C.2       20 UNK         0.5000 
    113 O         -3.0657  -16.5530  -54.8421 O.2       20 UNK        -0.5000 
    114 N         -2.1419  -16.8649  -52.7911 N.am      21 UNK        -0.5000 
    115 CA        -0.7115  -16.8382  -53.1170 C.3       21 UNK         0.1400 
    116 CB        -0.2641  -15.3878  -53.3923 C.3       21 UNK        -0.1800 
    117 C         -0.2973  -17.8141  -54.2385 C.2       21 UNK         0.5000 
    118 O          0.5550  -17.4795  -55.0633 O.2       21 UNK        -0.5000 
    119 N         -0.9166  -19.0009  -54.2489 N.am      22 UNK        -0.5000 
    120 CA        -0.7267  -20.0724  -55.2415 C.3       22 UNK         0.1400 
    121 C         -1.3208  -19.7591  -56.6491 C.2       22 UNK         0.5000 
    122 N         -2.1243  -18.7144  -56.8206 N.am      22 UNK        -0.7600 
    123 O         -1.0779  -20.4946  -57.6021 O.2       22 UNK        -0.5000 
    124 C124        0.7250  -20.6288  -55.3075 C.3       23 UNK        -0.0398 
    125 S125        1.3663  -21.1107  -53.6639 S.3       23 UNK        -0.2404 
    126 C126        2.7803  -19.9774  -53.4821 C.3       23 UNK        -0.0205 
    127 H127       -3.8588  -12.6950  -49.9515 H         1 UNK         0.0600 
    128 H128       -2.6526  -13.2985  -51.0918 H         1 UNK         0.0600 
    129 H129       -2.4214  -11.7319  -50.3095 H         1 UNK         0.0600 
    130 H130       -1.3464  -14.8597  -50.2187 H         1 UNK         0.3000 
    131 H131        0.1973  -14.6197  -47.9356 H         1 UNK         0.0600 
    132 H132       -0.5521  -17.1335  -49.5035 H         1 UNK         0.0800 
    133 H133        0.6630  -17.1138  -48.2522 H         1 UNK         0.0800 
    134 H134        2.9951  -16.6278  -48.5644 H         1 UNK         0.0800 
    135 H135        3.7618  -16.0562  -50.0210 H         1 UNK         0.0800 
    136 H136        2.4540  -17.6136  -52.1771 H         1 UNK         0.1150 
    137 H137        3.7855  -21.6366  -51.5650 H         1 UNK         0.1150 
    138 H138        3.8520  -18.8430  -48.3135 H         1 UNK         0.1150 
    139 H139        5.2789  -21.9341  -49.4926 H         1 UNK         0.0800 
    140 H140        4.9489  -20.9851  -48.0674 H         1 UNK         0.0800 
    141 H141        2.0814  -20.7656  -47.4873 H         1 UNK         0.0800 
    142 H142        3.0993  -21.5771  -46.3290 H         1 UNK         0.0800 
    143 H143        1.4192  -23.6060  -46.5843 H         1 UNK         0.0600 
    144 H144        1.3606  -21.4025  -44.7983 H         1 UNK         0.3000 
    145 H145       -1.1790  -22.6971  -42.6335 H         1 UNK         0.0600 
    146 H146        0.6517  -22.3044  -41.0050 H         1 UNK         0.0600 
    147 H147        1.8411  -22.2849  -42.3041 H         1 UNK         0.0600 
    148 H148        0.9618  -23.7629  -41.9355 H         1 UNK         0.0600 
    149 H149        0.3351  -20.2851  -42.5458 H         1 UNK         0.3000 
    150 H150       -1.8145  -18.3374  -44.6538 H         1 UNK         0.0600 
    151 H151       -2.8611  -18.2849  -42.3878 H         1 UNK         0.0600 
    152 H152       -1.8309  -16.8894  -42.6586 H         1 UNK         0.0600 
    153 H153       -1.2656  -18.2175  -41.6458 H         1 UNK         0.0600 
    154 H154        0.5246  -17.5980  -43.2807 H         1 UNK         0.3000 
    155 H155        2.8677  -18.5184  -45.8463 H         1 UNK         0.0600 
    156 H156        1.9598  -16.2684  -46.4267 H         1 UNK         0.0600 
    157 H157        3.4481  -16.1279  -45.5055 H         1 UNK         0.0600 
    158 H158        1.8915  -15.8393  -44.7288 H         1 UNK         0.0600 
    159 H159        3.1336  -17.3652  -43.2258 H         1 UNK         0.3000 
    160 H160        3.6026  -20.4035  -41.4419 H         1 UNK         0.0600 
    161 H161        5.5808  -18.2061  -42.2607 H         1 UNK         0.0600 
    162 H162        5.8151  -19.9334  -42.5014 H         1 UNK         0.0600 
    163 H163        5.7395  -19.2820  -40.8722 H         1 UNK         0.0600 
    164 H164        3.7334  -17.6265  -40.7113 H         1 UNK         0.3000 
    165 H165        0.2940  -17.3121  -39.7693 H         1 UNK         0.0600 
    166 H166        1.3819  -16.6506  -37.6523 H         1 UNK         0.0600 
    167 H167        1.4999  -18.3899  -37.8622 H         1 UNK         0.0600 
    168 H168        2.9055  -17.3758  -38.1656 H         1 UNK         0.0600 
    169 H169        2.3880  -15.4194  -39.6388 H         1 UNK         0.3000 
    170 H170        1.8619  -13.4328  -41.0120 H         1 UNK         0.0600 
    171 H171        3.6924  -14.8654  -43.0473 H         1 UNK         0.0600 
    172 H172        3.9374  -13.2370  -42.4250 H         1 UNK         0.0600 
    173 H173        4.0915  -14.6117  -41.3527 H         1 UNK         0.0600 
    174 H174        0.6392  -14.3593  -43.3924 H         1 UNK         0.3000 
    175 H175        0.3096  -11.1461  -44.9391 H         1 UNK         0.0600 
    176 H176        1.3620  -13.7959  -46.0379 H         1 UNK         0.0600 
    177 H177        0.6617  -12.4738  -46.9767 H         1 UNK         0.0600 
    178 H178        2.1892  -12.2485  -46.1407 H         1 UNK         0.0600 
    179 H179       -0.9881  -13.7232  -45.2768 H         1 UNK         0.3000 
    180 H180       -3.5118  -13.4361  -43.2431 H         1 UNK         0.0600 
    181 H181       -5.3521  -12.4744  -44.6437 H         1 UNK         0.0600 
    182 H182       -4.1728  -11.5264  -45.5489 H         1 UNK         0.0600 
    183 H183       -4.4396  -11.2111  -43.8370 H         1 UNK         0.0600 
    184 H184       -2.9349  -13.8214  -46.1558 H         1 UNK         0.3000 
    185 H185       -3.3912  -17.2919  -45.8063 H         1 UNK         0.0600 
    186 H186       -5.3525  -15.5165  -47.3406 H         1 UNK         0.0600 
    187 H187       -5.0180  -17.2156  -47.6716 H         1 UNK         0.0600 
    188 H188       -5.7936  -16.7510  -46.1661 H         1 UNK         0.0600 
    189 H189       -3.0328  -15.9182  -48.1954 H         1 UNK         0.3000 
    190 H190       -0.4503  -20.5428  -46.6636 H         1 UNK         0.3000 
    191 H191       -1.8893  -21.0173  -49.0378 H         1 UNK         0.0600 
    192 H192       -1.7424  -18.8096  -47.9184 H         1 UNK         0.0600 
    193 H193       -2.6844  -19.4148  -46.5573 H         1 UNK         0.0600 
    194 H194       -3.4236  -19.2621  -48.1395 H         1 UNK         0.0600 
    195 H195       -2.6824  -21.9447  -45.6493 H         1 UNK         0.3000 
    196 H196       -5.1933  -23.1429  -46.1819 H         1 UNK         0.0600 
    197 H197       -4.4351  -22.5521  -43.9013 H         1 UNK         0.0600 
    198 H198       -3.1548  -23.7600  -43.9787 H         1 UNK         0.0600 
    199 H199       -4.8411  -24.2598  -43.9779 H         1 UNK         0.0600 
    200 H200       -1.8829  -24.5267  -46.2694 H         1 UNK         0.3000 
    201 H201       -2.6706  -27.1973  -46.9401 H         1 UNK         0.0600 
    202 H202       -0.4450  -26.6411  -45.9881 H         1 UNK         0.0600 
    203 H203       -0.0222  -25.7389  -47.4404 H         1 UNK         0.0600 
    204 H204       -0.2740  -27.4764  -47.5250 H         1 UNK         0.0600 
    205 H205       -1.9652  -24.3168  -48.9182 H         1 UNK         0.3000 
    206 H206       -2.2083  -25.5884  -51.4779 H         1 UNK         0.0600 
    207 H207       -2.5809  -22.6344  -50.7597 H         1 UNK         0.0600 
    208 H208       -1.0190  -23.4029  -51.0358 H         1 UNK         0.0600 
    209 H209       -2.1887  -23.2956  -52.3357 H         1 UNK         0.0600 
    210 H210       -4.5669  -24.6375  -49.1624 H         1 UNK         0.3000 
    211 H211       -6.7573  -24.7509  -48.9824 H         1 UNK         0.0600 
    212 H212       -6.4959  -26.7874  -51.2652 H         1 UNK         0.0600 
    213 H213       -7.9189  -26.5906  -50.2430 H         1 UNK         0.0600 
    214 H214       -6.3966  -27.1069  -49.5400 H         1 UNK         0.0600 
    215 H215       -7.4492  -25.3622  -52.3453 H         1 UNK         0.3000 
    216 H216       -9.1227  -23.0485  -52.6237 H         1 UNK         0.0600 
    217 H217       -9.3764  -23.8902  -54.9634 H         1 UNK         0.0600 
    218 H218       -9.5738  -25.1901  -53.7993 H         1 UNK         0.0600 
    219 H219       -8.0681  -25.0384  -54.7065 H         1 UNK         0.0600 
    220 H220       -5.7175  -23.5949  -53.2164 H         1 UNK         0.3000 
    221 H221       -5.4304  -21.1407  -54.8737 H         1 UNK         0.0600 
    222 H222       -3.4265  -23.3689  -54.2703 H         1 UNK         0.0600 
    223 H223       -4.4378  -23.2785  -55.7065 H         1 UNK         0.0600 
    224 H224       -3.2280  -22.0479  -55.4193 H         1 UNK         0.0600 
    225 H225       -6.0672  -21.1247  -51.9248 H         1 UNK         0.3000 
    226 H226       -3.8681  -20.3280  -50.3803 H         1 UNK         0.0600 
    227 H227       -6.0268  -20.8578  -49.3628 H         1 UNK         0.0600 
    228 H228       -5.6632  -19.1927  -48.9654 H         1 UNK         0.0600 
    229 H229       -6.8299  -19.5495  -50.2309 H         1 UNK         0.0600 
    230 H230       -5.5104  -18.5415  -52.8627 H         1 UNK         0.3000 
    231 H231       -4.5501  -15.8865  -52.1795 H         1 UNK         0.0600 
    232 H232       -5.5030  -15.3229  -54.4132 H         1 UNK         0.0600 
    233 H233       -6.6570  -16.2188  -53.4394 H         1 UNK         0.0600 
    234 H234       -5.7862  -17.0289  -54.7413 H         1 UNK         0.0600 
    235 H235       -2.3747  -17.0603  -51.8218 H         1 UNK         0.3000 
    236 H236       -0.1937  -17.1877  -52.2244 H         1 UNK         0.0600 
    237 H237       -0.7115  -14.9954  -54.3061 H         1 UNK         0.0600 
    238 H238       -0.5408  -14.7256  -52.5722 H         1 UNK         0.0600 
    239 H239        0.8193  -15.3260  -53.5026 H         1 UNK         0.0600 
    240 H240       -1.6310  -19.1955  -53.5572 H         1 UNK         0.3000 
    241 H241       -1.3368  -20.8949  -54.8747 H         1 UNK         0.0600 
    242 H242       -2.5070  -18.5323  -57.7345 H         1 UNK         0.3800 
    243 H243       -2.3345  -18.0818  -56.0568 H         1 UNK         0.3800 
    244 H244        1.3920  -19.9096  -55.7836 H         1 UNK         0.0800 
    245 H245        0.7556  -21.5193  -55.9372 H         1 UNK         0.0800 
    246 H246        2.5896  -19.0517  -54.0261 H         1 UNK         0.0800 
    247 H247        3.6618  -20.4265  -53.9416 H         1 UNK         0.0800 
@<TRIPOS>BOND
     1    1    2 1    
     2    1  127 1    
     3    1  128 1    
     4    1  129 1    
     5    2    3 2    
     6    2    4 am   BACKBONE|DICT|INTERRES
     7    4    5 1    
     8    4  130 1    
     9    5    6 1    
    10    5   65 1    
    11    5  131 1    
    12    6    7 1    
    13    6  132 1    
    14    6  133 1    
    15    7    8 1    
    16    8    9 1    
    17    8  134 1    
    18    8  135 1    
    19    9   10 ar   
    20    9   14 ar   
    21   10   11 ar   
    22   10  136 1    
    23   11   12 ar   
    24   11  126 1    
    25   12   13 ar   
    26   12  137 1    
    27   13   14 ar   
    28   13   15 1    
    29   14  138 1    
    30   15   16 1    
    31   15  139 1    
    32   15  140 1    
    33   16   17 1    
    34   17   18 1    
    35   17  141 1    
    36   17  142 1    
    37   18   19 1    
    38   18   67 1    
    39   18  143 1    
    40   19   20 am   BACKBONE|DICT|INTERRES
    41   19  144 1    
    42   20   21 2    
    43   20   22 1    
    44   22   23 1    
    45   22   24 1    
    46   22  145 1    
    47   23  146 1    
    48   23  147 1    
    49   23  148 1    
    50   24   25 am   BACKBONE|DICT|INTERRES
    51   24  149 1    
    52   25   26 2    
    53   25   27 1    
    54   27   28 1    
    55   27   29 1    
    56   27  150 1    
    57   28  151 1    
    58   28  152 1    
    59   28  153 1    
    60   29   30 am   BACKBONE|DICT|INTERRES
    61   29  154 1    
    62   30   31 2    
    63   30   32 1    
    64   32   33 1    
    65   32   34 1    
    66   32  155 1    
    67   33  156 1    
    68   33  157 1    
    69   33  158 1    
    70   34   35 am   BACKBONE|DICT|INTERRES
    71   34  159 1    
    72   35   36 2    
    73   35   37 1    
    74   37   38 1    
    75   37   39 1    
    76   37  160 1    
    77   38  161 1    
    78   38  162 1    
    79   38  163 1    
    80   39   40 am   BACKBONE|DICT|INTERRES
    81   39  164 1    
    82   40   41 2    
    83   40   42 1    
    84   42   43 1    
    85   42   44 1    
    86   42  165 1    
    87   43  166 1    
    88   43  167 1    
    89   43  168 1    
    90   44   45 am   BACKBONE|DICT|INTERRES
    91   44  169 1    
    92   45   46 2    
    93   45   47 1    
    94   47   48 1    
    95   47   49 1    
    96   47  170 1    
    97   48  171 1    
    98   48  172 1    
    99   48  173 1    
   100   49   50 am   BACKBONE|DICT|INTERRES
   101   49  174 1    
   102   50   51 2    
   103   50   52 1    
   104   52   53 1    
   105   52   54 1    
   106   52  175 1    
   107   53  176 1    
   108   53  177 1    
   109   53  178 1    
   110   54   55 am   BACKBONE|DICT|INTERRES
   111   54  179 1    
   112   55   56 2    
   113   55   57 1    
   114   57   58 1    
   115   57   59 1    
   116   57  180 1    
   117   58  181 1    
   118   58  182 1    
   119   58  183 1    
   120   59   60 am   BACKBONE|DICT|INTERRES
   121   59  184 1    
   122   60   61 2    
   123   60   62 1    
   124   62   63 1    
   125   62   64 1    
   126   62  185 1    
   127   63  186 1    
   128   63  187 1    
   129   63  188 1    
   130   64   65 am   BACKBONE|DICT|INTERRES
   131   64  189 1    
   132   65   66 2    
   133   67   68 2    
   134   67   69 am   BACKBONE|DICT|INTERRES
   135   69   70 1    
   136   69  190 1    
   137   70   71 1    
   138   70   72 1    
   139   70  191 1    
   140   71  192 1    
   141   71  193 1    
   142   71  194 1    
   143   72   73 2    
   144   72   74 am   BACKBONE|DICT|INTERRES
   145   74   75 1    
   146   74  195 1    
   147   75   76 1    
   148   75   77 1    
   149   75  196 1    
   150   76  197 1    
   151   76  198 1    
   152   76  199 1    
   153   77   78 2    
   154   77   79 am   BACKBONE|DICT|INTERRES
   155   79   80 1    
   156   79  200 1    
   157   80   81 1    
   158   80   82 1    
   159   80  201 1    
   160   81  202 1    
   161   81  203 1    
   162   81  204 1    
   163   82   83 2    
   164   82   84 am   BACKBONE|DICT|INTERRES
   165   84   85 1    
   166   84  205 1    
   167   85   86 1    
   168   85   87 1    
   169   85  206 1    
   170   86  207 1    
   171   86  208 1    
   172   86  209 1    
   173   87   88 2    
   174   87   89 am   BACKBONE|DICT|INTERRES
   175   89   90 1    
   176   89  210 1    
   177   90   91 1    
   178   90   92 1    
   179   90  211 1    
   180   91  212 1    
   181   91  213 1    
   182   91  214 1    
   183   92   93 2    
   184   92   94 am   BACKBONE|DICT|INTERRES
   185   94   95 1    
   186   94  215 1    
   187   95   96 1    
   188   95   97 1    
   189   95  216 1    
   190   96  217 1    
   191   96  218 1    
   192   96  219 1    
   193   97   98 2    
   194   97   99 am   BACKBONE|DICT|INTERRES
   195   99  100 1    
   196   99  220 1    
   197  100  101 1    
   198  100  102 1    
   199  100  221 1    
   200  101  222 1    
   201  101  223 1    
   202  101  224 1    
   203  102  103 2    
   204  102  104 am   BACKBONE|DICT|INTERRES
   205  104  105 1    
   206  104  225 1    
   207  105  106 1    
   208  105  107 1    
   209  105  226 1    
   210  106  227 1    
   211  106  228 1    
   212  106  229 1    
   213  107  108 2    
   214  107  109 am   BACKBONE|DICT|INTERRES
   215  109  110 1    
   216  109  230 1    
   217  110  111 1    
   218  110  112 1    
   219  110  231 1    
   220  111  232 1    
   221  111  233 1    
   222  111  234 1    
   223  112  113 2    
   224  112  114 am   BACKBONE|DICT|INTERRES
   225  114  115 1    
   226  114  235 1    
   227  115  116 1    
   228  115  117 1    
   229  115  236 1    
   230  116  237 1    
   231  116  238 1    
   232  116  239 1    
   233  117  118 2    
   234  117  119 am   BACKBONE|DICT|INTERRES
   235  119  120 1    
   236  119  240 1    
   237  120  121 1    
   238  120  124 1    
   239  120  241 1    
   240  121  122 am   BACKBONE|DICT|INTERRES
   241  121  123 2    
   242  122  242 1    
   243  122  243 1    
   244  124  125 1    
   245  124  244 1    
   246  124  245 1    
   247  125  126 1    
   248  126  246 1    
   249  126  247 1    
@<TRIPOS>SUBSTRUCTURE
     1 UNK         1 GROUP             0       ****    0 ROOT    
