@<TRIPOS>MOLECULE
3R540
247   249    1
SMALL
USER_CHARGES


@<TRIPOS>ATOM
      1 CA         -0.9244  -10.7051  -50.9969 C.3       0 UNK        -0.1800 
      2 C          -1.5475  -11.8707  -50.2427 C.2       0 UNK         0.5000 
      3 O          -2.6454  -11.7330  -49.7040 O.2       0 UNK        -0.5000 
      4 N          -0.8389  -13.0061  -50.1820 N.am      1 UNK        -0.5000 
      5 CA         -1.2156  -14.2963  -49.5753 C.3       1 UNK         0.1400 
      6 C6         -2.5113  -14.9261  -50.1544 C.3       23 UNK        -0.0398 
      7 S7         -2.4530  -15.1556  -51.9646 S.3       23 UNK        -0.2404 
      8 C8         -1.9956  -16.9111  -52.1007 C.3       23 UNK        -0.0205 
      9 C9         -0.5486  -17.1577  -51.7048 C.ar      23 UNK        -0.0193 
     10 C10         0.4768  -16.8868  -52.6155 C.ar      23 UNK        -0.1150 
     11 C11         1.8097  -17.1305  -52.2747 C.ar      23 UNK        -0.0193 
     12 C12         2.1134  -17.6342  -51.0076 C.ar      23 UNK        -0.1150 
     13 C13         1.0978  -17.9130  -50.0899 C.ar      23 UNK        -0.0193 
     14 C14        -0.2336  -17.6741  -50.4433 C.ar      23 UNK        -0.1150 
     15 C15         1.4511  -18.4789  -48.7243 C.3       23 UNK        -0.0205 
     16 S16         1.4135  -20.2995  -48.7326 S.3       23 UNK        -0.2404 
     17 C17        -0.3340  -20.6262  -48.3272 C.3       23 UNK        -0.0398 
     18 CA         -0.5174  -21.9442  -47.5395 C.3       11 UNK         0.1400 
     19 N           0.1613  -21.9374  -46.2388 N.am      11 UNK        -0.5000 
     20 C           0.3453  -23.0267  -45.4800 C.2       10 UNK         0.5000 
     21 O          -0.0241  -24.1539  -45.8089 O.2       10 UNK        -0.5000 
     22 CA          1.0007  -22.8202  -44.1024 C.3       10 UNK         0.1400 
     23 CB          2.5219  -22.6508  -44.2309 C.3       10 UNK        -0.1800 
     24 N           0.4293  -21.6875  -43.3724 N.am      10 UNK        -0.5000 
     25 C          -0.8424  -21.6275  -42.9516 C.2       9 UNK         0.5000 
     26 O          -1.6534  -22.5403  -43.1031 O.2       9 UNK        -0.5000 
     27 CA         -1.3046  -20.3163  -42.2913 C.3       9 UNK         0.1400 
     28 CB         -0.8814  -20.2670  -40.8159 C.3       9 UNK        -0.1800 
     29 N          -0.8124  -19.1267  -42.9839 N.am      9 UNK        -0.5000 
     30 C          -1.1059  -18.8019  -44.2513 C.2       8 UNK         0.5000 
     31 O          -1.8603  -19.4538  -44.9722 O.2       8 UNK        -0.5000 
     32 CA         -0.3823  -17.5739  -44.8289 C.3       8 UNK         0.1400 
     33 CB         -1.0145  -16.2754  -44.3111 C.3       8 UNK        -0.1800 
     34 N           1.0497  -17.5770  -44.5272 N.am      8 UNK        -0.5000 
     35 C           1.9036  -18.5413  -44.8989 C.2       7 UNK         0.5000 
     36 O           1.5791  -19.5250  -45.5594 O.2       7 UNK        -0.5000 
     37 CA          3.3481  -18.4194  -44.3889 C.3       7 UNK         0.1400 
     38 CB          4.1496  -17.4264  -45.2427 C.3       7 UNK        -0.1800 
     39 N           3.3896  -18.0225  -42.9811 N.am      7 UNK        -0.5000 
     40 C           2.9625  -18.7976  -41.9726 C.2       6 UNK         0.5000 
     41 O           2.5442  -19.9459  -42.1208 O.2       6 UNK        -0.5000 
     42 CA          2.9557  -18.1619  -40.5718 C.3       6 UNK         0.1400 
     43 CB          4.3498  -18.2361  -39.9321 C.3       6 UNK        -0.1800 
     44 N           2.5059  -16.7701  -40.5948 N.am      6 UNK        -0.5000 
     45 C           1.2745  -16.3624  -40.9227 C.2       5 UNK         0.5000 
     46 O           0.3653  -17.1357  -41.2208 O.2       5 UNK        -0.5000 
     47 CA          1.0193  -14.8428  -40.9619 C.3       5 UNK         0.1400 
     48 CB          0.8949  -14.2561  -39.5433 C.3       5 UNK        -0.1800 
     49 N           1.9856  -14.0950  -41.7776 N.am      5 UNK        -0.5000 
     50 C           3.3000  -13.9105  -41.5875 C.2       4 UNK         0.5000 
     51 O           3.9109  -14.3468  -40.6107 O.2       4 UNK        -0.5000 
     52 CA          4.0861  -13.1144  -42.6526 C.3       4 UNK         0.1400 
     53 CB          5.1913  -13.9834  -43.2854 C.3       4 UNK        -0.1800 
     54 N           3.2858  -12.4556  -43.6971 N.am      4 UNK        -0.5000 
     55 C           2.5214  -13.0117  -44.6474 C.2       3 UNK         0.5000 
     56 O           2.3107  -14.2221  -44.7472 O.2       3 UNK        -0.5000 
     57 CA          1.8979  -12.0292  -45.6582 C.3       3 UNK         0.1400 
     58 CB          2.7959  -11.9029  -46.8983 C.3       3 UNK        -0.1800 
     59 N           0.5539  -12.4075  -46.0930 N.am      3 UNK        -0.5000 
     60 C          -0.5122  -12.5947  -45.3031 C.2       2 UNK         0.5000 
     61 O          -0.4826  -12.4692  -44.0775 O.2       2 UNK        -0.5000 
     62 CA         -1.8461  -12.9551  -45.9926 C.3       2 UNK         0.1400 
     63 CB         -2.8885  -11.8492  -45.7617 C.3       2 UNK        -0.1800 
     64 N          -1.7263  -13.1778  -47.4357 N.am      2 UNK        -0.5000 
     65 C          -1.2661  -14.2843  -48.0313 C.2       1 UNK         0.5000 
     66 O          -0.8735  -15.2722  -47.4135 O.2       1 UNK        -0.5000 
     67 C          -2.0133  -22.2993  -47.4122 C.2       11 UNK         0.5000 
     68 O          -2.5504  -22.9528  -48.3070 O.2       11 UNK        -0.5000 
     69 N          -2.6638  -21.8854  -46.3157 N.am      12 UNK        -0.5000 
     70 CA         -4.0406  -22.2545  -45.9858 C.3       12 UNK         0.1400 
     71 CB         -4.5743  -21.3510  -44.8652 C.3       12 UNK        -0.1800 
     72 C          -4.1705  -23.7406  -45.6138 C.2       12 UNK         0.5000 
     73 O          -5.0759  -24.4062  -46.1149 O.2       12 UNK        -0.5000 
     74 N          -3.2420  -24.2501  -44.7912 N.am      13 UNK        -0.5000 
     75 CA         -3.1555  -25.6609  -44.3994 C.3       13 UNK         0.1400 
     76 CB         -2.0854  -25.8284  -43.3103 C.3       13 UNK        -0.1800 
     77 C          -2.8755  -26.6001  -45.5886 C.2       13 UNK         0.5000 
     78 O          -3.4252  -27.7007  -45.6395 O.2       13 UNK        -0.5000 
     79 N          -2.0634  -26.1286  -46.5439 N.am      14 UNK        -0.5000 
     80 CA         -1.7854  -26.7915  -47.8195 C.3       14 UNK         0.1400 
     81 CB         -0.5194  -26.1667  -48.4279 C.3       14 UNK        -0.1800 
     82 C          -2.9526  -26.7138  -48.8278 C.2       14 UNK         0.5000 
     83 O          -2.8943  -27.3865  -49.8575 O.2       14 UNK        -0.5000 
     84 N          -3.9650  -25.8807  -48.5374 N.am      15 UNK        -0.5000 
     85 CA         -5.1269  -25.5452  -49.3699 C.3       15 UNK         0.1400 
     86 CB         -6.0078  -26.7837  -49.6319 C.3       15 UNK        -0.1800 
     87 C          -4.7614  -24.7844  -50.6629 C.2       15 UNK         0.5000 
     88 O          -5.5609  -24.7425  -51.5986 O.2       15 UNK        -0.5000 
     89 N          -3.5761  -24.1624  -50.6817 N.am      16 UNK        -0.5000 
     90 CA         -3.0906  -23.3178  -51.7669 C.3       16 UNK         0.1400 
     91 CB         -1.5585  -23.2218  -51.6950 C.3       16 UNK        -0.1800 
     92 C          -3.7451  -21.9317  -51.6943 C.2       16 UNK         0.5000 
     93 O          -4.2874  -21.4619  -52.6942 O.2       16 UNK        -0.5000 
     94 N          -3.7586  -21.3308  -50.4938 N.am      17 UNK        -0.5000 
     95 CA         -4.3723  -20.0213  -50.2476 C.3       17 UNK         0.1400 
     96 CB         -3.9535  -19.4795  -48.8739 C.3       17 UNK        -0.1800 
     97 C          -5.9049  -20.0371  -50.3859 C.2       17 UNK         0.5000 
     98 O          -6.4869  -19.0146  -50.7441 O.2       17 UNK        -0.5000 
     99 N          -6.5223  -21.2080  -50.1724 N.am      18 UNK        -0.5000 
    100 CA        -7.9448  -21.4624  -50.4148 C.3       18 UNK         0.1400 
    101 CB        -8.3116  -22.8402  -49.8422 C.3       18 UNK        -0.1800 
    102 C         -8.3294  -21.3727  -51.9073 C.2       18 UNK         0.5000 
    103 O         -9.4689  -21.0262  -52.2188 O.2       18 UNK        -0.5000 
    104 N         -7.3672  -21.6560  -52.7958 N.am      19 UNK        -0.5000 
    105 CA        -7.4814  -21.5108  -54.2477 C.3       19 UNK         0.1400 
    106 CB        -6.7745  -22.7083  -54.9057 C.3       19 UNK        -0.1800 
    107 C         -6.8762  -20.1823  -54.7504 C.2       19 UNK         0.5000 
    108 O         -6.8986  -19.9348  -55.9567 O.2       19 UNK        -0.5000 
    109 N         -6.3266  -19.3697  -53.8324 N.am      20 UNK        -0.5000 
    110 CA        -5.5531  -18.1436  -54.0621 C.3       20 UNK         0.1400 
    111 CB        -6.4511  -17.0257  -54.6304 C.3       20 UNK        -0.1800 
    112 C         -4.2765  -18.3842  -54.8995 C.2       20 UNK         0.5000 
    113 O         -3.8818  -17.5234  -55.6883 O.2       20 UNK        -0.5000 
    114 N         -3.6572  -19.5551  -54.7126 N.am      21 UNK        -0.5000 
    115 CA        -2.4541  -20.0032  -55.4035 C.3       21 UNK         0.1400 
    116 CB        -2.6987  -21.4355  -55.9066 C.3       21 UNK        -0.1800 
    117 C         -1.2489  -19.9762  -54.4510 C.2       21 UNK         0.5000 
    118 O         -1.4183  -20.0626  -53.2339 O.2       21 UNK        -0.5000 
    119 N         -0.0497  -19.8936  -55.0359 N.am      22 UNK        -0.5000 
    120 CA         1.2416  -19.9605  -54.3295 C.3       22 UNK         0.1400 
    121 C          1.7790  -21.4137  -54.1408 C.2       22 UNK         0.5000 
    122 N          1.1307  -22.4399  -54.6807 N.am      22 UNK        -0.7600 
    123 O          2.7926  -21.6257  -53.4824 O.2       22 UNK        -0.5000 
    124 C124        2.2706  -19.0197  -55.0170 C.3       23 UNK        -0.0398 
    125 S125        3.6125  -18.4322  -53.9256 S.3       23 UNK        -0.2404 
    126 C126        2.9250  -16.8744  -53.2762 C.3       23 UNK        -0.0205 
    127 H127        0.0505  -10.9636  -51.4108 H         1 UNK         0.0600 
    128 H128       -0.7959   -9.8524  -50.3302 H         1 UNK         0.0600 
    129 H129       -1.5729  -10.4021  -51.8189 H         1 UNK         0.0600 
    130 H130        0.0627  -13.0193  -50.6378 H         1 UNK         0.3000 
    131 H131       -0.3899  -14.9616  -49.8283 H         1 UNK         0.0600 
    132 H132       -2.7114  -15.8911  -49.6853 H         1 UNK         0.0800 
    133 H133       -3.3759  -14.3022  -49.9237 H         1 UNK         0.0800 
    134 H134       -2.1406  -17.2300  -53.1331 H         1 UNK         0.0800 
    135 H135       -2.6705  -17.5179  -51.4984 H         1 UNK         0.0800 
    136 H136        0.2325  -16.5001  -53.5949 H         1 UNK         0.1150 
    137 H137        3.1435  -17.8303  -50.7448 H         1 UNK         0.1150 
    138 H138       -1.0217  -17.8914  -49.7370 H         1 UNK         0.1150 
    139 H139        0.7833  -18.0787  -47.9607 H         1 UNK         0.0800 
    140 H140        2.4531  -18.1564  -48.4381 H         1 UNK         0.0800 
    141 H141       -0.8826  -20.6560  -49.2705 H         1 UNK         0.0800 
    142 H142       -0.7390  -19.7923  -47.7515 H         1 UNK         0.0800 
    143 H143       -0.0632  -22.7414  -48.1317 H         1 UNK         0.0600 
    144 H144        0.5416  -21.0460  -45.9262 H         1 UNK         0.3000 
    145 H145        0.8147  -23.7197  -43.5119 H         1 UNK         0.0600 
    146 H146        2.9673  -23.5087  -44.7359 H         1 UNK         0.0600 
    147 H147        2.9930  -22.5687  -43.2513 H         1 UNK         0.0600 
    148 H148        2.7852  -21.7618  -44.8032 H         1 UNK         0.0600 
    149 H149        1.0488  -20.9075  -43.1809 H         1 UNK         0.3000 
    150 H150       -2.3954  -20.2925  -42.3312 H         1 UNK         0.0600 
    151 H151        0.2033  -20.2563  -40.7073 H         1 UNK         0.0600 
    152 H152       -1.2583  -21.1341  -40.2722 H         1 UNK         0.0600 
    153 H153       -1.2743  -19.3774  -40.3233 H         1 UNK         0.0600 
    154 H154       -0.2145  -18.5042  -42.4474 H         1 UNK         0.3000 
    155 H155       -0.4903  -17.5979  -45.9147 H         1 UNK         0.0600 
    156 H156       -0.4580  -15.4088  -44.6638 H         1 UNK         0.0600 
    157 H157       -1.0427  -16.2324  -43.2233 H         1 UNK         0.0600 
    158 H158       -2.0400  -16.1786  -44.6686 H         1 UNK         0.0600 
    159 H159        1.4030  -16.7965  -43.9945 H         1 UNK         0.3000 
    160 H160        3.8203  -19.4000  -44.4782 H         1 UNK         0.0600 
    161 H161        3.7033  -16.4325  -45.2338 H         1 UNK         0.0600 
    162 H162        4.1880  -17.7548  -46.2821 H         1 UNK         0.0600 
    163 H163        5.1776  -17.3393  -44.8908 H         1 UNK         0.0600 
    164 H164        3.7082  -17.0883  -42.7735 H         1 UNK         0.3000 
    165 H165        2.2617  -18.7316  -39.9502 H         1 UNK         0.0600 
    166 H166        4.7075  -19.2658  -39.8933 H         1 UNK         0.0600 
    167 H167        5.0824  -17.6532  -40.4919 H         1 UNK         0.0600 
    168 H168        4.3335  -17.8592  -38.9094 H         1 UNK         0.0600 
    169 H169        3.1954  -16.0502  -40.3923 H         1 UNK         0.3000 
    170 H170        0.0557  -14.7020  -41.4542 H         1 UNK         0.0600 
    171 H171        0.6472  -13.1952  -39.5775 H         1 UNK         0.0600 
    172 H172        1.8147  -14.3672  -38.9689 H         1 UNK         0.0600 
    173 H173        0.1024  -14.7569  -38.9858 H         1 UNK         0.0600 
    174 H174        1.6113  -13.7371  -42.6473 H         1 UNK         0.3000 
    175 H175        4.5790  -12.3069  -42.1094 H         1 UNK         0.0600 
    176 H176        4.7795  -14.8396  -43.8176 H         1 UNK         0.0600 
    177 H177        5.8710  -14.3703  -42.5252 H         1 UNK         0.0600 
    178 H178        5.7907  -13.4075  -43.9904 H         1 UNK         0.0600 
    179 H179        3.3578  -11.4472  -43.6951 H         1 UNK         0.3000 
    180 H180        1.8189  -11.0480  -45.1858 H         1 UNK         0.0600 
    181 H181        2.8791  -12.8516  -47.4306 H         1 UNK         0.0600 
    182 H182        3.8046  -11.5924  -46.6225 H         1 UNK         0.0600 
    183 H183        2.4078  -11.1593  -47.5948 H         1 UNK         0.0600 
    184 H184        0.4291  -12.5602  -47.0817 H         1 UNK         0.3000 
    185 H185       -2.2176  -13.8703  -45.5296 H         1 UNK         0.0600 
    186 H186       -3.0509  -11.6765  -44.6969 H         1 UNK         0.0600 
    187 H187       -2.5745  -10.9032  -46.2047 H         1 UNK         0.0600 
    188 H188       -3.8518  -12.1189  -46.1952 H         1 UNK         0.0600 
    189 H189       -2.0643  -12.4361  -48.0431 H         1 UNK         0.3000 
    190 H190       -2.1874  -21.2722  -45.6609 H         1 UNK         0.3000 
    191 H191       -4.6595  -22.0890  -46.8696 H         1 UNK         0.0600 
    192 H192       -4.5550  -20.3027  -45.1639 H         1 UNK         0.0600 
    193 H193       -5.6074  -21.6008  -44.6208 H         1 UNK         0.0600 
    194 H194       -3.9878  -21.4486  -43.9521 H         1 UNK         0.0600 
    195 H195       -2.5544  -23.6242  -44.3790 H         1 UNK         0.3000 
    196 H196       -4.1199  -25.9464  -43.9744 H         1 UNK         0.0600 
    197 H197       -2.0146  -26.8678  -42.9876 H         1 UNK         0.0600 
    198 H198       -2.3222  -25.2300  -42.4305 H         1 UNK         0.0600 
    199 H199       -1.0997  -25.5257  -43.6645 H         1 UNK         0.0600 
    200 H200       -1.5818  -25.2501  -46.3759 H         1 UNK         0.3000 
    201 H201       -1.5885  -27.8477  -47.6256 H         1 UNK         0.0600 
    202 H202       -0.2418  -26.6651  -49.3576 H         1 UNK         0.0600 
    203 H203        0.3291  -26.2524  -47.7487 H         1 UNK         0.0600 
    204 H204       -0.6628  -25.1095  -48.6530 H         1 UNK         0.0600 
    205 H205       -3.9235  -25.3847  -47.6554 H         1 UNK         0.3000 
    206 H206       -5.7207  -24.8472  -48.7786 H         1 UNK         0.0600 
    207 H207       -6.2501  -27.2982  -48.7020 H         1 UNK         0.0600 
    208 H208       -6.9514  -26.4996  -50.0992 H         1 UNK         0.0600 
    209 H209       -5.5193  -27.4979  -50.2950 H         1 UNK         0.0600 
    210 H210       -3.0258  -24.1625  -49.8298 H         1 UNK         0.3000 
    211 H211       -3.3594  -23.7739  -52.7222 H         1 UNK         0.0600 
    212 H212       -1.1003  -24.2098  -51.7419 H         1 UNK         0.0600 
    213 H213       -1.1651  -22.6439  -52.5315 H         1 UNK         0.0600 
    214 H214       -1.2201  -22.7409  -50.7770 H         1 UNK         0.0600 
    215 H215       -3.3373  -21.8119  -49.7064 H         1 UNK         0.3000 
    216 H216       -3.9934  -19.3367  -51.0078 H         1 UNK         0.0600 
    217 H217       -4.2778  -20.1313  -48.0647 H         1 UNK         0.0600 
    218 H218       -4.3914  -18.4968  -48.6937 H         1 UNK         0.0600 
    219 H219       -2.8743  -19.3619  -48.8064 H         1 UNK         0.0600 
    220 H220       -5.9607  -21.9973  -49.8927 H         1 UNK         0.3000 
    221 H221       -8.5189  -20.7038  -49.8787 H         1 UNK         0.0600 
    222 H222       -7.7782  -23.6438  -50.3506 H         1 UNK         0.0600 
    223 H223       -8.0806  -22.9023  -48.7785 H         1 UNK         0.0600 
    224 H224       -9.3788  -23.0359  -49.9540 H         1 UNK         0.0600 
    225 H225       -6.4511  -21.9222  -52.4572 H         1 UNK         0.3000 
    226 H226       -8.5313  -21.5273  -54.5466 H         1 UNK         0.0600 
    227 H227       -7.1970  -23.6528  -54.5621 H         1 UNK         0.0600 
    228 H228       -6.8813  -22.6809  -55.9907 H         1 UNK         0.0600 
    229 H229       -5.7070  -22.7192  -54.6816 H         1 UNK         0.0600 
    230 H230       -6.3929  -19.6552  -52.8649 H         1 UNK         0.3000 
    231 H231       -5.2077  -17.8166  -53.0803 H         1 UNK         0.0600 
    232 H232       -6.7866  -17.2498  -55.6432 H         1 UNK         0.0600 
    233 H233       -5.9166  -16.0757  -54.6657 H         1 UNK         0.0600 
    234 H234       -7.3341  -16.8764  -54.0089 H         1 UNK         0.0600 
    235 H235       -3.9965  -20.1863  -53.9894 H         1 UNK         0.3000 
    236 H236       -2.2422  -19.3608  -56.2606 H         1 UNK         0.0600 
    237 H237       -2.8696  -22.1287  -55.0816 H         1 UNK         0.0600 
    238 H238       -3.5698  -21.4778  -56.5609 H         1 UNK         0.0600 
    239 H239       -1.8465  -21.8048  -56.4777 H         1 UNK         0.0600 
    240 H240        0.0023  -19.8435  -56.0431 H         1 UNK         0.3000 
    241 H241        1.0799  -19.5904  -53.3164 H         1 UNK         0.0600 
    242 H242        0.2944  -22.2958  -55.2210 H         1 UNK         0.3800 
    243 H243        1.4874  -23.3729  -54.5467 H         1 UNK         0.3800 
    244 H244        2.7164  -19.5085  -55.8848 H         1 UNK         0.0800 
    245 H245        1.7651  -18.1370  -55.4112 H         1 UNK         0.0800 
    246 H246        3.7229  -16.3156  -52.7852 H         1 UNK         0.0800 
    247 H247        2.5783  -16.2491  -54.1003 H         1 UNK         0.0800 
@<TRIPOS>BOND
     1    1    2 1    
     2    1  127 1    
     3    1  128 1    
     4    1  129 1    
     5    2    3 2    
     6    2    4 am   BACKBONE|DICT|INTERRES
     7    4    5 1    
     8    4  130 1    
     9    5    6 1    
    10    5   65 1    
    11    5  131 1    
    12    6    7 1    
    13    6  132 1    
    14    6  133 1    
    15    7    8 1    
    16    8    9 1    
    17    8  134 1    
    18    8  135 1    
    19    9   10 ar   
    20    9   14 ar   
    21   10   11 ar   
    22   10  136 1    
    23   11   12 ar   
    24   11  126 1    
    25   12   13 ar   
    26   12  137 1    
    27   13   14 ar   
    28   13   15 1    
    29   14  138 1    
    30   15   16 1    
    31   15  139 1    
    32   15  140 1    
    33   16   17 1    
    34   17   18 1    
    35   17  141 1    
    36   17  142 1    
    37   18   19 1    
    38   18   67 1    
    39   18  143 1    
    40   19   20 am   BACKBONE|DICT|INTERRES
    41   19  144 1    
    42   20   21 2    
    43   20   22 1    
    44   22   23 1    
    45   22   24 1    
    46   22  145 1    
    47   23  146 1    
    48   23  147 1    
    49   23  148 1    
    50   24   25 am   BACKBONE|DICT|INTERRES
    51   24  149 1    
    52   25   26 2    
    53   25   27 1    
    54   27   28 1    
    55   27   29 1    
    56   27  150 1    
    57   28  151 1    
    58   28  152 1    
    59   28  153 1    
    60   29   30 am   BACKBONE|DICT|INTERRES
    61   29  154 1    
    62   30   31 2    
    63   30   32 1    
    64   32   33 1    
    65   32   34 1    
    66   32  155 1    
    67   33  156 1    
    68   33  157 1    
    69   33  158 1    
    70   34   35 am   BACKBONE|DICT|INTERRES
    71   34  159 1    
    72   35   36 2    
    73   35   37 1    
    74   37   38 1    
    75   37   39 1    
    76   37  160 1    
    77   38  161 1    
    78   38  162 1    
    79   38  163 1    
    80   39   40 am   BACKBONE|DICT|INTERRES
    81   39  164 1    
    82   40   41 2    
    83   40   42 1    
    84   42   43 1    
    85   42   44 1    
    86   42  165 1    
    87   43  166 1    
    88   43  167 1    
    89   43  168 1    
    90   44   45 am   BACKBONE|DICT|INTERRES
    91   44  169 1    
    92   45   46 2    
    93   45   47 1    
    94   47   48 1    
    95   47   49 1    
    96   47  170 1    
    97   48  171 1    
    98   48  172 1    
    99   48  173 1    
   100   49   50 am   BACKBONE|DICT|INTERRES
   101   49  174 1    
   102   50   51 2    
   103   50   52 1    
   104   52   53 1    
   105   52   54 1    
   106   52  175 1    
   107   53  176 1    
   108   53  177 1    
   109   53  178 1    
   110   54   55 am   BACKBONE|DICT|INTERRES
   111   54  179 1    
   112   55   56 2    
   113   55   57 1    
   114   57   58 1    
   115   57   59 1    
   116   57  180 1    
   117   58  181 1    
   118   58  182 1    
   119   58  183 1    
   120   59   60 am   BACKBONE|DICT|INTERRES
   121   59  184 1    
   122   60   61 2    
   123   60   62 1    
   124   62   63 1    
   125   62   64 1    
   126   62  185 1    
   127   63  186 1    
   128   63  187 1    
   129   63  188 1    
   130   64   65 am   BACKBONE|DICT|INTERRES
   131   64  189 1    
   132   65   66 2    
   133   67   68 2    
   134   67   69 am   BACKBONE|DICT|INTERRES
   135   69   70 1    
   136   69  190 1    
   137   70   71 1    
   138   70   72 1    
   139   70  191 1    
   140   71  192 1    
   141   71  193 1    
   142   71  194 1    
   143   72   73 2    
   144   72   74 am   BACKBONE|DICT|INTERRES
   145   74   75 1    
   146   74  195 1    
   147   75   76 1    
   148   75   77 1    
   149   75  196 1    
   150   76  197 1    
   151   76  198 1    
   152   76  199 1    
   153   77   78 2    
   154   77   79 am   BACKBONE|DICT|INTERRES
   155   79   80 1    
   156   79  200 1    
   157   80   81 1    
   158   80   82 1    
   159   80  201 1    
   160   81  202 1    
   161   81  203 1    
   162   81  204 1    
   163   82   83 2    
   164   82   84 am   BACKBONE|DICT|INTERRES
   165   84   85 1    
   166   84  205 1    
   167   85   86 1    
   168   85   87 1    
   169   85  206 1    
   170   86  207 1    
   171   86  208 1    
   172   86  209 1    
   173   87   88 2    
   174   87   89 am   BACKBONE|DICT|INTERRES
   175   89   90 1    
   176   89  210 1    
   177   90   91 1    
   178   90   92 1    
   179   90  211 1    
   180   91  212 1    
   181   91  213 1    
   182   91  214 1    
   183   92   93 2    
   184   92   94 am   BACKBONE|DICT|INTERRES
   185   94   95 1    
   186   94  215 1    
   187   95   96 1    
   188   95   97 1    
   189   95  216 1    
   190   96  217 1    
   191   96  218 1    
   192   96  219 1    
   193   97   98 2    
   194   97   99 am   BACKBONE|DICT|INTERRES
   195   99  100 1    
   196   99  220 1    
   197  100  101 1    
   198  100  102 1    
   199  100  221 1    
   200  101  222 1    
   201  101  223 1    
   202  101  224 1    
   203  102  103 2    
   204  102  104 am   BACKBONE|DICT|INTERRES
   205  104  105 1    
   206  104  225 1    
   207  105  106 1    
   208  105  107 1    
   209  105  226 1    
   210  106  227 1    
   211  106  228 1    
   212  106  229 1    
   213  107  108 2    
   214  107  109 am   BACKBONE|DICT|INTERRES
   215  109  110 1    
   216  109  230 1    
   217  110  111 1    
   218  110  112 1    
   219  110  231 1    
   220  111  232 1    
   221  111  233 1    
   222  111  234 1    
   223  112  113 2    
   224  112  114 am   BACKBONE|DICT|INTERRES
   225  114  115 1    
   226  114  235 1    
   227  115  116 1    
   228  115  117 1    
   229  115  236 1    
   230  116  237 1    
   231  116  238 1    
   232  116  239 1    
   233  117  118 2    
   234  117  119 am   BACKBONE|DICT|INTERRES
   235  119  120 1    
   236  119  240 1    
   237  120  121 1    
   238  120  124 1    
   239  120  241 1    
   240  121  122 am   BACKBONE|DICT|INTERRES
   241  121  123 2    
   242  122  242 1    
   243  122  243 1    
   244  124  125 1    
   245  124  244 1    
   246  124  245 1    
   247  125  126 1    
   248  126  246 1    
   249  126  247 1    
@<TRIPOS>SUBSTRUCTURE
     1 UNK         1 GROUP             0       ****    0 ROOT    
