@<TRIPOS>MOLECULE
3R540
247   249    1
SMALL
USER_CHARGES


@<TRIPOS>ATOM
      1 CA          2.3394  -10.6988  -49.6921 C.3       0 UNK        -0.1800 
      2 C           1.5151  -11.5110  -48.7045 C.2       0 UNK         0.5000 
      3 O           2.0671  -12.3383  -47.9810 O.2       0 UNK        -0.5000 
      4 N           0.1993  -11.2634  -48.6538 N.am      1 UNK        -0.5000 
      5 CA         -0.7791  -11.9805  -47.8198 C.3       1 UNK         0.1400 
      6 C6         -2.2386  -11.5676  -48.1447 C.3       23 UNK        -0.0398 
      7 S7         -2.6580  -11.6085  -49.9247 S.3       23 UNK        -0.2404 
      8 C8         -3.7608  -13.0531  -50.0516 C.3       23 UNK        -0.0205 
      9 C9         -2.9817  -14.3332  -50.3080 C.ar      23 UNK        -0.0193 
     10 C10        -2.6510  -14.6989  -51.6170 C.ar      23 UNK        -0.1150 
     11 C11        -1.9281  -15.8686  -51.8670 C.ar      23 UNK        -0.0193 
     12 C12        -1.5371  -16.6757  -50.7957 C.ar      23 UNK        -0.1150 
     13 C13        -1.8677  -16.3245  -49.4843 C.ar      23 UNK        -0.0193 
     14 C14        -2.5920  -15.1527  -49.2450 C.ar      23 UNK        -0.1150 
     15 C15        -1.4030  -17.1869  -48.3247 C.3       23 UNK        -0.0205 
     16 S16        -2.5773  -18.5162  -47.9327 S.3       23 UNK        -0.2404 
     17 C17        -1.7045  -19.3106  -46.5434 C.3       23 UNK        -0.0398 
     18 CA         -1.3283  -20.7863  -46.8203 C.3       11 UNK         0.1400 
     19 N          -0.0800  -21.1710  -46.1591 N.am      11 UNK        -0.5000 
     20 C           0.5857  -22.3107  -46.3944 C.2       10 UNK         0.5000 
     21 O           0.2628  -23.1215  -47.2617 O.2       10 UNK        -0.5000 
     22 CA          1.7895  -22.6229  -45.4864 C.3       10 UNK         0.1400 
     23 CB          3.0964  -22.1417  -46.1342 C.3       10 UNK        -0.1800 
     24 N           1.6700  -22.0437  -44.1478 N.am      10 UNK        -0.5000 
     25 C           0.7591  -22.4025  -43.2323 C.2       9 UNK         0.5000 
     26 O          -0.0922  -23.2723  -43.4275 O.2       9 UNK        -0.5000 
     27 CA          0.7760  -21.6531  -41.8800 C.3       9 UNK         0.1400 
     28 CB          2.0136  -20.7491  -41.6803 C.3       9 UNK        -0.1800 
     29 N          -0.4420  -20.8703  -41.6365 N.am      9 UNK        -0.5000 
     30 C          -0.9927  -19.9664  -42.4596 C.2       8 UNK         0.5000 
     31 O          -0.6153  -19.7752  -43.6150 O.2       8 UNK        -0.5000 
     32 CA         -2.1719  -19.1239  -41.9347 C.3       8 UNK         0.1400 
     33 CB         -2.6133  -19.4433  -40.4884 C.3       8 UNK        -0.1800 
     34 N          -1.8783  -17.7003  -42.1192 N.am      8 UNK        -0.5000 
     35 C          -0.9084  -16.9892  -41.5268 C.2       7 UNK         0.5000 
     36 O          -0.2159  -17.4016  -40.5947 O.2       7 UNK        -0.5000 
     37 CA         -0.6386  -15.5966  -42.1308 C.3       7 UNK         0.1400 
     38 CB          0.0236  -14.6365  -41.1268 C.3       7 UNK        -0.1800 
     39 N           0.2283  -15.7115  -43.2995 N.am      7 UNK        -0.5000 
     40 C          -0.1178  -16.2117  -44.4919 C.2       6 UNK         0.5000 
     41 O          -1.2665  -16.5501  -44.7777 O.2       6 UNK        -0.5000 
     42 CA          1.0068  -16.3746  -45.5312 C.3       6 UNK         0.1400 
     43 CB          1.1371  -15.1186  -46.4023 C.3       6 UNK        -0.1800 
     44 N           2.2964  -16.6558  -44.9052 N.am      6 UNK        -0.5000 
     45 C           2.7777  -17.8818  -44.6598 C.2       5 UNK         0.5000 
     46 O           2.1818  -18.9208  -44.9445 O.2       5 UNK        -0.5000 
     47 CA          4.1755  -17.9750  -44.0157 C.3       5 UNK         0.1400 
     48 CB          5.2166  -18.3944  -45.0651 C.3       5 UNK        -0.1800 
     49 N           4.6070  -16.7168  -43.4015 N.am      5 UNK        -0.5000 
     50 C           4.2865  -16.3346  -42.1583 C.2       4 UNK         0.5000 
     51 O           3.6428  -17.0305  -41.3735 O.2       4 UNK        -0.5000 
     52 CA          4.7390  -14.9239  -41.7265 C.3       4 UNK         0.1400 
     53 CB          6.1340  -14.9803  -41.0855 C.3       4 UNK        -0.1800 
     54 N           4.7438  -13.9248  -42.8041 N.am      4 UNK        -0.5000 
     55 C           3.6689  -13.5709  -43.5207 C.2       3 UNK         0.5000 
     56 O           2.5781  -14.1321  -43.4173 O.2       3 UNK        -0.5000 
     57 CA          3.8568  -12.4422  -44.5543 C.3       3 UNK         0.1400 
     58 CB          4.4879  -12.9993  -45.8396 C.3       3 UNK        -0.1800 
     59 N           2.5968  -11.7699  -44.8934 N.am      3 UNK        -0.5000 
     60 C           1.8617  -11.0531  -44.0279 C.2       2 UNK         0.5000 
     61 O           2.2089  -10.8432  -42.8640 O.2       2 UNK        -0.5000 
     62 CA          0.5376  -10.4344  -44.5243 C.3       2 UNK         0.1400 
     63 CB          0.5808   -8.9010  -44.4093 C.3       2 UNK        -0.1800 
     64 N           0.2077  -10.7770  -45.9077 N.am      2 UNK        -0.5000 
     65 C          -0.5256  -11.8282  -46.2990 C.2       1 UNK         0.5000 
     66 O          -1.0077  -12.6494  -45.5194 O.2       1 UNK        -0.5000 
     67 C          -2.4686  -21.7287  -46.4017 C.2       11 UNK         0.5000 
     68 O          -3.1678  -22.2609  -47.2628 O.2       11 UNK        -0.5000 
     69 N          -2.6039  -21.9483  -45.0853 N.am      12 UNK        -0.5000 
     70 CA         -3.6092  -22.8243  -44.4804 C.3       12 UNK         0.1400 
     71 CB         -3.5931  -22.6635  -42.9532 C.3       12 UNK        -0.1800 
     72 C          -3.4272  -24.2966  -44.8840 C.2       12 UNK         0.5000 
     73 O          -4.4117  -24.9618  -45.2069 O.2       12 UNK        -0.5000 
     74 N          -2.1680  -24.7542  -44.9323 N.am      13 UNK        -0.5000 
     75 CA         -1.7754  -26.0810  -45.4172 C.3       13 UNK         0.1400 
     76 CB         -0.2694  -26.2734  -45.1862 C.3       13 UNK        -0.1800 
     77 C          -2.1281  -26.3265  -46.8998 C.2       13 UNK         0.5000 
     78 O          -2.3653  -27.4716  -47.2845 O.2       13 UNK        -0.5000 
     79 N          -2.1861  -25.2477  -47.6908 N.am      14 UNK        -0.5000 
     80 CA         -2.5819  -25.2366  -49.0976 C.3       14 UNK         0.1400 
     81 CB         -1.6229  -24.3109  -49.8641 C.3       14 UNK        -0.1800 
     82 C          -4.0574  -24.8248  -49.2922 C.2       14 UNK         0.5000 
     83 O          -4.4328  -24.4604  -50.4076 O.2       14 UNK        -0.5000 
     84 N          -4.8680  -24.8826  -48.2230 N.am      15 UNK        -0.5000 
     85 CA         -6.3058  -24.5892  -48.1816 C.3       15 UNK         0.1400 
     86 CB         -7.0930  -25.6140  -49.0267 C.3       15 UNK        -0.1800 
     87 C          -6.6254  -23.1272  -48.5554 C.2       15 UNK         0.5000 
     88 O          -7.4514  -22.8761  -49.4323 O.2       15 UNK        -0.5000 
     89 N          -5.9237  -22.1899  -47.9032 N.am      16 UNK        -0.5000 
     90 CA         -5.9029  -20.7459  -48.1760 C.3       16 UNK         0.1400 
     91 CB         -7.2836  -20.1008  -47.9345 C.3       16 UNK        -0.1800 
     92 C          -5.3146  -20.4462  -49.5705 C.2       16 UNK         0.5000 
     93 O          -5.8294  -19.5976  -50.2997 O.2       16 UNK        -0.5000 
     94 N          -4.2605  -21.2024  -49.9128 N.am      17 UNK        -0.5000 
     95 CA         -3.5340  -21.2313  -51.1859 C.3       17 UNK         0.1400 
     96 CB         -2.7944  -19.9041  -51.4352 C.3       17 UNK        -0.1800 
     97 C          -4.3661  -21.6793  -52.4052 C.2       17 UNK         0.5000 
     98 O          -3.8770  -21.5692  -53.5297 O.2       17 UNK        -0.5000 
     99 N          -5.5744  -22.2172  -52.1853 N.am      18 UNK        -0.5000 
    100 CA        -6.4690  -22.7083  -53.2328 C.3       18 UNK         0.1400 
    101 CB        -7.8728  -22.9281  -52.6527 C.3       18 UNK        -0.1800 
    102 C         -5.9590  -23.9960  -53.9011 C.2       18 UNK         0.5000 
    103 O         -6.1621  -24.1665  -55.1032 O.2       18 UNK        -0.5000 
    104 N         -5.2818  -24.8626  -53.1326 N.am      19 UNK        -0.5000 
    105 CA        -4.6704  -26.0958  -53.6367 C.3       19 UNK         0.1400 
    106 CB        -4.3419  -27.0263  -52.4593 C.3       19 UNK        -0.1800 
    107 C         -3.4078  -25.8152  -54.4721 C.2       19 UNK         0.5000 
    108 O         -3.1235  -26.5504  -55.4180 O.2       19 UNK        -0.5000 
    109 N         -2.6890  -24.7427  -54.1154 N.am      20 UNK        -0.5000 
    110 CA        -1.5221  -24.2385  -54.8393 C.3       20 UNK         0.1400 
    111 CB        -0.6385  -23.4580  -53.8520 C.3       20 UNK        -0.1800 
    112 C         -1.9052  -23.3375  -56.0297 C.2       20 UNK         0.5000 
    113 O         -1.0566  -23.0747  -56.8826 O.2       20 UNK        -0.5000 
    114 N         -3.1475  -22.8295  -56.0311 N.am      21 UNK        -0.5000 
    115 CA        -3.7069  -21.8112  -56.9287 C.3       21 UNK         0.1400 
    116 CB        -3.8961  -22.3886  -58.3460 C.3       21 UNK        -0.1800 
    117 C         -2.8959  -20.4946  -56.9149 C.2       21 UNK         0.5000 
    118 O         -2.7867  -19.8256  -57.9440 O.2       21 UNK        -0.5000 
    119 N         -2.3035  -20.1786  -55.7533 N.am      22 UNK        -0.5000 
    120 CA        -1.2936  -19.1248  -55.5426 C.3       22 UNK         0.1400 
    121 C          0.0263  -19.2995  -56.3640 C.2       22 UNK         0.5000 
    122 N          0.3252  -20.4673  -56.9220 N.am      22 UNK        -0.7600 
    123 O          0.8253  -18.3724  -56.4657 O.2       22 UNK        -0.5000 
    124 C124       -1.8932  -17.6902  -55.6356 C.3       23 UNK        -0.0398 
    125 S125       -2.8045  -17.2426  -54.1189 S.3       23 UNK        -0.2404 
    126 C126       -1.5318  -16.2404  -53.2870 C.3       23 UNK        -0.0205 
    127 H127        2.8334  -11.3629  -50.4014 H         1 UNK         0.0600 
    128 H128        1.7230   -9.9972  -50.2546 H         1 UNK         0.0600 
    129 H129        3.1059  -10.1321  -49.1634 H         1 UNK         0.0600 
    130 H130       -0.1965  -10.5775  -49.2814 H         1 UNK         0.3000 
    131 H131       -0.6758  -13.0407  -48.0567 H         1 UNK         0.0600 
    132 H132       -2.9384  -12.1993  -47.5949 H         1 UNK         0.0800 
    133 H133       -2.4255  -10.5492  -47.7987 H         1 UNK         0.0800 
    134 H134       -4.4566  -12.8845  -50.8750 H         1 UNK         0.0800 
    135 H135       -4.3778  -13.1466  -49.1569 H         1 UNK         0.0800 
    136 H136       -2.9477  -14.0663  -52.4420 H         1 UNK         0.1150 
    137 H137       -0.9664  -17.5743  -50.9821 H         1 UNK         0.1150 
    138 H138       -2.8429  -14.8742  -48.2310 H         1 UNK         0.1150 
    139 H139       -0.4232  -17.6135  -48.5455 H         1 UNK         0.0800 
    140 H140       -1.2846  -16.5645  -47.4399 H         1 UNK         0.0800 
    141 H141       -0.7971  -18.7475  -46.3406 H         1 UNK         0.0800 
    142 H142       -2.3075  -19.1940  -45.6410 H         1 UNK         0.0800 
    143 H143       -1.1683  -20.9122  -47.8937 H         1 UNK         0.0600 
    144 H144        0.2279  -20.5764  -45.3953 H         1 UNK         0.3000 
    145 H145        1.8465  -23.7072  -45.3751 H         1 UNK         0.0600 
    146 H146        3.9605  -22.3965  -45.5204 H         1 UNK         0.0600 
    147 H147        3.2415  -22.6086  -47.1093 H         1 UNK         0.0600 
    148 H148        3.0978  -21.0622  -46.2862 H         1 UNK         0.0600 
    149 H149        2.2723  -21.2582  -43.9451 H         1 UNK         0.3000 
    150 H150        0.8069  -22.4268  -41.1118 H         1 UNK         0.0600 
    151 H151        2.9426  -21.3035  -41.8192 H         1 UNK         0.0600 
    152 H152        2.0352  -20.3410  -40.6697 H         1 UNK         0.0600 
    153 H153        2.0167  -19.9034  -42.3681 H         1 UNK         0.0600 
    154 H154       -0.8484  -20.9786  -40.7185 H         1 UNK         0.3000 
    155 H155       -3.0152  -19.3427  -42.5907 H         1 UNK         0.0600 
    156 H156       -3.4458  -18.8069  -40.1883 H         1 UNK         0.0600 
    157 H157       -1.8118  -19.2986  -39.7638 H         1 UNK         0.0600 
    158 H158       -2.9552  -20.4754  -40.4024 H         1 UNK         0.0600 
    159 H159       -2.2794  -17.2912  -42.9549 H         1 UNK         0.3000 
    160 H160       -1.5913  -15.1603  -42.4381 H         1 UNK         0.0600 
    161 H161        1.0091  -14.9901  -40.8198 H         1 UNK         0.0600 
    162 H162       -0.5850  -14.5290  -40.2283 H         1 UNK         0.0600 
    163 H163        0.1488  -13.6430  -41.5586 H         1 UNK         0.0600 
    164 H164        1.1792  -15.3740  -43.1842 H         1 UNK         0.3000 
    165 H165        0.7483  -17.2016  -46.1907 H         1 UNK         0.0600 
    166 H166        1.3980  -14.2423  -45.8106 H         1 UNK         0.0600 
    167 H167        1.8994  -15.2444  -47.1711 H         1 UNK         0.0600 
    168 H168        0.2000  -14.8958  -46.9095 H         1 UNK         0.0600 
    169 H169        2.8080  -15.8532  -44.5631 H         1 UNK         0.3000 
    170 H170        4.1344  -18.7550  -43.2525 H         1 UNK         0.0600 
    171 H171        4.9486  -19.3475  -45.5231 H         1 UNK         0.0600 
    172 H172        5.3015  -17.6581  -45.8653 H         1 UNK         0.0600 
    173 H173        6.2019  -18.5180  -44.6154 H         1 UNK         0.0600 
    174 H174        5.1508  -16.0891  -43.9755 H         1 UNK         0.3000 
    175 H175        4.0320  -14.5789  -40.9690 H         1 UNK         0.0600 
    176 H176        6.8960  -15.2803  -41.8058 H         1 UNK         0.0600 
    177 H177        6.4203  -14.0113  -40.6762 H         1 UNK         0.0600 
    178 H178        6.1582  -15.6976  -40.2639 H         1 UNK         0.0600 
    179 H179        5.6149  -13.4369  -42.9563 H         1 UNK         0.3000 
    180 H180        4.5309  -11.6963  -44.1285 H         1 UNK         0.0600 
    181 H181        5.4578  -13.4557  -45.6384 H         1 UNK         0.0600 
    182 H182        3.8575  -13.7594  -46.3019 H         1 UNK         0.0600 
    183 H183        4.6488  -12.2096  -46.5738 H         1 UNK         0.0600 
    184 H184        2.2442  -11.9193  -45.8311 H         1 UNK         0.3000 
    185 H185       -0.2521  -10.7989  -43.8640 H         1 UNK         0.0600 
    186 H186        0.7691   -8.5876  -43.3816 H         1 UNK         0.0600 
    187 H187        1.3670   -8.4729  -45.0325 H         1 UNK         0.0600 
    188 H188       -0.3674   -8.4561  -44.7118 H         1 UNK         0.0600 
    189 H189        0.5730  -10.1641  -46.6222 H         1 UNK         0.3000 
    190 H190       -1.9355  -21.5164  -44.4618 H         1 UNK         0.3000 
    191 H191       -4.5888  -22.5045  -44.8418 H         1 UNK         0.0600 
    192 H192       -4.3233  -23.3244  -42.4843 H         1 UNK         0.0600 
    193 H193       -3.8498  -21.6458  -42.6624 H         1 UNK         0.0600 
    194 H194       -2.6176  -22.9017  -42.5288 H         1 UNK         0.0600 
    195 H195       -1.4211  -24.1529  -44.5958 H         1 UNK         0.3000 
    196 H196       -2.3119  -26.8232  -44.8229 H         1 UNK         0.0600 
    197 H197        0.0452  -27.2766  -45.4762 H         1 UNK         0.0600 
    198 H198       -0.0093  -26.1410  -44.1358 H         1 UNK         0.0600 
    199 H199        0.3177  -25.5643  -45.7699 H         1 UNK         0.0600 
    200 H200       -1.9740  -24.3437  -47.2884 H         1 UNK         0.3000 
    201 H201       -2.4812  -26.2385  -49.5189 H         1 UNK         0.0600 
    202 H202       -0.5928  -24.6552  -49.7722 H         1 UNK         0.0600 
    203 H203       -1.6623  -23.2909  -49.4812 H         1 UNK         0.0600 
    204 H204       -1.8578  -24.2842  -50.9285 H         1 UNK         0.0600 
    205 H205       -4.4605  -25.1467  -47.3337 H         1 UNK         0.3000 
    206 H206       -6.6150  -24.7141  -47.1429 H         1 UNK         0.0600 
    207 H207       -6.8654  -26.6348  -48.7200 H         1 UNK         0.0600 
    208 H208       -8.1678  -25.4718  -48.9090 H         1 UNK         0.0600 
    209 H209       -6.8683  -25.5262  -50.0903 H         1 UNK         0.0600 
    210 H210       -5.1832  -22.5092  -47.2891 H         1 UNK         0.3000 
    211 H211       -5.2110  -20.3084  -47.4550 H         1 UNK         0.0600 
    212 H212       -8.0206  -20.4225  -48.6705 H         1 UNK         0.0600 
    213 H213       -7.2183  -19.0139  -47.9954 H         1 UNK         0.0600 
    214 H214       -7.6664  -20.3480  -46.9445 H         1 UNK         0.0600 
    215 H215       -3.9315  -21.8571  -49.2127 H         1 UNK         0.3000 
    216 H216       -2.7710  -21.9991  -51.0741 H         1 UNK         0.0600 
    217 H217       -3.4833  -19.0654  -51.5381 H         1 UNK         0.0600 
    218 H218       -2.1936  -19.9455  -52.3440 H         1 UNK         0.0600 
    219 H219       -2.1129  -19.6826  -50.6155 H         1 UNK         0.0600 
    220 H220       -5.8941  -22.3174  -51.2310 H         1 UNK         0.3000 
    221 H221       -6.5376  -21.9368  -54.0027 H         1 UNK         0.0600 
    222 H222       -7.8813  -23.7330  -51.9169 H         1 UNK         0.0600 
    223 H223       -8.2479  -22.0260  -52.1688 H         1 UNK         0.0600 
    224 H224       -8.5807  -23.1964  -53.4378 H         1 UNK         0.0600 
    225 H225       -5.1301  -24.6448  -52.1496 H         1 UNK         0.3000 
    226 H226       -5.3945  -26.6025  -54.2782 H         1 UNK         0.0600 
    227 H227       -5.2185  -27.2022  -51.8354 H         1 UNK         0.0600 
    228 H228       -3.9952  -27.9964  -52.8171 H         1 UNK         0.0600 
    229 H229       -3.5560  -26.6135  -51.8270 H         1 UNK         0.0600 
    230 H230       -3.0080  -24.1975  -53.3285 H         1 UNK         0.3000 
    231 H231       -0.9447  -25.0794  -55.2290 H         1 UNK         0.0600 
    232 H232       -1.1660  -22.6044  -53.4243 H         1 UNK         0.0600 
    233 H233       -0.3080  -24.0943  -53.0309 H         1 UNK         0.0600 
    234 H234        0.2566  -23.0759  -54.3449 H         1 UNK         0.0600 
    235 H235       -3.7363  -23.0622  -55.2435 H         1 UNK         0.3000 
    236 H236       -4.6936  -21.5652  -56.5337 H         1 UNK         0.0600 
    237 H237       -4.4773  -23.3105  -58.3198 H         1 UNK         0.0600 
    238 H238       -4.4312  -21.6871  -58.9870 H         1 UNK         0.0600 
    239 H239       -2.9410  -22.6072  -58.8246 H         1 UNK         0.0600 
    240 H240       -2.5219  -20.7547  -54.9484 H         1 UNK         0.3000 
    241 H241       -0.9528  -19.2673  -54.5165 H         1 UNK         0.0600 
    242 H242       -0.2966  -21.2671  -56.8608 H         1 UNK         0.3800 
    243 H243        1.1888  -20.5556  -57.4332 H         1 UNK         0.3800 
    244 H244       -2.5645  -17.6006  -56.4897 H         1 UNK         0.0800 
    245 H245       -1.1238  -16.9345  -55.7981 H         1 UNK         0.0800 
    246 H246       -0.5902  -16.7919  -53.2726 H         1 UNK         0.0800 
    247 H247       -1.3476  -15.3357  -53.8687 H         1 UNK         0.0800 
@<TRIPOS>BOND
     1    1    2 1    
     2    1  127 1    
     3    1  128 1    
     4    1  129 1    
     5    2    3 2    
     6    2    4 am   BACKBONE|DICT|INTERRES
     7    4    5 1    
     8    4  130 1    
     9    5    6 1    
    10    5   65 1    
    11    5  131 1    
    12    6    7 1    
    13    6  132 1    
    14    6  133 1    
    15    7    8 1    
    16    8    9 1    
    17    8  134 1    
    18    8  135 1    
    19    9   10 ar   
    20    9   14 ar   
    21   10   11 ar   
    22   10  136 1    
    23   11   12 ar   
    24   11  126 1    
    25   12   13 ar   
    26   12  137 1    
    27   13   14 ar   
    28   13   15 1    
    29   14  138 1    
    30   15   16 1    
    31   15  139 1    
    32   15  140 1    
    33   16   17 1    
    34   17   18 1    
    35   17  141 1    
    36   17  142 1    
    37   18   19 1    
    38   18   67 1    
    39   18  143 1    
    40   19   20 am   BACKBONE|DICT|INTERRES
    41   19  144 1    
    42   20   21 2    
    43   20   22 1    
    44   22   23 1    
    45   22   24 1    
    46   22  145 1    
    47   23  146 1    
    48   23  147 1    
    49   23  148 1    
    50   24   25 am   BACKBONE|DICT|INTERRES
    51   24  149 1    
    52   25   26 2    
    53   25   27 1    
    54   27   28 1    
    55   27   29 1    
    56   27  150 1    
    57   28  151 1    
    58   28  152 1    
    59   28  153 1    
    60   29   30 am   BACKBONE|DICT|INTERRES
    61   29  154 1    
    62   30   31 2    
    63   30   32 1    
    64   32   33 1    
    65   32   34 1    
    66   32  155 1    
    67   33  156 1    
    68   33  157 1    
    69   33  158 1    
    70   34   35 am   BACKBONE|DICT|INTERRES
    71   34  159 1    
    72   35   36 2    
    73   35   37 1    
    74   37   38 1    
    75   37   39 1    
    76   37  160 1    
    77   38  161 1    
    78   38  162 1    
    79   38  163 1    
    80   39   40 am   BACKBONE|DICT|INTERRES
    81   39  164 1    
    82   40   41 2    
    83   40   42 1    
    84   42   43 1    
    85   42   44 1    
    86   42  165 1    
    87   43  166 1    
    88   43  167 1    
    89   43  168 1    
    90   44   45 am   BACKBONE|DICT|INTERRES
    91   44  169 1    
    92   45   46 2    
    93   45   47 1    
    94   47   48 1    
    95   47   49 1    
    96   47  170 1    
    97   48  171 1    
    98   48  172 1    
    99   48  173 1    
   100   49   50 am   BACKBONE|DICT|INTERRES
   101   49  174 1    
   102   50   51 2    
   103   50   52 1    
   104   52   53 1    
   105   52   54 1    
   106   52  175 1    
   107   53  176 1    
   108   53  177 1    
   109   53  178 1    
   110   54   55 am   BACKBONE|DICT|INTERRES
   111   54  179 1    
   112   55   56 2    
   113   55   57 1    
   114   57   58 1    
   115   57   59 1    
   116   57  180 1    
   117   58  181 1    
   118   58  182 1    
   119   58  183 1    
   120   59   60 am   BACKBONE|DICT|INTERRES
   121   59  184 1    
   122   60   61 2    
   123   60   62 1    
   124   62   63 1    
   125   62   64 1    
   126   62  185 1    
   127   63  186 1    
   128   63  187 1    
   129   63  188 1    
   130   64   65 am   BACKBONE|DICT|INTERRES
   131   64  189 1    
   132   65   66 2    
   133   67   68 2    
   134   67   69 am   BACKBONE|DICT|INTERRES
   135   69   70 1    
   136   69  190 1    
   137   70   71 1    
   138   70   72 1    
   139   70  191 1    
   140   71  192 1    
   141   71  193 1    
   142   71  194 1    
   143   72   73 2    
   144   72   74 am   BACKBONE|DICT|INTERRES
   145   74   75 1    
   146   74  195 1    
   147   75   76 1    
   148   75   77 1    
   149   75  196 1    
   150   76  197 1    
   151   76  198 1    
   152   76  199 1    
   153   77   78 2    
   154   77   79 am   BACKBONE|DICT|INTERRES
   155   79   80 1    
   156   79  200 1    
   157   80   81 1    
   158   80   82 1    
   159   80  201 1    
   160   81  202 1    
   161   81  203 1    
   162   81  204 1    
   163   82   83 2    
   164   82   84 am   BACKBONE|DICT|INTERRES
   165   84   85 1    
   166   84  205 1    
   167   85   86 1    
   168   85   87 1    
   169   85  206 1    
   170   86  207 1    
   171   86  208 1    
   172   86  209 1    
   173   87   88 2    
   174   87   89 am   BACKBONE|DICT|INTERRES
   175   89   90 1    
   176   89  210 1    
   177   90   91 1    
   178   90   92 1    
   179   90  211 1    
   180   91  212 1    
   181   91  213 1    
   182   91  214 1    
   183   92   93 2    
   184   92   94 am   BACKBONE|DICT|INTERRES
   185   94   95 1    
   186   94  215 1    
   187   95   96 1    
   188   95   97 1    
   189   95  216 1    
   190   96  217 1    
   191   96  218 1    
   192   96  219 1    
   193   97   98 2    
   194   97   99 am   BACKBONE|DICT|INTERRES
   195   99  100 1    
   196   99  220 1    
   197  100  101 1    
   198  100  102 1    
   199  100  221 1    
   200  101  222 1    
   201  101  223 1    
   202  101  224 1    
   203  102  103 2    
   204  102  104 am   BACKBONE|DICT|INTERRES
   205  104  105 1    
   206  104  225 1    
   207  105  106 1    
   208  105  107 1    
   209  105  226 1    
   210  106  227 1    
   211  106  228 1    
   212  106  229 1    
   213  107  108 2    
   214  107  109 am   BACKBONE|DICT|INTERRES
   215  109  110 1    
   216  109  230 1    
   217  110  111 1    
   218  110  112 1    
   219  110  231 1    
   220  111  232 1    
   221  111  233 1    
   222  111  234 1    
   223  112  113 2    
   224  112  114 am   BACKBONE|DICT|INTERRES
   225  114  115 1    
   226  114  235 1    
   227  115  116 1    
   228  115  117 1    
   229  115  236 1    
   230  116  237 1    
   231  116  238 1    
   232  116  239 1    
   233  117  118 2    
   234  117  119 am   BACKBONE|DICT|INTERRES
   235  119  120 1    
   236  119  240 1    
   237  120  121 1    
   238  120  124 1    
   239  120  241 1    
   240  121  122 am   BACKBONE|DICT|INTERRES
   241  121  123 2    
   242  122  242 1    
   243  122  243 1    
   244  124  125 1    
   245  124  244 1    
   246  124  245 1    
   247  125  126 1    
   248  126  246 1    
   249  126  247 1    
@<TRIPOS>SUBSTRUCTURE
     1 UNK         1 GROUP             0       ****    0 ROOT    
