@<TRIPOS>MOLECULE
3R540
247   249    1
SMALL
USER_CHARGES


@<TRIPOS>ATOM
      1 CA          5.6574  -13.8233  -49.6160 C.3       0 UNK        -0.1800 
      2 C           4.4204  -14.0720  -48.7668 C.2       0 UNK         0.5000 
      3 O           3.7949  -13.1191  -48.3038 O.2       0 UNK        -0.5000 
      4 N           4.0504  -15.3453  -48.5791 N.am      1 UNK        -0.5000 
      5 CA          2.9125  -15.8170  -47.7727 C.3       1 UNK         0.1400 
      6 C6          2.9168  -17.3603  -47.6339 C.3       23 UNK        -0.0398 
      7 S7          2.9283  -18.2373  -49.2403 S.3       23 UNK        -0.2404 
      8 C8          1.4767  -19.3245  -49.1080 C.3       23 UNK        -0.0205 
      9 C9          0.1603  -18.5617  -49.0912 C.ar      23 UNK        -0.0193 
     10 C10        -0.3771  -18.0464  -50.2752 C.ar      23 UNK        -0.1150 
     11 C11        -1.6239  -17.4123  -50.2704 C.ar      23 UNK        -0.0193 
     12 C12        -2.3352  -17.3050  -49.0722 C.ar      23 UNK        -0.1150 
     13 C13        -1.8053  -17.8095  -47.8812 C.ar      23 UNK        -0.0193 
     14 C14        -0.5480  -18.4176  -47.8958 C.ar      23 UNK        -0.1150 
     15 C15        -2.5894  -17.6936  -46.5822 C.3       23 UNK        -0.0205 
     16 S16        -3.4071  -19.2645  -46.1413 S.3       23 UNK        -0.2404 
     17 C17        -2.0974  -20.1297  -45.2107 C.3       23 UNK        -0.0398 
     18 CA         -1.3741  -21.2158  -46.0440 C.3       11 UNK         0.1400 
     19 N           0.0102  -21.4062  -45.6129 N.am      11 UNK        -0.5000 
     20 C           0.9072  -22.1870  -46.2298 C.2       10 UNK         0.5000 
     21 O           0.6831  -22.8009  -47.2734 O.2       10 UNK        -0.5000 
     22 CA          2.2692  -22.3394  -45.5339 C.3       10 UNK         0.1400 
     23 CB          3.2017  -21.1755  -45.9044 C.3       10 UNK        -0.1800 
     24 N           2.1286  -22.4177  -44.0784 N.am      10 UNK        -0.5000 
     25 C           1.5692  -23.4493  -43.4289 C.2       9 UNK         0.5000 
     26 O           1.1469  -24.4617  -43.9857 O.2       9 UNK        -0.5000 
     27 CA          1.3970  -23.2947  -41.9077 C.3       9 UNK         0.1400 
     28 CB          2.7336  -23.5003  -41.1793 C.3       9 UNK        -0.1800 
     29 N           0.8345  -21.9940  -41.5437 N.am      9 UNK        -0.5000 
     30 C          -0.3904  -21.5744  -41.8908 C.2       8 UNK         0.5000 
     31 O          -1.1955  -22.2585  -42.5209 O.2       8 UNK        -0.5000 
     32 CA         -0.7676  -20.1330  -41.5104 C.3       8 UNK         0.1400 
     33 CB         -1.4268  -20.0955  -40.1243 C.3       8 UNK        -0.1800 
     34 N           0.3565  -19.1968  -41.5324 N.am      8 UNK        -0.5000 
     35 C           1.1204  -18.8995  -42.5911 C.2       7 UNK         0.5000 
     36 O           1.0153  -19.4647  -43.6818 O.2       7 UNK        -0.5000 
     37 CA          2.1561  -17.7710  -42.3848 C.3       7 UNK         0.1400 
     38 CB          3.0562  -17.5746  -43.6182 C.3       7 UNK        -0.1800 
     39 N           1.5103  -16.4954  -42.0618 N.am      7 UNK        -0.5000 
     40 C           0.9021  -16.1885  -40.9039 C.2       6 UNK         0.5000 
     41 O           0.9297  -16.9227  -39.9145 O.2       6 UNK        -0.5000 
     42 CA          0.1033  -14.8686  -40.8300 C.3       6 UNK         0.1400 
     43 CB          0.8773  -13.8179  -40.0193 C.3       6 UNK        -0.1800 
     44 N          -0.2267  -14.3017  -42.1376 N.am      6 UNK        -0.5000 
     45 C          -1.0092  -14.8648  -43.0696 C.2       5 UNK         0.5000 
     46 O          -1.6759  -15.8815  -42.8759 O.2       5 UNK        -0.5000 
     47 CA         -1.0162  -14.2056  -44.4657 C.3       5 UNK         0.1400 
     48 CB         -2.3606  -13.5147  -44.7381 C.3       5 UNK        -0.1800 
     49 N           0.0669  -13.2410  -44.6978 N.am      5 UNK        -0.5000 
     50 C           1.3796  -13.5099  -44.6833 C.2       4 UNK         0.5000 
     51 O           1.8445  -14.6138  -44.3940 O.2       4 UNK        -0.5000 
     52 CA          2.3148  -12.3412  -45.0472 C.3       4 UNK         0.1400 
     53 CB          3.8023  -12.6964  -44.8716 C.3       4 UNK        -0.1800 
     54 N           2.0932  -11.9100  -46.4248 N.am      4 UNK        -0.5000 
     55 C           1.1144  -11.0982  -46.8452 C.2       3 UNK         0.5000 
     56 O           0.2810  -10.5901  -46.0937 O.2       3 UNK        -0.5000 
     57 CA          1.0324  -10.8534  -48.3595 C.3       3 UNK         0.1400 
     58 CB          2.1834   -9.9531  -48.8364 C.3       3 UNK        -0.1800 
     59 N           1.0828  -12.1280  -49.0723 N.am      3 UNK        -0.5000 
     60 C           0.0077  -12.8114  -49.4887 C.2       2 UNK         0.5000 
     61 O          -1.1451  -12.3841  -49.4191 O.2       2 UNK        -0.5000 
     62 CA          0.2558  -14.2164  -50.0738 C.3       2 UNK         0.1400 
     63 CB          0.4067  -14.1508  -51.6009 C.3       2 UNK        -0.1800 
     64 N           1.4342  -14.8723  -49.5084 N.am      2 UNK        -0.5000 
     65 C           1.5359  -15.2870  -48.2375 C.2       1 UNK         0.5000 
     66 O           0.6088  -15.2301  -47.4320 O.2       1 UNK        -0.5000 
     67 C          -2.1563  -22.5426  -46.0812 C.2       11 UNK         0.5000 
     68 O          -2.8198  -22.8262  -47.0763 O.2       11 UNK        -0.5000 
     69 N          -2.0307  -23.3541  -45.0252 N.am      12 UNK        -0.5000 
     70 CA         -2.6267  -24.6837  -44.9419 C.3       12 UNK         0.1400 
     71 CB         -2.5494  -25.1867  -43.4922 C.3       12 UNK        -0.1800 
     72 C          -1.9729  -25.6894  -45.9068 C.2       12 UNK         0.5000 
     73 O          -2.6891  -26.3874  -46.6248 O.2       12 UNK        -0.5000 
     74 N          -0.6347  -25.7607  -45.8928 N.am      13 UNK        -0.5000 
     75 CA          0.1336  -26.7765  -46.6111 C.3       13 UNK         0.1400 
     76 CB          1.5557  -26.8551  -46.0337 C.3       13 UNK        -0.1800 
     77 C           0.1855  -26.5630  -48.1324 C.2       13 UNK         0.5000 
     78 O          -0.0627  -27.5104  -48.8797 O.2       13 UNK        -0.5000 
     79 N           0.5454  -25.3482  -48.5651 N.am      14 UNK        -0.5000 
     80 CA          0.8261  -25.0411  -49.9669 C.3       14 UNK         0.1400 
     81 CB          2.0457  -24.1081  -50.0555 C.3       14 UNK        -0.1800 
     82 C          -0.3843  -24.4147  -50.6690 C.2       14 UNK         0.5000 
     83 O          -0.7048  -24.8139  -51.7891 O.2       14 UNK        -0.5000 
     84 N          -1.0266  -23.4389  -50.0135 N.am      15 UNK        -0.5000 
     85 CA         -2.1129  -22.6540  -50.6061 C.3       15 UNK         0.1400 
     86 CB         -2.0733  -21.2310  -50.0364 C.3       15 UNK        -0.1800 
     87 C          -3.5054  -23.2793  -50.4165 C.2       15 UNK         0.5000 
     88 O          -4.4601  -22.7713  -51.0018 O.2       15 UNK        -0.5000 
     89 N          -3.6103  -24.3359  -49.5965 N.am      16 UNK        -0.5000 
     90 CA         -4.8382  -25.0586  -49.2415 C.3       16 UNK         0.1400 
     91 CB         -5.3509  -25.8721  -50.4476 C.3       16 UNK        -0.1800 
     92 C          -5.9168  -24.1404  -48.6234 C.2       16 UNK         0.5000 
     93 O          -7.0861  -24.2089  -49.0051 O.2       16 UNK        -0.5000 
     94 N          -5.4791  -23.2857  -47.6879 N.am      17 UNK        -0.5000 
     95 CA         -6.2329  -22.2261  -47.0130 C.3       17 UNK         0.1400 
     96 CB         -7.4128  -22.7965  -46.1978 C.3       17 UNK        -0.1800 
     97 C          -6.6328  -21.0964  -47.9837 C.2       17 UNK         0.5000 
     98 O          -7.7856  -20.6607  -47.9917 O.2       17 UNK        -0.5000 
     99 N          -5.6475  -20.6446  -48.7744 N.am      18 UNK        -0.5000 
    100 CA        -5.7196  -19.5603  -49.7604 C.3       18 UNK         0.1400 
    101 CB        -5.9647  -18.2047  -49.0648 C.3       18 UNK        -0.1800 
    102 C         -6.7218  -19.8445  -50.8990 C.2       18 UNK         0.5000 
    103 O         -7.5166  -18.9743  -51.2618 O.2       18 UNK        -0.5000 
    104 N         -6.6783  -21.0695  -51.4344 N.am      19 UNK        -0.5000 
    105 CA        -7.4965  -21.5065  -52.5592 C.3       19 UNK         0.1400 
    106 CB        -7.6196  -23.0373  -52.5246 C.3       19 UNK        -0.1800 
    107 C         -6.8755  -21.0452  -53.8882 C.2       19 UNK         0.5000 
    108 O         -5.6653  -21.1896  -54.0801 O.2       19 UNK        -0.5000 
    109 N         -7.7308  -20.5435  -54.7902 N.am      20 UNK        -0.5000 
    110 CA        -7.4155  -20.0836  -56.1475 C.3       20 UNK         0.1400 
    111 CB        -7.0717  -21.2929  -57.0475 C.3       20 UNK        -0.1800 
    112 C         -6.3500  -18.9624  -56.1770 C.2       20 UNK         0.5000 
    113 O         -6.2846  -18.1504  -55.2508 O.2       20 UNK        -0.5000 
    114 N         -5.5452  -18.9185  -57.2452 N.am      21 UNK        -0.5000 
    115 CA        -4.4370  -17.9848  -57.4317 C.3       21 UNK         0.1400 
    116 CB        -4.2437  -17.7437  -58.9401 C.3       21 UNK        -0.1800 
    117 C         -3.1651  -18.5201  -56.7453 C.2       21 UNK         0.5000 
    118 O         -2.2116  -18.9105  -57.4227 O.2       21 UNK        -0.5000 
    119 N         -3.1925  -18.5664  -55.4089 N.am      22 UNK        -0.5000 
    120 CA        -2.0611  -18.9486  -54.5513 C.3       22 UNK         0.1400 
    121 C         -0.8372  -17.9904  -54.6517 C.2       22 UNK         0.5000 
    122 N          0.3531  -18.4634  -54.3059 N.am      22 UNK        -0.7600 
    123 O         -0.9543  -16.8190  -55.0060 O.2       22 UNK        -0.5000 
    124 C124       -2.5009  -19.1789  -53.0796 C.3       23 UNK        -0.0398 
    125 S125       -3.4692  -17.8187  -52.3329 S.3       23 UNK        -0.2404 
    126 C126       -2.1854  -16.7954  -51.5432 C.3       23 UNK        -0.0205 
    127 H127        6.4090  -13.2906  -49.0336 H         1 UNK         0.0600 
    128 H128        5.4004  -13.2135  -50.4820 H         1 UNK         0.0600 
    129 H129        6.0987  -14.7542  -49.9727 H         1 UNK         0.0600 
    130 H130        4.5900  -16.0798  -49.0154 H         1 UNK         0.3000 
    131 H131        3.0600  -15.4089  -46.7712 H         1 UNK         0.0600 
    132 H132        3.8077  -17.6693  -47.0856 H         1 UNK         0.0800 
    133 H133        2.0773  -17.6934  -47.0221 H         1 UNK         0.0800 
    134 H134        1.5712  -19.9465  -48.2176 H         1 UNK         0.0800 
    135 H135        1.4780  -20.0128  -49.9544 H         1 UNK         0.0800 
    136 H136        0.1769  -18.1404  -51.1986 H         1 UNK         0.1150 
    137 H137       -3.2986  -16.8162  -49.0687 H         1 UNK         0.1150 
    138 H138       -0.1301  -18.7993  -46.9759 H         1 UNK         0.1150 
    139 H139       -1.9352  -17.3577  -45.7763 H         1 UNK         0.0800 
    140 H140       -3.3562  -16.9239  -46.6802 H         1 UNK         0.0800 
    141 H141       -2.5372  -20.5525  -44.3062 H         1 UNK         0.0800 
    142 H142       -1.3837  -19.3843  -44.8599 H         1 UNK         0.0800 
    143 H143       -1.3077  -20.8693  -47.0738 H         1 UNK         0.0600 
    144 H144        0.3081  -20.8952  -44.7870 H         1 UNK         0.3000 
    145 H145        2.7238  -23.2684  -45.8846 H         1 UNK         0.0600 
    146 H146        4.1726  -21.2775  -45.4198 H         1 UNK         0.0600 
    147 H147        3.3789  -21.1475  -46.9803 H         1 UNK         0.0600 
    148 H148        2.7826  -20.2107  -45.6171 H         1 UNK         0.0600 
    149 H149        2.3891  -21.5959  -43.5532 H         1 UNK         0.3000 
    150 H150        0.7029  -24.0680  -41.5716 H         1 UNK         0.0600 
    151 H151        3.1682  -24.4691  -41.4293 H         1 UNK         0.0600 
    152 H152        2.6002  -23.4749  -40.0977 H         1 UNK         0.0600 
    153 H153        3.4631  -22.7345  -41.4456 H         1 UNK         0.0600 
    154 H154        1.4291  -21.3629  -41.0273 H         1 UNK         0.3000 
    155 H155       -1.4971  -19.7797  -42.2408 H         1 UNK         0.0600 
    156 H156       -0.7329  -20.4013  -39.3403 H         1 UNK         0.0600 
    157 H157       -2.2876  -20.7643  -40.0820 H         1 UNK         0.0600 
    158 H158       -1.7829  -19.0932  -39.8847 H         1 UNK         0.0600 
    159 H159        0.4978  -18.6383  -40.6957 H         1 UNK         0.3000 
    160 H160        2.7940  -18.0598  -41.5473 H         1 UNK         0.0600 
    161 H161        2.4748  -17.2983  -44.4987 H         1 UNK         0.0600 
    162 H162        3.6008  -18.4889  -43.8565 H         1 UNK         0.0600 
    163 H163        3.7945  -16.7908  -43.4481 H         1 UNK         0.0600 
    164 H164        1.4564  -15.8289  -42.8261 H         1 UNK         0.3000 
    165 H165       -0.8335  -15.0840  -40.3123 H         1 UNK         0.0600 
    166 H166        0.2927  -12.9064  -39.8933 H         1 UNK         0.0600 
    167 H167        1.1144  -14.1900  -39.0217 H         1 UNK         0.0600 
    168 H168        1.8183  -13.5510  -40.5023 H         1 UNK         0.0600 
    169 H169        0.2732  -13.4654  -42.3995 H         1 UNK         0.3000 
    170 H170       -0.8957  -15.0109  -45.1927 H         1 UNK         0.0600 
    171 H171       -3.1915  -14.2106  -44.6142 H         1 UNK         0.0600 
    172 H172       -2.5266  -12.6779  -44.0586 H         1 UNK         0.0600 
    173 H173       -2.4073  -13.1347  -45.7590 H         1 UNK         0.0600 
    174 H174       -0.2118  -12.3068  -44.9759 H         1 UNK         0.3000 
    175 H175        2.0887  -11.5142  -44.3711 H         1 UNK         0.0600 
    176 H176        4.1013  -13.5211  -45.5192 H         1 UNK         0.0600 
    177 H177        4.4404  -11.8434  -45.1028 H         1 UNK         0.0600 
    178 H178        4.0148  -12.9923  -43.8435 H         1 UNK         0.0600 
    179 H179        2.7229  -12.3112  -47.1174 H         1 UNK         0.3000 
    180 H180        0.0934  -10.3370  -48.5699 H         1 UNK         0.0600 
    181 H181        3.1585  -10.4107  -48.6651 H         1 UNK         0.0600 
    182 H182        2.1725   -8.9966  -48.3122 H         1 UNK         0.0600 
    183 H183        2.0983   -9.7407  -49.9022 H         1 UNK         0.0600 
    184 H184        1.9901  -12.5774  -49.1176 H         1 UNK         0.3000 
    185 H185       -0.6167  -14.8266  -49.8367 H         1 UNK         0.0600 
    186 H186       -0.4879  -13.7315  -52.0630 H         1 UNK         0.0600 
    187 H187        1.2523  -13.5279  -51.8952 H         1 UNK         0.0600 
    188 H188        0.5581  -15.1428  -52.0268 H         1 UNK         0.0600 
    189 H189        2.2400  -14.9677  -50.1082 H         1 UNK         0.3000 
    190 H190       -1.5075  -23.0366  -44.2132 H         1 UNK         0.3000 
    191 H191       -3.6818  -24.6003  -45.2122 H         1 UNK         0.0600 
    192 H192       -1.5187  -25.2471  -43.1402 H         1 UNK         0.0600 
    193 H193       -2.9899  -26.1800  -43.3977 H         1 UNK         0.0600 
    194 H194       -3.0918  -24.5239  -42.8177 H         1 UNK         0.0600 
    195 H195       -0.1107  -25.1620  -45.2599 H         1 UNK         0.3000 
    196 H196       -0.3436  -27.7428  -46.4333 H         1 UNK         0.0600 
    197 H197        2.1406  -27.6266  -46.5361 H         1 UNK         0.0600 
    198 H198        1.5365  -27.1024  -44.9722 H         1 UNK         0.0600 
    199 H199        2.0905  -25.9114  -46.1476 H         1 UNK         0.0600 
    200 H200        0.6734  -24.5893  -47.9011 H         1 UNK         0.3000 
    201 H201        1.0838  -25.9569  -50.5037 H         1 UNK         0.0600 
    202 H202        2.9153  -24.5495  -49.5685 H         1 UNK         0.0600 
    203 H203        1.8582  -23.1398  -49.5911 H         1 UNK         0.0600 
    204 H204        2.3158  -23.9215  -51.0956 H         1 UNK         0.0600 
    205 H205       -0.7090  -23.1714  -49.0899 H         1 UNK         0.3000 
    206 H206       -1.9457  -22.5719  -51.6823 H         1 UNK         0.0600 
    207 H207       -1.0700  -20.8158  -50.1030 H         1 UNK         0.0600 
    208 H208       -2.7348  -20.5713  -50.5941 H         1 UNK         0.0600 
    209 H209       -2.3908  -21.1919  -48.9979 H         1 UNK         0.0600 
    210 H210       -2.7712  -24.6358  -49.1208 H         1 UNK         0.3000 
    211 H211       -4.5641  -25.7695  -48.4617 H         1 UNK         0.0600 
    212 H212       -5.6719  -25.2266  -51.2647 H         1 UNK         0.0600 
    213 H213       -6.2021  -26.4936  -50.1674 H         1 UNK         0.0600 
    214 H214       -4.5767  -26.5367  -50.8308 H         1 UNK         0.0600 
    215 H215       -4.4782  -23.2812  -47.4916 H         1 UNK         0.3000 
    216 H216       -5.5399  -21.7765  -46.3001 H         1 UNK         0.0600 
    217 H217       -7.8714  -22.0191  -45.5857 H         1 UNK         0.0600 
    218 H218       -7.0807  -23.5861  -45.5239 H         1 UNK         0.0600 
    219 H219       -8.1937  -23.2066  -46.8382 H         1 UNK         0.0600 
    220 H220       -4.7510  -21.1022  -48.7007 H         1 UNK         0.3000 
    221 H221       -4.7369  -19.5097  -50.2265 H         1 UNK         0.0600 
    222 H222       -6.9660  -18.1416  -48.6383 H         1 UNK         0.0600 
    223 H223       -5.2495  -18.0383  -48.2606 H         1 UNK         0.0600 
    224 H224       -5.8562  -17.3813  -49.7717 H         1 UNK         0.0600 
    225 H225       -5.9409  -21.7107  -51.1470 H         1 UNK         0.3000 
    226 H226       -8.4978  -21.0828  -52.4568 H         1 UNK         0.0600 
    227 H227       -8.0419  -23.3793  -51.5795 H         1 UNK         0.0600 
    228 H228       -8.2703  -23.3949  -53.3233 H         1 UNK         0.0600 
    229 H229       -6.6493  -23.5187  -52.6512 H         1 UNK         0.0600 
    230 H230       -8.6981  -20.4380  -54.5184 H         1 UNK         0.3000 
    231 H231       -8.3315  -19.6350  -56.5340 H         1 UNK         0.0600 
    232 H232       -7.8278  -22.0731  -56.9587 H         1 UNK         0.0600 
    233 H233       -6.1098  -21.7345  -56.7837 H         1 UNK         0.0600 
    234 H234       -7.0339  -21.0113  -58.1003 H         1 UNK         0.0600 
    235 H235       -5.6420  -19.6376  -57.9474 H         1 UNK         0.3000 
    236 H236       -4.6820  -17.0245  -56.9726 H         1 UNK         0.0600 
    237 H237       -3.4256  -17.0456  -59.1217 H         1 UNK         0.0600 
    238 H238       -4.0133  -18.6673  -59.4727 H         1 UNK         0.0600 
    239 H239       -5.1404  -17.3146  -59.3876 H         1 UNK         0.0600 
    240 H240       -4.0268  -18.2518  -54.9290 H         1 UNK         0.3000 
    241 H241       -1.7149  -19.9125  -54.9296 H         1 UNK         0.0600 
    242 H242        1.1524  -17.8520  -54.3619 H         1 UNK         0.3800 
    243 H243        0.4862  -19.4226  -54.0269 H         1 UNK         0.3800 
    244 H244       -1.6440  -19.4142  -52.4481 H         1 UNK         0.0800 
    245 H245       -3.1342  -20.0669  -53.0433 H         1 UNK         0.0800 
    246 H246       -1.3854  -16.5890  -52.2526 H         1 UNK         0.0800 
    247 H247       -2.6221  -15.8251  -51.3028 H         1 UNK         0.0800 
@<TRIPOS>BOND
     1    1    2 1    
     2    1  127 1    
     3    1  128 1    
     4    1  129 1    
     5    2    3 2    
     6    2    4 am   BACKBONE|DICT|INTERRES
     7    4    5 1    
     8    4  130 1    
     9    5    6 1    
    10    5   65 1    
    11    5  131 1    
    12    6    7 1    
    13    6  132 1    
    14    6  133 1    
    15    7    8 1    
    16    8    9 1    
    17    8  134 1    
    18    8  135 1    
    19    9   10 ar   
    20    9   14 ar   
    21   10   11 ar   
    22   10  136 1    
    23   11   12 ar   
    24   11  126 1    
    25   12   13 ar   
    26   12  137 1    
    27   13   14 ar   
    28   13   15 1    
    29   14  138 1    
    30   15   16 1    
    31   15  139 1    
    32   15  140 1    
    33   16   17 1    
    34   17   18 1    
    35   17  141 1    
    36   17  142 1    
    37   18   19 1    
    38   18   67 1    
    39   18  143 1    
    40   19   20 am   BACKBONE|DICT|INTERRES
    41   19  144 1    
    42   20   21 2    
    43   20   22 1    
    44   22   23 1    
    45   22   24 1    
    46   22  145 1    
    47   23  146 1    
    48   23  147 1    
    49   23  148 1    
    50   24   25 am   BACKBONE|DICT|INTERRES
    51   24  149 1    
    52   25   26 2    
    53   25   27 1    
    54   27   28 1    
    55   27   29 1    
    56   27  150 1    
    57   28  151 1    
    58   28  152 1    
    59   28  153 1    
    60   29   30 am   BACKBONE|DICT|INTERRES
    61   29  154 1    
    62   30   31 2    
    63   30   32 1    
    64   32   33 1    
    65   32   34 1    
    66   32  155 1    
    67   33  156 1    
    68   33  157 1    
    69   33  158 1    
    70   34   35 am   BACKBONE|DICT|INTERRES
    71   34  159 1    
    72   35   36 2    
    73   35   37 1    
    74   37   38 1    
    75   37   39 1    
    76   37  160 1    
    77   38  161 1    
    78   38  162 1    
    79   38  163 1    
    80   39   40 am   BACKBONE|DICT|INTERRES
    81   39  164 1    
    82   40   41 2    
    83   40   42 1    
    84   42   43 1    
    85   42   44 1    
    86   42  165 1    
    87   43  166 1    
    88   43  167 1    
    89   43  168 1    
    90   44   45 am   BACKBONE|DICT|INTERRES
    91   44  169 1    
    92   45   46 2    
    93   45   47 1    
    94   47   48 1    
    95   47   49 1    
    96   47  170 1    
    97   48  171 1    
    98   48  172 1    
    99   48  173 1    
   100   49   50 am   BACKBONE|DICT|INTERRES
   101   49  174 1    
   102   50   51 2    
   103   50   52 1    
   104   52   53 1    
   105   52   54 1    
   106   52  175 1    
   107   53  176 1    
   108   53  177 1    
   109   53  178 1    
   110   54   55 am   BACKBONE|DICT|INTERRES
   111   54  179 1    
   112   55   56 2    
   113   55   57 1    
   114   57   58 1    
   115   57   59 1    
   116   57  180 1    
   117   58  181 1    
   118   58  182 1    
   119   58  183 1    
   120   59   60 am   BACKBONE|DICT|INTERRES
   121   59  184 1    
   122   60   61 2    
   123   60   62 1    
   124   62   63 1    
   125   62   64 1    
   126   62  185 1    
   127   63  186 1    
   128   63  187 1    
   129   63  188 1    
   130   64   65 am   BACKBONE|DICT|INTERRES
   131   64  189 1    
   132   65   66 2    
   133   67   68 2    
   134   67   69 am   BACKBONE|DICT|INTERRES
   135   69   70 1    
   136   69  190 1    
   137   70   71 1    
   138   70   72 1    
   139   70  191 1    
   140   71  192 1    
   141   71  193 1    
   142   71  194 1    
   143   72   73 2    
   144   72   74 am   BACKBONE|DICT|INTERRES
   145   74   75 1    
   146   74  195 1    
   147   75   76 1    
   148   75   77 1    
   149   75  196 1    
   150   76  197 1    
   151   76  198 1    
   152   76  199 1    
   153   77   78 2    
   154   77   79 am   BACKBONE|DICT|INTERRES
   155   79   80 1    
   156   79  200 1    
   157   80   81 1    
   158   80   82 1    
   159   80  201 1    
   160   81  202 1    
   161   81  203 1    
   162   81  204 1    
   163   82   83 2    
   164   82   84 am   BACKBONE|DICT|INTERRES
   165   84   85 1    
   166   84  205 1    
   167   85   86 1    
   168   85   87 1    
   169   85  206 1    
   170   86  207 1    
   171   86  208 1    
   172   86  209 1    
   173   87   88 2    
   174   87   89 am   BACKBONE|DICT|INTERRES
   175   89   90 1    
   176   89  210 1    
   177   90   91 1    
   178   90   92 1    
   179   90  211 1    
   180   91  212 1    
   181   91  213 1    
   182   91  214 1    
   183   92   93 2    
   184   92   94 am   BACKBONE|DICT|INTERRES
   185   94   95 1    
   186   94  215 1    
   187   95   96 1    
   188   95   97 1    
   189   95  216 1    
   190   96  217 1    
   191   96  218 1    
   192   96  219 1    
   193   97   98 2    
   194   97   99 am   BACKBONE|DICT|INTERRES
   195   99  100 1    
   196   99  220 1    
   197  100  101 1    
   198  100  102 1    
   199  100  221 1    
   200  101  222 1    
   201  101  223 1    
   202  101  224 1    
   203  102  103 2    
   204  102  104 am   BACKBONE|DICT|INTERRES
   205  104  105 1    
   206  104  225 1    
   207  105  106 1    
   208  105  107 1    
   209  105  226 1    
   210  106  227 1    
   211  106  228 1    
   212  106  229 1    
   213  107  108 2    
   214  107  109 am   BACKBONE|DICT|INTERRES
   215  109  110 1    
   216  109  230 1    
   217  110  111 1    
   218  110  112 1    
   219  110  231 1    
   220  111  232 1    
   221  111  233 1    
   222  111  234 1    
   223  112  113 2    
   224  112  114 am   BACKBONE|DICT|INTERRES
   225  114  115 1    
   226  114  235 1    
   227  115  116 1    
   228  115  117 1    
   229  115  236 1    
   230  116  237 1    
   231  116  238 1    
   232  116  239 1    
   233  117  118 2    
   234  117  119 am   BACKBONE|DICT|INTERRES
   235  119  120 1    
   236  119  240 1    
   237  120  121 1    
   238  120  124 1    
   239  120  241 1    
   240  121  122 am   BACKBONE|DICT|INTERRES
   241  121  123 2    
   242  122  242 1    
   243  122  243 1    
   244  124  125 1    
   245  124  244 1    
   246  124  245 1    
   247  125  126 1    
   248  126  246 1    
   249  126  247 1    
@<TRIPOS>SUBSTRUCTURE
     1 UNK         1 GROUP             0       ****    0 ROOT    
