@<TRIPOS>MOLECULE
3R540
247   249    1
SMALL
USER_CHARGES


@<TRIPOS>ATOM
      1 CA         -0.5182  -11.7257  -50.9272 C.3       0 UNK        -0.1800 
      2 C           0.4482  -12.8856  -51.1223 C.2       0 UNK         0.5000 
      3 O           1.2308  -12.8787  -52.0730 O.2       0 UNK        -0.5000 
      4 N           0.3890  -13.8827  -50.2323 N.am      1 UNK        -0.5000 
      5 CA          1.2585  -15.0626  -50.2322 C.3       1 UNK         0.1400 
      6 C6          0.7498  -16.1557  -49.2616 C.3       23 UNK        -0.0398 
      7 S7         -0.9055  -16.7713  -49.6996 S.3       23 UNK        -0.2404 
      8 C8         -1.8829  -16.2330  -48.2683 C.3       23 UNK        -0.0205 
      9 C9         -3.2184  -16.9537  -48.2198 C.ar      23 UNK        -0.0193 
     10 C10        -4.3954  -16.3158  -48.6230 C.ar      23 UNK        -0.1150 
     11 C11        -5.6239  -16.9813  -48.5461 C.ar      23 UNK        -0.0193 
     12 C12        -5.6690  -18.2896  -48.0545 C.ar      23 UNK        -0.1150 
     13 C13        -4.4958  -18.9385  -47.6635 C.ar      23 UNK        -0.0193 
     14 C14        -3.2747  -18.2680  -47.7527 C.ar      23 UNK        -0.1150 
     15 C15        -4.5304  -20.3657  -47.1514 C.3       23 UNK        -0.0205 
     16 S16        -4.2112  -20.4218  -45.3666 S.3       23 UNK        -0.2404 
     17 C17        -3.7790  -22.1787  -45.1346 C.3       23 UNK        -0.0398 
     18 CA         -2.3982  -22.5639  -45.7306 C.3       11 UNK         0.1400 
     19 N          -1.3491  -21.6095  -45.3831 N.am      11 UNK        -0.5000 
     20 C          -0.3777  -21.2100  -46.2095 C.2       10 UNK         0.5000 
     21 O          -0.2713  -21.5957  -47.3713 O.2       10 UNK        -0.5000 
     22 CA          0.6674  -20.2342  -45.6386 C.3       10 UNK         0.1400 
     23 CB          0.3128  -18.7917  -46.0249 C.3       10 UNK        -0.1800 
     24 N           0.8223  -20.3623  -44.1860 N.am      10 UNK        -0.5000 
     25 C           1.3290  -21.4619  -43.6056 C.2       9 UNK         0.5000 
     26 O           1.7526  -22.4251  -44.2481 O.2       9 UNK        -0.5000 
     27 CA          1.3067  -21.5524  -42.0675 C.3       9 UNK         0.1400 
     28 CB          2.6687  -21.1585  -41.4786 C.3       9 UNK        -0.1800 
     29 N           0.2426  -20.7883  -41.4076 N.am      9 UNK        -0.5000 
     30 C          -1.0730  -20.9574  -41.6028 C.2       8 UNK         0.5000 
     31 O          -1.5353  -21.7204  -42.4539 O.2       8 UNK        -0.5000 
     32 CA         -2.0432  -20.1559  -40.7183 C.3       8 UNK         0.1400 
     33 CB         -1.3723  -19.1551  -39.7548 C.3       8 UNK        -0.1800 
     34 N          -2.9796  -19.4542  -41.5858 N.am      8 UNK        -0.5000 
     35 C          -4.2645  -19.1968  -41.3133 C.2       7 UNK         0.5000 
     36 O          -4.8163  -19.5396  -40.2660 O.2       7 UNK        -0.5000 
     37 CA         -5.0753  -18.4477  -42.3972 C.3       7 UNK         0.1400 
     38 CB         -6.1615  -17.5250  -41.8048 C.3       7 UNK        -0.1800 
     39 N          -4.2352  -17.7334  -43.3691 N.am      7 UNK        -0.5000 
     40 C          -3.4310  -16.6893  -43.1281 C.2       6 UNK         0.5000 
     41 O          -3.3695  -16.0899  -42.0519 O.2       6 UNK        -0.5000 
     42 CA         -2.5163  -16.2602  -44.2901 C.3       6 UNK         0.1400 
     43 CB         -3.0781  -15.0153  -44.9925 C.3       6 UNK        -0.1800 
     44 N          -1.1566  -15.9792  -43.8273 N.am      6 UNK        -0.5000 
     45 C          -0.3441  -16.8521  -43.2188 C.2       5 UNK         0.5000 
     46 O          -0.6164  -18.0471  -43.0732 O.2       5 UNK        -0.5000 
     47 CA          1.0076  -16.3006  -42.7188 C.3       5 UNK         0.1400 
     48 CB          1.8330  -17.3615  -41.9715 C.3       5 UNK        -0.1800 
     49 N           1.8416  -15.7675  -43.7949 N.am      5 UNK        -0.5000 
     50 C           1.6845  -14.6102  -44.4431 C.2       4 UNK         0.5000 
     51 O           0.7338  -13.8512  -44.2482 O.2       4 UNK        -0.5000 
     52 CA          2.7625  -14.2168  -45.4760 C.3       4 UNK         0.1400 
     53 CB          3.8551  -13.3560  -44.8156 C.3       4 UNK        -0.1800 
     54 N           3.3657  -15.3150  -46.2493 N.am      4 UNK        -0.5000 
     55 C           4.1209  -16.3473  -45.8371 C.2       3 UNK         0.5000 
     56 O           4.3683  -16.5843  -44.6550 O.2       3 UNK        -0.5000 
     57 CA          4.6862  -17.2937  -46.9185 C.3       3 UNK         0.1400 
     58 CB          3.9224  -18.6280  -46.9219 C.3       3 UNK        -0.1800 
     59 N           4.6451  -16.7316  -48.2694 N.am      3 UNK        -0.5000 
     60 C           5.4433  -15.7582  -48.7319 C.2       2 UNK         0.5000 
     61 O           6.3768  -15.2742  -48.0918 O.2       2 UNK        -0.5000 
     62 CA          5.1110  -15.2108  -50.1364 C.3       2 UNK         0.1400 
     63 CB          5.9495  -15.9261  -51.2064 C.3       2 UNK        -0.1800 
     64 N           3.6877  -15.3315  -50.4785 N.am      2 UNK        -0.5000 
     65 C           2.7002  -14.6832  -49.8450 C.2       1 UNK         0.5000 
     66 O           2.8903  -13.8849  -48.9248 O.2       1 UNK        -0.5000 
     67 C          -1.9856  -23.9739  -45.2773 C.2       11 UNK         0.5000 
     68 O          -2.0966  -24.9219  -46.0543 O.2       11 UNK        -0.5000 
     69 N          -1.5243  -24.0807  -44.0240 N.am      12 UNK        -0.5000 
     70 CA         -1.2472  -25.3446  -43.3469 C.3       12 UNK         0.1400 
     71 CB         -1.1785  -25.0961  -41.8321 C.3       12 UNK        -0.1800 
     72 C           0.0260  -26.0561  -43.8343 C.2       12 UNK         0.5000 
     73 O           0.0272  -27.2865  -43.8959 O.2       12 UNK        -0.5000 
     74 N           1.0822  -25.2921  -44.1456 N.am      13 UNK        -0.5000 
     75 CA          2.3896  -25.8294  -44.5235 C.3       13 UNK         0.1400 
     76 CB          3.4771  -25.2566  -43.5980 C.3       13 UNK        -0.1800 
     77 C           2.7088  -25.5448  -45.9965 C.2       13 UNK         0.5000 
     78 O           3.0579  -26.4759  -46.7235 O.2       13 UNK        -0.5000 
     79 N           2.5996  -24.2755  -46.4165 N.am      14 UNK        -0.5000 
     80 CA          2.9865  -23.8494  -47.7666 C.3       14 UNK         0.1400 
     81 CB          3.2435  -22.3351  -47.7832 C.3       14 UNK        -0.1800 
     82 C           1.9615  -24.2330  -48.8511 C.2       14 UNK         0.5000 
     83 O           2.3546  -24.4150  -50.0039 O.2       14 UNK        -0.5000 
     84 N           0.6790  -24.3348  -48.4657 N.am      15 UNK        -0.5000 
     85 CA         -0.4880  -24.5887  -49.3224 C.3       15 UNK         0.1400 
     86 CB         -0.4654  -26.0339  -49.8601 C.3       15 UNK        -0.1800 
     87 C          -0.6503  -23.5280  -50.4353 C.2       15 UNK         0.5000 
     88 O          -0.9571  -23.8564  -51.5829 O.2       15 UNK        -0.5000 
     89 N          -0.4293  -22.2606  -50.0660 N.am      16 UNK        -0.5000 
     90 CA         -0.3735  -21.1027  -50.9580 C.3       16 UNK         0.1400 
     91 CB          0.4307  -19.9953  -50.2623 C.3       16 UNK        -0.1800 
     92 C          -1.7527  -20.5880  -51.4164 C.2       16 UNK         0.5000 
     93 O          -1.8054  -19.6715  -52.2372 O.2       16 UNK        -0.5000 
     94 N          -2.8428  -21.1973  -50.9249 N.am      17 UNK        -0.5000 
     95 CA         -4.2321  -20.8878  -51.2809 C.3       17 UNK         0.1400 
     96 CB         -5.1743  -21.8533  -50.5466 C.3       17 UNK        -0.1800 
     97 C          -4.5178  -20.9527  -52.7931 C.2       17 UNK         0.5000 
     98 O          -5.3215  -20.1652  -53.2908 O.2       17 UNK        -0.5000 
     99 N          -3.8402  -21.8697  -53.4973 N.am      18 UNK        -0.5000 
    100 CA        -3.9241  -22.0314  -54.9486 C.3       18 UNK         0.1400 
    101 CB        -3.2585  -23.3577  -55.3448 C.3       18 UNK        -0.1800 
    102 C         -3.2951  -20.8577  -55.7239 C.2       18 UNK         0.5000 
    103 O         -3.7983  -20.5003  -56.7889 O.2       18 UNK        -0.5000 
    104 N         -2.2241  -20.2691  -55.1730 N.am      19 UNK        -0.5000 
    105 CA        -1.5459  -19.0984  -55.7318 C.3       19 UNK         0.1400 
    106 CB        -0.1037  -19.0386  -55.2038 C.3       19 UNK        -0.1800 
    107 C         -2.3036  -17.8000  -55.4065 C.2       19 UNK         0.5000 
    108 O         -2.3763  -16.9078  -56.2519 O.2       19 UNK        -0.5000 
    109 N         -2.8780  -17.7330  -54.1978 N.am      20 UNK        -0.5000 
    110 CA        -3.7117  -16.6267  -53.7236 C.3       20 UNK         0.1400 
    111 CB        -3.8652  -16.7524  -52.2020 C.3       20 UNK        -0.1800 
    112 C         -5.1011  -16.5676  -54.3907 C.2       20 UNK         0.5000 
    113 O         -5.7494  -15.5224  -54.3318 O.2       20 UNK        -0.5000 
    114 N         -5.5312  -17.6891  -54.9893 N.am      21 UNK        -0.5000 
    115 CA        -6.8604  -17.9552  -55.5506 C.3       21 UNK         0.1400 
    116 CB        -7.1826  -17.0071  -56.7246 C.3       21 UNK        -0.1800 
    117 C         -7.9575  -17.9879  -54.4640 C.2       21 UNK         0.5000 
    118 O         -9.0972  -17.5904  -54.7136 O.2       21 UNK        -0.5000 
    119 N         -7.5814  -18.4783  -53.2782 N.am      22 UNK        -0.5000 
    120 CA        -8.4479  -18.6752  -52.1077 C.3       22 UNK         0.1400 
    121 C         -9.0085  -20.1231  -52.0055 C.2       22 UNK         0.5000 
    122 N         -8.5336  -21.0811  -52.7937 N.am      22 UNK        -0.7600 
    123 O         -9.9009  -20.3802  -51.2023 O.2       22 UNK        -0.5000 
    124 C124       -7.7204  -18.2832  -50.7965 C.3       23 UNK        -0.0398 
    125 S125       -7.2481  -16.5209  -50.7514 S.3       23 UNK        -0.2404 
    126 C126       -6.9042  -16.2821  -48.9792 C.3       23 UNK        -0.0205 
    127 H127       -1.1599  -11.8739  -50.0582 H         1 UNK         0.0600 
    128 H128       -1.1553  -11.6164  -51.8049 H         1 UNK         0.0600 
    129 H129        0.0344  -10.7966  -50.7874 H         1 UNK         0.0600 
    130 H130       -0.2662  -13.8235  -49.4679 H         1 UNK         0.3000 
    131 H131        1.2666  -15.4738  -51.2442 H         1 UNK         0.0600 
    132 H132        1.4174  -17.0191  -49.2735 H         1 UNK         0.0800 
    133 H133        0.7494  -15.7904  -48.2329 H         1 UNK         0.0800 
    134 H134       -2.0274  -15.1528  -48.3121 H         1 UNK         0.0800 
    135 H135       -1.3353  -16.4399  -47.3477 H         1 UNK         0.0800 
    136 H136       -4.3568  -15.3024  -48.9966 H         1 UNK         0.1150 
    137 H137       -6.6165  -18.8048  -47.9840 H         1 UNK         0.1150 
    138 H138       -2.3663  -18.7710  -47.4532 H         1 UNK         0.1150 
    139 H139       -3.7727  -20.9372  -47.6862 H         1 UNK         0.0800 
    140 H140       -5.4929  -20.8357  -47.3580 H         1 UNK         0.0800 
    141 H141       -3.8018  -22.3642  -44.0589 H         1 UNK         0.0800 
    142 H142       -4.5676  -22.7975  -45.5660 H         1 UNK         0.0800 
    143 H143       -2.5063  -22.6030  -46.8158 H         1 UNK         0.0600 
    144 H144       -1.3480  -21.2806  -44.4248 H         1 UNK         0.3000 
    145 H145        1.6309  -20.4682  -46.0896 H         1 UNK         0.0600 
    146 H146        0.3194  -18.6664  -47.1080 H         1 UNK         0.0600 
    147 H147        1.0275  -18.0806  -45.6115 H         1 UNK         0.0600 
    148 H148       -0.6825  -18.5199  -45.6766 H         1 UNK         0.0600 
    149 H149        0.4299  -19.6211  -43.6126 H         1 UNK         0.3000 
    150 H150        1.1394  -22.6026  -41.8237 H         1 UNK         0.0600 
    151 H151        2.8989  -20.1077  -41.6480 H         1 UNK         0.0600 
    152 H152        3.4717  -21.7449  -41.9276 H         1 UNK         0.0600 
    153 H153        2.7006  -21.3396  -40.4041 H         1 UNK         0.0600 
    154 H154        0.5373  -20.1212  -40.7103 H         1 UNK         0.3000 
    155 H155       -2.5845  -20.8948  -40.1244 H         1 UNK         0.0600 
    156 H156       -2.1156  -18.6736  -39.1192 H         1 UNK         0.0600 
    157 H157       -0.8474  -18.3665  -40.2932 H         1 UNK         0.0600 
    158 H158       -0.6620  -19.6495  -39.0912 H         1 UNK         0.0600 
    159 H159       -2.5931  -19.1431  -42.4677 H         1 UNK         0.3000 
    160 H160       -5.5919  -19.2231  -42.9639 H         1 UNK         0.0600 
    161 H161       -5.7402  -16.7778  -41.1321 H         1 UNK         0.0600 
    162 H162       -6.8913  -18.0994  -41.2332 H         1 UNK         0.0600 
    163 H163       -6.7066  -17.0020  -42.5905 H         1 UNK         0.0600 
    164 H164       -4.2073  -18.1590  -44.2870 H         1 UNK         0.3000 
    165 H165       -2.4596  -17.0721  -45.0172 H         1 UNK         0.0600 
    166 H166       -2.4264  -14.6864  -45.8014 H         1 UNK         0.0600 
    167 H167       -4.0572  -15.2224  -45.4264 H         1 UNK         0.0600 
    168 H168       -3.1934  -14.1811  -44.2992 H         1 UNK         0.0600 
    169 H169       -0.8231  -15.0264  -43.9298 H         1 UNK         0.3000 
    170 H170        0.7859  -15.4933  -42.0181 H         1 UNK         0.0600 
    171 H171        2.7465  -16.9318  -41.5603 H         1 UNK         0.0600 
    172 H172        2.1195  -18.1751  -42.6377 H         1 UNK         0.0600 
    173 H173        1.2753  -17.7890  -41.1389 H         1 UNK         0.0600 
    174 H174        2.6858  -16.2917  -44.0113 H         1 UNK         0.3000 
    175 H175        2.2580  -13.5895  -46.2125 H         1 UNK         0.0600 
    176 H176        3.4216  -12.4827  -44.3266 H         1 UNK         0.0600 
    177 H177        4.4087  -13.9121  -44.0584 H         1 UNK         0.0600 
    178 H178        4.5693  -12.9931  -45.5548 H         1 UNK         0.0600 
    179 H179        3.2548  -15.2052  -47.2489 H         1 UNK         0.3000 
    180 H180        5.7272  -17.4961  -46.6581 H         1 UNK         0.0600 
    181 H181        2.8954  -18.5008  -47.2631 H         1 UNK         0.0600 
    182 H182        3.8883  -19.0690  -45.9245 H         1 UNK         0.0600 
    183 H183        4.4031  -19.3533  -47.5786 H         1 UNK         0.0600 
    184 H184        3.9336  -17.0922  -48.8861 H         1 UNK         0.3000 
    185 H185        5.3729  -14.1506  -50.1471 H         1 UNK         0.0600 
    186 H186        7.0154  -15.8332  -50.9935 H         1 UNK         0.0600 
    187 H187        5.7166  -16.9905  -51.2568 H         1 UNK         0.0600 
    188 H188        5.7787  -15.4969  -52.1938 H         1 UNK         0.0600 
    189 H189        3.4605  -15.9685  -51.2290 H         1 UNK         0.3000 
    190 H190       -1.4786  -23.2420  -43.4492 H         1 UNK         0.3000 
    191 H191       -2.0883  -26.0156  -43.5353 H         1 UNK         0.0600 
    192 H192       -2.1063  -24.6596  -41.4616 H         1 UNK         0.0600 
    193 H193       -1.0186  -26.0288  -41.2897 H         1 UNK         0.0600 
    194 H194       -0.3643  -24.4208  -41.5702 H         1 UNK         0.0600 
    195 H195        1.0052  -24.2822  -44.1035 H         1 UNK         0.3000 
    196 H196        2.4093  -26.9140  -44.3980 H         1 UNK         0.0600 
    197 H197        4.4520  -25.6838  -43.8360 H         1 UNK         0.0600 
    198 H198        3.2667  -25.4909  -42.5545 H         1 UNK         0.0600 
    199 H199        3.5684  -24.1744  -43.6840 H         1 UNK         0.0600 
    200 H200        2.3265  -23.5553  -45.7545 H         1 UNK         0.3000 
    201 H201        3.9293  -24.3413  -48.0166 H         1 UNK         0.0600 
    202 H202        3.7623  -22.0446  -48.6974 H         1 UNK         0.0600 
    203 H203        3.8622  -22.0200  -46.9426 H         1 UNK         0.0600 
    204 H204        2.3145  -21.7706  -47.7560 H         1 UNK         0.0600 
    205 H205        0.4725  -24.1366  -47.4974 H         1 UNK         0.3000 
    206 H206       -1.3654  -24.4899  -48.6824 H         1 UNK         0.0600 
    207 H207       -0.3724  -26.7537  -49.0468 H         1 UNK         0.0600 
    208 H208       -1.3870  -26.2664  -50.3948 H         1 UNK         0.0600 
    209 H209        0.3631  -26.1977  -50.5497 H         1 UNK         0.0600 
    210 H210       -0.2440  -22.0694  -49.0814 H         1 UNK         0.3000 
    211 H211        0.1696  -21.3942  -51.8592 H         1 UNK         0.0600 
    212 H212       -0.0738  -19.6452  -49.3616 H         1 UNK         0.0600 
    213 H213        0.5678  -19.1378  -50.9221 H         1 UNK         0.0600 
    214 H214        1.4224  -20.3456  -49.9756 H         1 UNK         0.0600 
    215 H215       -2.6975  -21.9464  -50.2658 H         1 UNK         0.3000 
    216 H216       -4.4383  -19.8714  -50.9406 H         1 UNK         0.0600 
    217 H217       -5.0326  -22.8829  -50.8779 H         1 UNK         0.0600 
    218 H218       -5.0176  -21.8309  -49.4714 H         1 UNK         0.0600 
    219 H219       -6.2180  -21.5919  -50.7270 H         1 UNK         0.0600 
    220 H220       -3.1992  -22.4767  -53.0061 H         1 UNK         0.3000 
    221 H221       -4.9796  -22.0830  -55.2246 H         1 UNK         0.0600 
    222 H222       -2.2039  -23.3784  -55.0664 H         1 UNK         0.0600 
    223 H223       -3.7490  -24.2040  -54.8634 H         1 UNK         0.0600 
    224 H224       -3.3178  -23.5185  -56.4221 H         1 UNK         0.0600 
    225 H225       -1.9175  -20.5714  -54.2583 H         1 UNK         0.3000 
    226 H226       -1.5023  -19.2002  -56.8184 H         1 UNK         0.0600 
    227 H227        0.4354  -18.1985  -55.6431 H         1 UNK         0.0600 
    228 H228       -0.0704  -18.9166  -54.1208 H         1 UNK         0.0600 
    229 H229        0.4462  -19.9453  -55.4562 H         1 UNK         0.0600 
    230 H230       -2.7001  -18.4838  -53.5372 H         1 UNK         0.3000 
    231 H231       -3.1954  -15.6897  -53.9418 H         1 UNK         0.0600 
    232 H232       -4.4260  -17.6450  -51.9242 H         1 UNK         0.0600 
    233 H233       -4.3912  -15.8916  -51.7882 H         1 UNK         0.0600 
    234 H234       -2.8946  -16.8044  -51.7142 H         1 UNK         0.0600 
    235 H235       -4.9227  -18.4944  -54.9308 H         1 UNK         0.3000 
    236 H236       -6.8121  -18.9671  -55.9556 H         1 UNK         0.0600 
    237 H237       -7.3391  -15.9814  -56.3903 H         1 UNK         0.0600 
    238 H238       -6.3777  -17.0026  -57.4596 H         1 UNK         0.0600 
    239 H239       -8.0905  -17.3219  -57.2401 H         1 UNK         0.0600 
    240 H240       -6.6382  -18.8475  -53.1960 H         1 UNK         0.3000 
    241 H241       -9.3205  -18.0263  -52.2028 H         1 UNK         0.0600 
    242 H242       -7.7886  -20.8847  -53.4437 H         1 UNK         0.3800 
    243 H243       -8.9119  -22.0127  -52.7264 H         1 UNK         0.3800 
    244 H244       -6.8221  -18.8884  -50.6658 H         1 UNK         0.0800 
    245 H245       -8.3585  -18.4826  -49.9337 H         1 UNK         0.0800 
    246 H246       -6.8219  -15.2126  -48.7807 H         1 UNK         0.0800 
    247 H247       -7.7507  -16.6339  -48.3876 H         1 UNK         0.0800 
@<TRIPOS>BOND
     1    1    2 1    
     2    1  127 1    
     3    1  128 1    
     4    1  129 1    
     5    2    3 2    
     6    2    4 am   BACKBONE|DICT|INTERRES
     7    4    5 1    
     8    4  130 1    
     9    5    6 1    
    10    5   65 1    
    11    5  131 1    
    12    6    7 1    
    13    6  132 1    
    14    6  133 1    
    15    7    8 1    
    16    8    9 1    
    17    8  134 1    
    18    8  135 1    
    19    9   10 ar   
    20    9   14 ar   
    21   10   11 ar   
    22   10  136 1    
    23   11   12 ar   
    24   11  126 1    
    25   12   13 ar   
    26   12  137 1    
    27   13   14 ar   
    28   13   15 1    
    29   14  138 1    
    30   15   16 1    
    31   15  139 1    
    32   15  140 1    
    33   16   17 1    
    34   17   18 1    
    35   17  141 1    
    36   17  142 1    
    37   18   19 1    
    38   18   67 1    
    39   18  143 1    
    40   19   20 am   BACKBONE|DICT|INTERRES
    41   19  144 1    
    42   20   21 2    
    43   20   22 1    
    44   22   23 1    
    45   22   24 1    
    46   22  145 1    
    47   23  146 1    
    48   23  147 1    
    49   23  148 1    
    50   24   25 am   BACKBONE|DICT|INTERRES
    51   24  149 1    
    52   25   26 2    
    53   25   27 1    
    54   27   28 1    
    55   27   29 1    
    56   27  150 1    
    57   28  151 1    
    58   28  152 1    
    59   28  153 1    
    60   29   30 am   BACKBONE|DICT|INTERRES
    61   29  154 1    
    62   30   31 2    
    63   30   32 1    
    64   32   33 1    
    65   32   34 1    
    66   32  155 1    
    67   33  156 1    
    68   33  157 1    
    69   33  158 1    
    70   34   35 am   BACKBONE|DICT|INTERRES
    71   34  159 1    
    72   35   36 2    
    73   35   37 1    
    74   37   38 1    
    75   37   39 1    
    76   37  160 1    
    77   38  161 1    
    78   38  162 1    
    79   38  163 1    
    80   39   40 am   BACKBONE|DICT|INTERRES
    81   39  164 1    
    82   40   41 2    
    83   40   42 1    
    84   42   43 1    
    85   42   44 1    
    86   42  165 1    
    87   43  166 1    
    88   43  167 1    
    89   43  168 1    
    90   44   45 am   BACKBONE|DICT|INTERRES
    91   44  169 1    
    92   45   46 2    
    93   45   47 1    
    94   47   48 1    
    95   47   49 1    
    96   47  170 1    
    97   48  171 1    
    98   48  172 1    
    99   48  173 1    
   100   49   50 am   BACKBONE|DICT|INTERRES
   101   49  174 1    
   102   50   51 2    
   103   50   52 1    
   104   52   53 1    
   105   52   54 1    
   106   52  175 1    
   107   53  176 1    
   108   53  177 1    
   109   53  178 1    
   110   54   55 am   BACKBONE|DICT|INTERRES
   111   54  179 1    
   112   55   56 2    
   113   55   57 1    
   114   57   58 1    
   115   57   59 1    
   116   57  180 1    
   117   58  181 1    
   118   58  182 1    
   119   58  183 1    
   120   59   60 am   BACKBONE|DICT|INTERRES
   121   59  184 1    
   122   60   61 2    
   123   60   62 1    
   124   62   63 1    
   125   62   64 1    
   126   62  185 1    
   127   63  186 1    
   128   63  187 1    
   129   63  188 1    
   130   64   65 am   BACKBONE|DICT|INTERRES
   131   64  189 1    
   132   65   66 2    
   133   67   68 2    
   134   67   69 am   BACKBONE|DICT|INTERRES
   135   69   70 1    
   136   69  190 1    
   137   70   71 1    
   138   70   72 1    
   139   70  191 1    
   140   71  192 1    
   141   71  193 1    
   142   71  194 1    
   143   72   73 2    
   144   72   74 am   BACKBONE|DICT|INTERRES
   145   74   75 1    
   146   74  195 1    
   147   75   76 1    
   148   75   77 1    
   149   75  196 1    
   150   76  197 1    
   151   76  198 1    
   152   76  199 1    
   153   77   78 2    
   154   77   79 am   BACKBONE|DICT|INTERRES
   155   79   80 1    
   156   79  200 1    
   157   80   81 1    
   158   80   82 1    
   159   80  201 1    
   160   81  202 1    
   161   81  203 1    
   162   81  204 1    
   163   82   83 2    
   164   82   84 am   BACKBONE|DICT|INTERRES
   165   84   85 1    
   166   84  205 1    
   167   85   86 1    
   168   85   87 1    
   169   85  206 1    
   170   86  207 1    
   171   86  208 1    
   172   86  209 1    
   173   87   88 2    
   174   87   89 am   BACKBONE|DICT|INTERRES
   175   89   90 1    
   176   89  210 1    
   177   90   91 1    
   178   90   92 1    
   179   90  211 1    
   180   91  212 1    
   181   91  213 1    
   182   91  214 1    
   183   92   93 2    
   184   92   94 am   BACKBONE|DICT|INTERRES
   185   94   95 1    
   186   94  215 1    
   187   95   96 1    
   188   95   97 1    
   189   95  216 1    
   190   96  217 1    
   191   96  218 1    
   192   96  219 1    
   193   97   98 2    
   194   97   99 am   BACKBONE|DICT|INTERRES
   195   99  100 1    
   196   99  220 1    
   197  100  101 1    
   198  100  102 1    
   199  100  221 1    
   200  101  222 1    
   201  101  223 1    
   202  101  224 1    
   203  102  103 2    
   204  102  104 am   BACKBONE|DICT|INTERRES
   205  104  105 1    
   206  104  225 1    
   207  105  106 1    
   208  105  107 1    
   209  105  226 1    
   210  106  227 1    
   211  106  228 1    
   212  106  229 1    
   213  107  108 2    
   214  107  109 am   BACKBONE|DICT|INTERRES
   215  109  110 1    
   216  109  230 1    
   217  110  111 1    
   218  110  112 1    
   219  110  231 1    
   220  111  232 1    
   221  111  233 1    
   222  111  234 1    
   223  112  113 2    
   224  112  114 am   BACKBONE|DICT|INTERRES
   225  114  115 1    
   226  114  235 1    
   227  115  116 1    
   228  115  117 1    
   229  115  236 1    
   230  116  237 1    
   231  116  238 1    
   232  116  239 1    
   233  117  118 2    
   234  117  119 am   BACKBONE|DICT|INTERRES
   235  119  120 1    
   236  119  240 1    
   237  120  121 1    
   238  120  124 1    
   239  120  241 1    
   240  121  122 am   BACKBONE|DICT|INTERRES
   241  121  123 2    
   242  122  242 1    
   243  122  243 1    
   244  124  125 1    
   245  124  244 1    
   246  124  245 1    
   247  125  126 1    
   248  126  246 1    
   249  126  247 1    
@<TRIPOS>SUBSTRUCTURE
     1 UNK         1 GROUP             0       ****    0 ROOT    
