@<TRIPOS>MOLECULE
3R540
247   249    1
SMALL
USER_CHARGES


@<TRIPOS>ATOM
      1 CA          3.6184  -12.1300  -46.3688 C.3       0 UNK        -0.1800 
      2 C           2.9049  -13.3252  -46.9844 C.2       0 UNK         0.5000 
      3 O           3.0389  -13.5743  -48.1829 O.2       0 UNK        -0.5000 
      4 N           2.1507  -14.0721  -46.1725 N.am      1 UNK        -0.5000 
      5 CA          1.3264  -15.2145  -46.5844 C.3       1 UNK         0.1400 
      6 C6          0.0612  -15.3118  -45.6944 C.3       23 UNK        -0.0398 
      7 S7         -1.1595  -14.0251  -46.1452 S.3       23 UNK        -0.2404 
      8 C8         -2.6055  -15.0036  -46.6741 C.3       23 UNK        -0.0205 
      9 C9         -2.5176  -15.4588  -48.1260 C.ar      23 UNK        -0.0193 
     10 C10        -3.4020  -14.9599  -49.0871 C.ar      23 UNK        -0.1150 
     11 C11        -3.3500  -15.4225  -50.4060 C.ar      23 UNK        -0.0193 
     12 C12        -2.3912  -16.3743  -50.7657 C.ar      23 UNK        -0.1150 
     13 C13        -1.5099  -16.8955  -49.8168 C.ar      23 UNK        -0.0193 
     14 C14        -1.5805  -16.4213  -48.5026 C.ar      23 UNK        -0.1150 
     15 C15        -0.5082  -17.9663  -50.2524 C.3       23 UNK        -0.0205 
     16 S16         0.2967  -18.8859  -48.8943 S.3       23 UNK        -0.2404 
     17 C17        -1.1255  -19.7027  -48.0960 C.3       23 UNK        -0.0398 
     18 CA         -0.7372  -21.1117  -47.6041 C.3       11 UNK         0.1400 
     19 N           0.1334  -21.0604  -46.4236 N.am      11 UNK        -0.5000 
     20 C           0.9368  -22.0623  -46.0448 C.2       10 UNK         0.5000 
     21 O           1.0200  -23.1313  -46.6492 O.2       10 UNK        -0.5000 
     22 CA          1.7266  -21.8626  -44.7363 C.3       10 UNK         0.1400 
     23 CB          2.9588  -20.9746  -44.9607 C.3       10 UNK        -0.1800 
     24 N           0.9210  -21.3043  -43.6464 N.am      10 UNK        -0.5000 
     25 C          -0.1910  -21.8646  -43.1513 C.2       9 UNK         0.5000 
     26 O          -0.6648  -22.9132  -43.5866 O.2       9 UNK        -0.5000 
     27 CA         -0.9066  -21.1585  -41.9831 C.3       9 UNK         0.1400 
     28 CB         -0.8213  -22.0142  -40.7094 C.3       9 UNK        -0.1800 
     29 N          -0.4121  -19.8135  -41.6786 N.am      9 UNK        -0.5000 
     30 C          -0.6346  -18.7228  -42.4215 C.2       8 UNK         0.5000 
     31 O          -1.1931  -18.7423  -43.5216 O.2       8 UNK        -0.5000 
     32 CA         -0.1142  -17.3983  -41.8313 C.3       8 UNK         0.1400 
     33 CB          1.3592  -17.1770  -42.2022 C.3       8 UNK        -0.1800 
     34 N          -0.8900  -16.2465  -42.2837 N.am      8 UNK        -0.5000 
     35 C          -2.1510  -15.9698  -41.9251 C.2       7 UNK         0.5000 
     36 O          -2.7963  -16.6556  -41.1300 O.2       7 UNK        -0.5000 
     37 CA         -2.7933  -14.7176  -42.5669 C.3       7 UNK         0.1400 
     38 CB         -3.8875  -14.0848  -41.6817 C.3       7 UNK        -0.1800 
     39 N          -1.8189  -13.7051  -42.9999 N.am      7 UNK        -0.5000 
     40 C          -0.9617  -13.0215  -42.2305 C.2       6 UNK         0.5000 
     41 O          -0.9028  -13.1214  -41.0024 O.2       6 UNK        -0.5000 
     42 CA         -0.0098  -12.0594  -42.9652 C.3       6 UNK         0.1400 
     43 CB         -0.6414  -10.6653  -43.0942 C.3       6 UNK        -0.1800 
     44 N           1.2431  -11.9499  -42.2242 N.am      6 UNK        -0.5000 
     45 C           2.2574  -12.8149  -42.3245 C.2       5 UNK         0.5000 
     46 O           2.3384  -13.6858  -43.1970 O.2       5 UNK        -0.5000 
     47 CA          3.3156  -12.7165  -41.2137 C.3       5 UNK         0.1400 
     48 CB          2.8915  -13.5733  -40.0098 C.3       5 UNK        -0.1800 
     49 N           4.6186  -13.1841  -41.6736 N.am      5 UNK        -0.5000 
     50 C           5.6124  -12.3992  -42.1083 C.2       4 UNK         0.5000 
     51 O           5.5392  -11.1710  -42.1680 O.2       4 UNK        -0.5000 
     52 CA          6.9198  -13.1018  -42.5343 C.3       4 UNK         0.1400 
     53 CB          7.9583  -13.0335  -41.4037 C.3       4 UNK        -0.1800 
     54 N           6.7260  -14.5041  -42.9171 N.am      4 UNK        -0.5000 
     55 C           6.0987  -14.8864  -44.0349 C.2       3 UNK         0.5000 
     56 O           5.6880  -14.0926  -44.8864 O.2       3 UNK        -0.5000 
     57 CA          5.8675  -16.3943  -44.2203 C.3       3 UNK         0.1400 
     58 CB          4.9634  -16.9619  -43.1080 C.3       3 UNK        -0.1800 
     59 N           5.2210  -16.5642  -45.5109 N.am      3 UNK        -0.5000 
     60 C           5.0837  -17.6816  -46.2270 C.2       2 UNK         0.5000 
     61 O           5.5538  -18.7713  -45.8965 O.2       2 UNK        -0.5000 
     62 CA          4.2831  -17.5238  -47.5389 C.3       2 UNK         0.1400 
     63 CB          3.7425  -18.8579  -48.0901 C.3       2 UNK        -0.1800 
     64 N           3.2200  -16.5104  -47.4374 N.am      2 UNK        -0.5000 
     65 C           2.1788  -16.5016  -46.5883 C.2       1 UNK         0.5000 
     66 O           1.9138  -17.4217  -45.8147 O.2       1 UNK        -0.5000 
     67 C          -1.9848  -21.9904  -47.3801 C.2       11 UNK         0.5000 
     68 O          -2.5181  -22.5285  -48.3514 O.2       11 UNK        -0.5000 
     69 N          -2.4168  -22.1564  -46.1215 N.am      12 UNK        -0.5000 
     70 CA         -3.4893  -23.0815  -45.7505 C.3       12 UNK         0.1400 
     71 CB         -4.0111  -22.7554  -44.3425 C.3       12 UNK        -0.1800 
     72 C          -3.0207  -24.5437  -45.8547 C.2       12 UNK         0.5000 
     73 O          -3.7433  -25.3732  -46.4057 O.2       12 UNK        -0.5000 
     74 N          -1.7947  -24.8162  -45.3849 N.am      13 UNK        -0.5000 
     75 CA         -1.1132  -26.1068  -45.5019 C.3       13 UNK         0.1400 
     76 CB          0.1674  -26.0842  -44.6539 C.3       13 UNK        -0.1800 
     77 C          -0.7994  -26.4859  -46.9624 C.2       13 UNK         0.5000 
     78 O          -0.9375  -27.6532  -47.3292 O.2       13 UNK        -0.5000 
     79 N          -0.4257  -25.4891  -47.7781 N.am      14 UNK        -0.5000 
     80 CA         -0.2214  -25.6226  -49.2244 C.3       14 UNK         0.1400 
     81 CB          0.5867  -24.4180  -49.7300 C.3       14 UNK        -0.1800 
     82 C          -1.5341  -25.7550  -50.0269 C.2       14 UNK         0.5000 
     83 O          -1.4777  -26.1034  -51.2066 O.2       14 UNK        -0.5000 
     84 N          -2.6758  -25.4722  -49.3816 N.am      15 UNK        -0.5000 
     85 CA         -4.0396  -25.4933  -49.9113 C.3       15 UNK         0.1400 
     86 CB         -4.4628  -26.9272  -50.2925 C.3       15 UNK        -0.1800 
     87 C          -4.2413  -24.4790  -51.0524 C.2       15 UNK         0.5000 
     88 O          -4.7216  -24.8420  -52.1270 O.2       15 UNK        -0.5000 
     89 N          -3.8917  -23.2105  -50.7924 N.am      16 UNK        -0.5000 
     90 CA         -3.9746  -22.0818  -51.7296 C.3       16 UNK         0.1400 
     91 CB         -3.4751  -20.8125  -51.0262 C.3       16 UNK        -0.1800 
     92 C          -5.3639  -21.8341  -52.3534 C.2       16 UNK         0.5000 
     93 O          -5.4440  -21.2771  -53.4526 O.2       16 UNK        -0.5000 
     94 N          -6.4254  -22.2630  -51.6592 N.am      17 UNK        -0.5000 
     95 CA         -7.8065  -22.2532  -52.1411 C.3       17 UNK         0.1400 
     96 CB         -8.7478  -22.5446  -50.9628 C.3       17 UNK        -0.1800 
     97 C          -8.0551  -23.2551  -53.2871 C.2       17 UNK         0.5000 
     98 O          -8.8602  -22.9693  -54.1733 O.2       17 UNK        -0.5000 
     99 N          -7.3620  -24.4012  -53.2511 N.am      18 UNK        -0.5000 
    100 CA        -7.4581  -25.4711  -54.2450 C.3       18 UNK         0.1400 
    101 CB        -7.3377  -26.8289  -53.5350 C.3       18 UNK        -0.1800 
    102 C         -6.3727  -25.3323  -55.3246 C.2       18 UNK         0.5000 
    103 O         -6.6454  -25.5852  -56.4983 O.2       18 UNK        -0.5000 
    104 N         -5.1678  -24.9125  -54.9134 N.am      19 UNK        -0.5000 
    105 CA        -4.0072  -24.6868  -55.7790 C.3       19 UNK         0.1400 
    106 CB        -2.7432  -24.6453  -54.9054 C.3       19 UNK        -0.1800 
    107 C         -4.1139  -23.4108  -56.6401 C.2       19 UNK         0.5000 
    108 O         -3.2988  -23.2289  -57.5448 O.2       19 UNK        -0.5000 
    109 N         -5.1013  -22.5542  -56.3378 N.am      20 UNK        -0.5000 
    110 CA        -5.4305  -21.2884  -57.0029 C.3       20 UNK         0.1400 
    111 CB        -5.7778  -21.5043  -58.4909 C.3       20 UNK        -0.1800 
    112 C         -4.3830  -20.1771  -56.7815 C.2       20 UNK         0.5000 
    113 O         -4.3358  -19.2163  -57.5515 O.2       20 UNK        -0.5000 
    114 N         -3.5933  -20.2980  -55.7046 N.am      21 UNK        -0.5000 
    115 CA        -2.7126  -19.2400  -55.2020 C.3       21 UNK         0.1400 
    116 CB        -1.6405  -19.8544  -54.2897 C.3       21 UNK        -0.1800 
    117 C         -3.5054  -18.1366  -54.4715 C.2       21 UNK         0.5000 
    118 O         -3.0621  -16.9886  -54.4410 O.2       21 UNK        -0.5000 
    119 N         -4.6748  -18.5017  -53.9328 N.am      22 UNK        -0.5000 
    120 CA        -5.6982  -17.5917  -53.4034 C.3       22 UNK         0.1400 
    121 C         -7.1349  -17.9940  -53.8423 C.2       22 UNK         0.5000 
    122 N         -7.3946  -19.2433  -54.2152 N.am      22 UNK        -0.7600 
    123 O         -8.0276  -17.1522  -53.8753 O.2       22 UNK        -0.5000 
    124 C124       -5.5827  -17.4230  -51.8650 C.3       23 UNK        -0.0398 
    125 S125       -5.9626  -15.7260  -51.3064 S.3       23 UNK        -0.2404 
    126 C126       -4.3386  -14.9071  -51.4410 C.3       23 UNK        -0.0205 
    127 H127        3.1906  -11.2017  -46.7468 H         1 UNK         0.0600 
    128 H128        4.6771  -12.1498  -46.6270 H         1 UNK         0.0600 
    129 H129        3.5368  -12.1274  -45.2814 H         1 UNK         0.0600 
    130 H130        2.1532  -13.8710  -45.1761 H         1 UNK         0.3000 
    131 H131        0.9965  -15.0709  -47.6160 H         1 UNK         0.0600 
    132 H132       -0.4071  -16.2949  -45.7436 H         1 UNK         0.0800 
    133 H133        0.3355  -15.1816  -44.6477 H         1 UNK         0.0800 
    134 H134       -3.4975  -14.3920  -46.5302 H         1 UNK         0.0800 
    135 H135       -2.7309  -15.8705  -46.0238 H         1 UNK         0.0800 
    136 H136       -4.1462  -14.2272  -48.8079 H         1 UNK         0.1150 
    137 H137       -2.3465  -16.7284  -51.7863 H         1 UNK         0.1150 
    138 H138       -0.9100  -16.8103  -47.7582 H         1 UNK         0.1150 
    139 H139       -1.0016  -18.6825  -50.9113 H         1 UNK         0.0800 
    140 H140        0.2700  -17.4859  -50.8466 H         1 UNK         0.0800 
    141 H141       -1.9446  -19.7448  -48.8139 H         1 UNK         0.0800 
    142 H142       -1.4818  -19.0895  -47.2670 H         1 UNK         0.0800 
    143 H143       -0.1779  -21.5925  -48.4082 H         1 UNK         0.0600 
    144 H144        0.1206  -20.2097  -45.8782 H         1 UNK         0.3000 
    145 H145        2.0741  -22.8472  -44.4166 H         1 UNK         0.0600 
    146 H146        3.5562  -21.3310  -45.8010 H         1 UNK         0.0600 
    147 H147        3.6061  -20.9687  -44.0837 H         1 UNK         0.0600 
    148 H148        2.6780  -19.9425  -45.1704 H         1 UNK         0.0600 
    149 H149        1.2404  -20.4379  -43.2405 H         1 UNK         0.3000 
    150 H150       -1.9590  -21.0744  -42.2622 H         1 UNK         0.0600 
    151 H151        0.2090  -22.1288  -40.3704 H         1 UNK         0.0600 
    152 H152       -1.2236  -23.0139  -40.8796 H         1 UNK         0.0600 
    153 H153       -1.3964  -21.5710  -39.8963 H         1 UNK         0.0600 
    154 H154        0.0771  -19.7124  -40.8006 H         1 UNK         0.3000 
    155 H155       -0.1928  -17.4485  -40.7432 H         1 UNK         0.0600 
    156 H156        1.7421  -16.2558  -41.7633 H         1 UNK         0.0600 
    157 H157        1.4960  -17.1116  -43.2806 H         1 UNK         0.0600 
    158 H158        1.9859  -17.9933  -41.8413 H         1 UNK         0.0600 
    159 H159       -0.4378  -15.6313  -42.9398 H         1 UNK         0.3000 
    160 H160       -3.2789  -15.0718  -43.4772 H         1 UNK         0.0600 
    161 H161       -3.4961  -13.7727  -40.7132 H         1 UNK         0.0600 
    162 H162       -4.6966  -14.7914  -41.4935 H         1 UNK         0.0600 
    163 H163       -4.3278  -13.2116  -42.1632 H         1 UNK         0.0600 
    164 H164       -1.7850  -13.5489  -44.0002 H         1 UNK         0.3000 
    165 H165        0.1933  -12.4426  -43.9670 H         1 UNK         0.0600 
    166 H166        0.0272   -9.9768  -43.6113 H         1 UNK         0.0600 
    167 H167       -1.5685  -10.7088  -43.6672 H         1 UNK         0.0600 
    168 H168       -0.8772  -10.2365  -42.1193 H         1 UNK         0.0600 
    169 H169        1.2331  -11.3066  -41.4459 H         1 UNK         0.3000 
    170 H170        3.3865  -11.6767  -40.8870 H         1 UNK         0.0600 
    171 H171        3.6044  -13.4801  -39.1904 H         1 UNK         0.0600 
    172 H172        2.8188  -14.6295  -40.2711 H         1 UNK         0.0600 
    173 H173        1.9174  -13.2629  -39.6289 H         1 UNK         0.0600 
    174 H174        4.7429  -14.1837  -41.7197 H         1 UNK         0.3000 
    175 H175        7.3181  -12.5601  -43.3951 H         1 UNK         0.0600 
    176 H176        8.1507  -12.0001  -41.1117 H         1 UNK         0.0600 
    177 H177        7.6216  -13.5683  -40.5147 H         1 UNK         0.0600 
    178 H178        8.9103  -13.4637  -41.7154 H         1 UNK         0.0600 
    179 H179        7.0517  -15.2026  -42.2644 H         1 UNK         0.3000 
    180 H180        6.8326  -16.9042  -44.2256 H         1 UNK         0.0600 
    181 H181        4.0181  -16.4207  -43.0544 H         1 UNK         0.0600 
    182 H182        5.4411  -16.8917  -42.1306 H         1 UNK         0.0600 
    183 H183        4.7335  -18.0142  -43.2766 H         1 UNK         0.0600 
    184 H184        4.8551  -15.6951  -45.8810 H         1 UNK         0.3000 
    185 H185        4.9958  -17.1401  -48.2700 H         1 UNK         0.0600 
    186 H186        3.2924  -18.7177  -49.0724 H         1 UNK         0.0600 
    187 H187        4.5407  -19.5915  -48.2069 H         1 UNK         0.0600 
    188 H188        2.9893  -19.2949  -47.4360 H         1 UNK         0.0600 
    189 H189        3.3492  -15.6802  -48.0057 H         1 UNK         0.3000 
    190 H190       -1.9057  -21.7205  -45.3683 H         1 UNK         0.3000 
    191 H191       -4.3168  -22.9442  -46.4504 H         1 UNK         0.0600 
    192 H192       -4.3306  -21.7157  -44.2705 H         1 UNK         0.0600 
    193 H193       -4.8729  -23.3776  -44.0984 H         1 UNK         0.0600 
    194 H194       -3.2599  -22.9301  -43.5734 H         1 UNK         0.0600 
    195 H195       -1.2904  -24.0825  -44.8923 H         1 UNK         0.3000 
    196 H196       -1.7772  -26.8726  -45.0956 H         1 UNK         0.0600 
    197 H197        0.6831  -27.0442  -44.6985 H         1 UNK         0.0600 
    198 H198       -0.0579  -25.8832  -43.6064 H         1 UNK         0.0600 
    199 H199        0.8649  -25.3195  -44.9967 H         1 UNK         0.0600 
    200 H200       -0.2443  -24.5756  -47.3758 H         1 UNK         0.3000 
    201 H201        0.3659  -26.5253  -49.4045 H         1 UNK         0.0600 
    202 H202        0.8550  -24.5418  -50.7799 H         1 UNK         0.0600 
    203 H203        1.5142  -24.2960  -49.1703 H         1 UNK         0.0600 
    204 H204        0.0161  -23.4939  -49.6482 H         1 UNK         0.0600 
    205 H205       -2.6002  -25.1828  -48.4157 H         1 UNK         0.3000 
    206 H206       -4.6876  -25.1680  -49.0964 H         1 UNK         0.0600 
    207 H207       -4.3222  -27.6134  -49.4573 H         1 UNK         0.0600 
    208 H208       -5.5178  -26.9614  -50.5664 H         1 UNK         0.0600 
    209 H209       -3.8938  -27.3092  -51.1406 H         1 UNK         0.0600 
    210 H210       -3.4698  -23.0061  -49.8883 H         1 UNK         0.3000 
    211 H211       -3.2961  -22.2989  -52.5544 H         1 UNK         0.0600 
    212 H212       -4.0303  -20.6163  -50.1083 H         1 UNK         0.0600 
    213 H213       -3.5743  -19.9329  -51.6618 H         1 UNK         0.0600 
    214 H214       -2.4200  -20.9081  -50.7712 H         1 UNK         0.0600 
    215 H215       -6.2624  -22.6871  -50.7583 H         1 UNK         0.3000 
    216 H216       -8.0348  -21.2537  -52.5122 H         1 UNK         0.0600 
    217 H217       -9.7908  -22.5218  -51.2816 H         1 UNK         0.0600 
    218 H218       -8.6343  -21.8004  -50.1743 H         1 UNK         0.0600 
    219 H219       -8.5586  -23.5270  -50.5283 H         1 UNK         0.0600 
    220 H220       -6.6585  -24.5256  -52.5322 H         1 UNK         0.3000 
    221 H221       -8.4319  -25.4343  -54.7380 H         1 UNK         0.0600 
    222 H222       -6.3769  -26.9385  -53.0305 H         1 UNK         0.0600 
    223 H223       -8.1231  -26.9540  -52.7895 H         1 UNK         0.0600 
    224 H224       -7.4303  -27.6504  -54.2464 H         1 UNK         0.0600 
    225 H225       -5.0140  -24.7914  -53.9143 H         1 UNK         0.3000 
    226 H226       -3.9208  -25.5339  -56.4624 H         1 UNK         0.0600 
    227 H227       -1.8453  -24.5562  -55.5180 H         1 UNK         0.0600 
    228 H228       -2.7563  -23.7997  -54.2192 H         1 UNK         0.0600 
    229 H229       -2.6421  -25.5540  -54.3112 H         1 UNK         0.0600 
    230 H230       -5.6873  -22.7931  -55.5501 H         1 UNK         0.3000 
    231 H231       -6.3377  -20.9322  -56.5132 H         1 UNK         0.0600 
    232 H232       -4.9000  -21.7704  -59.0800 H         1 UNK         0.0600 
    233 H233       -6.1995  -20.5989  -58.9288 H         1 UNK         0.0600 
    234 H234       -6.5174  -22.2959  -58.6121 H         1 UNK         0.0600 
    235 H235       -3.7207  -21.1099  -55.1181 H         1 UNK         0.3000 
    236 H236       -2.2052  -18.7733  -56.0490 H         1 UNK         0.0600 
    237 H237       -2.0784  -20.3879  -53.4490 H         1 UNK         0.0600 
    238 H238       -1.0152  -20.5577  -54.8399 H         1 UNK         0.0600 
    239 H239       -0.9833  -19.0840  -53.8840 H         1 UNK         0.0600 
    240 H240       -4.9403  -19.4775  -53.9844 H         1 UNK         0.3000 
    241 H241       -5.5294  -16.6195  -53.8712 H         1 UNK         0.0600 
    242 H242       -8.3289  -19.4679  -54.5190 H         1 UNK         0.3800 
    243 H243       -6.7132  -19.9840  -54.1096 H         1 UNK         0.3800 
    244 H244       -4.5828  -17.6834  -51.5253 H         1 UNK         0.0800 
    245 H245       -6.2394  -18.1195  -51.3405 H         1 UNK         0.0800 
    246 H246       -3.9457  -15.0424  -52.4502 H         1 UNK         0.0800 
    247 H247       -4.4734  -13.8327  -51.3088 H         1 UNK         0.0800 
@<TRIPOS>BOND
     1    1    2 1    
     2    1  127 1    
     3    1  128 1    
     4    1  129 1    
     5    2    3 2    
     6    2    4 am   BACKBONE|DICT|INTERRES
     7    4    5 1    
     8    4  130 1    
     9    5    6 1    
    10    5   65 1    
    11    5  131 1    
    12    6    7 1    
    13    6  132 1    
    14    6  133 1    
    15    7    8 1    
    16    8    9 1    
    17    8  134 1    
    18    8  135 1    
    19    9   10 ar   
    20    9   14 ar   
    21   10   11 ar   
    22   10  136 1    
    23   11   12 ar   
    24   11  126 1    
    25   12   13 ar   
    26   12  137 1    
    27   13   14 ar   
    28   13   15 1    
    29   14  138 1    
    30   15   16 1    
    31   15  139 1    
    32   15  140 1    
    33   16   17 1    
    34   17   18 1    
    35   17  141 1    
    36   17  142 1    
    37   18   19 1    
    38   18   67 1    
    39   18  143 1    
    40   19   20 am   BACKBONE|DICT|INTERRES
    41   19  144 1    
    42   20   21 2    
    43   20   22 1    
    44   22   23 1    
    45   22   24 1    
    46   22  145 1    
    47   23  146 1    
    48   23  147 1    
    49   23  148 1    
    50   24   25 am   BACKBONE|DICT|INTERRES
    51   24  149 1    
    52   25   26 2    
    53   25   27 1    
    54   27   28 1    
    55   27   29 1    
    56   27  150 1    
    57   28  151 1    
    58   28  152 1    
    59   28  153 1    
    60   29   30 am   BACKBONE|DICT|INTERRES
    61   29  154 1    
    62   30   31 2    
    63   30   32 1    
    64   32   33 1    
    65   32   34 1    
    66   32  155 1    
    67   33  156 1    
    68   33  157 1    
    69   33  158 1    
    70   34   35 am   BACKBONE|DICT|INTERRES
    71   34  159 1    
    72   35   36 2    
    73   35   37 1    
    74   37   38 1    
    75   37   39 1    
    76   37  160 1    
    77   38  161 1    
    78   38  162 1    
    79   38  163 1    
    80   39   40 am   BACKBONE|DICT|INTERRES
    81   39  164 1    
    82   40   41 2    
    83   40   42 1    
    84   42   43 1    
    85   42   44 1    
    86   42  165 1    
    87   43  166 1    
    88   43  167 1    
    89   43  168 1    
    90   44   45 am   BACKBONE|DICT|INTERRES
    91   44  169 1    
    92   45   46 2    
    93   45   47 1    
    94   47   48 1    
    95   47   49 1    
    96   47  170 1    
    97   48  171 1    
    98   48  172 1    
    99   48  173 1    
   100   49   50 am   BACKBONE|DICT|INTERRES
   101   49  174 1    
   102   50   51 2    
   103   50   52 1    
   104   52   53 1    
   105   52   54 1    
   106   52  175 1    
   107   53  176 1    
   108   53  177 1    
   109   53  178 1    
   110   54   55 am   BACKBONE|DICT|INTERRES
   111   54  179 1    
   112   55   56 2    
   113   55   57 1    
   114   57   58 1    
   115   57   59 1    
   116   57  180 1    
   117   58  181 1    
   118   58  182 1    
   119   58  183 1    
   120   59   60 am   BACKBONE|DICT|INTERRES
   121   59  184 1    
   122   60   61 2    
   123   60   62 1    
   124   62   63 1    
   125   62   64 1    
   126   62  185 1    
   127   63  186 1    
   128   63  187 1    
   129   63  188 1    
   130   64   65 am   BACKBONE|DICT|INTERRES
   131   64  189 1    
   132   65   66 2    
   133   67   68 2    
   134   67   69 am   BACKBONE|DICT|INTERRES
   135   69   70 1    
   136   69  190 1    
   137   70   71 1    
   138   70   72 1    
   139   70  191 1    
   140   71  192 1    
   141   71  193 1    
   142   71  194 1    
   143   72   73 2    
   144   72   74 am   BACKBONE|DICT|INTERRES
   145   74   75 1    
   146   74  195 1    
   147   75   76 1    
   148   75   77 1    
   149   75  196 1    
   150   76  197 1    
   151   76  198 1    
   152   76  199 1    
   153   77   78 2    
   154   77   79 am   BACKBONE|DICT|INTERRES
   155   79   80 1    
   156   79  200 1    
   157   80   81 1    
   158   80   82 1    
   159   80  201 1    
   160   81  202 1    
   161   81  203 1    
   162   81  204 1    
   163   82   83 2    
   164   82   84 am   BACKBONE|DICT|INTERRES
   165   84   85 1    
   166   84  205 1    
   167   85   86 1    
   168   85   87 1    
   169   85  206 1    
   170   86  207 1    
   171   86  208 1    
   172   86  209 1    
   173   87   88 2    
   174   87   89 am   BACKBONE|DICT|INTERRES
   175   89   90 1    
   176   89  210 1    
   177   90   91 1    
   178   90   92 1    
   179   90  211 1    
   180   91  212 1    
   181   91  213 1    
   182   91  214 1    
   183   92   93 2    
   184   92   94 am   BACKBONE|DICT|INTERRES
   185   94   95 1    
   186   94  215 1    
   187   95   96 1    
   188   95   97 1    
   189   95  216 1    
   190   96  217 1    
   191   96  218 1    
   192   96  219 1    
   193   97   98 2    
   194   97   99 am   BACKBONE|DICT|INTERRES
   195   99  100 1    
   196   99  220 1    
   197  100  101 1    
   198  100  102 1    
   199  100  221 1    
   200  101  222 1    
   201  101  223 1    
   202  101  224 1    
   203  102  103 2    
   204  102  104 am   BACKBONE|DICT|INTERRES
   205  104  105 1    
   206  104  225 1    
   207  105  106 1    
   208  105  107 1    
   209  105  226 1    
   210  106  227 1    
   211  106  228 1    
   212  106  229 1    
   213  107  108 2    
   214  107  109 am   BACKBONE|DICT|INTERRES
   215  109  110 1    
   216  109  230 1    
   217  110  111 1    
   218  110  112 1    
   219  110  231 1    
   220  111  232 1    
   221  111  233 1    
   222  111  234 1    
   223  112  113 2    
   224  112  114 am   BACKBONE|DICT|INTERRES
   225  114  115 1    
   226  114  235 1    
   227  115  116 1    
   228  115  117 1    
   229  115  236 1    
   230  116  237 1    
   231  116  238 1    
   232  116  239 1    
   233  117  118 2    
   234  117  119 am   BACKBONE|DICT|INTERRES
   235  119  120 1    
   236  119  240 1    
   237  120  121 1    
   238  120  124 1    
   239  120  241 1    
   240  121  122 am   BACKBONE|DICT|INTERRES
   241  121  123 2    
   242  122  242 1    
   243  122  243 1    
   244  124  125 1    
   245  124  244 1    
   246  124  245 1    
   247  125  126 1    
   248  126  246 1    
   249  126  247 1    
@<TRIPOS>SUBSTRUCTURE
     1 UNK         1 GROUP             0       ****    0 ROOT    
