@<TRIPOS>MOLECULE
3R540
247   249    1
SMALL
USER_CHARGES


@<TRIPOS>ATOM
      1 CA          1.9895  -11.0526  -51.8797 C.3       0 UNK        -0.1800 
      2 C           2.4987  -11.0178  -50.4454 C.2       0 UNK         0.5000 
      3 O           2.9384   -9.9678  -49.9753 O.2       0 UNK        -0.5000 
      4 N           2.4495  -12.1627  -49.7554 N.am      1 UNK        -0.5000 
      5 CA          2.8142  -12.3170  -48.3441 C.3       1 UNK         0.1400 
      6 C6          3.2171  -13.7757  -48.0024 C.3       23 UNK        -0.0398 
      7 S7          2.0491  -15.0581  -48.5796 S.3       23 UNK        -0.2404 
      8 C8          3.0083  -15.7878  -49.9437 C.3       23 UNK        -0.0205 
      9 C9          2.2874  -16.9774  -50.5540 C.ar      23 UNK        -0.0193 
     10 C10         1.3070  -16.7819  -51.5299 C.ar      23 UNK        -0.1150 
     11 C11         0.6391  -17.8726  -52.0939 C.ar      23 UNK        -0.0193 
     12 C12         0.9582  -19.1676  -51.6722 C.ar      23 UNK        -0.1150 
     13 C13         1.9371  -19.3769  -50.6943 C.ar      23 UNK        -0.0193 
     14 C14         2.6035  -18.2760  -50.1466 C.ar      23 UNK        -0.1150 
     15 C15         2.2728  -20.7919  -50.2325 C.3       23 UNK        -0.0205 
     16 S16         2.1464  -20.9979  -48.4227 S.3       23 UNK        -0.2404 
     17 C17         0.4101  -20.5343  -48.1227 C.3       23 UNK        -0.0398 
     18 CA         -0.3578  -21.6022  -47.3109 C.3       11 UNK         0.1400 
     19 N           0.0390  -21.6612  -45.8999 N.am      11 UNK        -0.5000 
     20 C          -0.4139  -22.5728  -45.0248 C.2       10 UNK         0.5000 
     21 O          -1.1443  -23.5137  -45.3357 O.2       10 UNK        -0.5000 
     22 CA         -0.0501  -22.3666  -43.5434 C.3       10 UNK         0.1400 
     23 CB          1.3662  -22.8780  -43.2421 C.3       10 UNK        -0.1800 
     24 N          -0.1837  -20.9700  -43.1256 N.am      10 UNK        -0.5000 
     25 C          -1.3432  -20.2947  -43.1081 C.2       9 UNK         0.5000 
     26 O          -2.4316  -20.8026  -43.3773 O.2       9 UNK        -0.5000 
     27 CA         -1.2738  -18.7909  -42.7874 C.3       9 UNK         0.1400 
     28 CB         -1.2159  -18.5540  -41.2713 C.3       9 UNK        -0.1800 
     29 N          -0.1345  -18.1386  -43.4279 N.am      9 UNK        -0.5000 
     30 C           0.0418  -18.0176  -44.7499 C.2       8 UNK         0.5000 
     31 O          -0.7776  -18.3952  -45.5864 O.2       8 UNK        -0.5000 
     32 CA          1.3880  -17.4320  -45.2132 C.3       8 UNK         0.1400 
     33 CB          1.3803  -15.8995  -45.1592 C.3       8 UNK        -0.1800 
     34 N           2.5045  -17.9328  -44.4144 N.am      8 UNK        -0.5000 
     35 C           2.9434  -19.1976  -44.4393 C.2       7 UNK         0.5000 
     36 O           2.4534  -20.0763  -45.1468 O.2       7 UNK        -0.5000 
     37 CA          4.0968  -19.5413  -43.4801 C.3       7 UNK         0.1400 
     38 CB          5.4477  -19.1367  -44.0891 C.3       7 UNK        -0.1800 
     39 N           3.9416  -18.9041  -42.1708 N.am      7 UNK        -0.5000 
     40 C           2.9859  -19.2288  -41.2894 C.2       6 UNK         0.5000 
     41 O           2.1534  -20.1152  -41.4801 O.2       6 UNK        -0.5000 
     42 CA          2.9224  -18.3935  -39.9966 C.3       6 UNK         0.1400 
     43 CB          3.9365  -18.9138  -38.9667 C.3       6 UNK        -0.1800 
     44 N           3.1242  -16.9531  -40.1957 N.am      6 UNK        -0.5000 
     45 C           2.3685  -16.1801  -40.9866 C.2       5 UNK         0.5000 
     46 O           1.4980  -16.6190  -41.7379 O.2       5 UNK        -0.5000 
     47 CA          2.6450  -14.6665  -40.9637 C.3       5 UNK         0.1400 
     48 CB          3.6330  -14.2864  -42.0776 C.3       5 UNK        -0.1800 
     49 N           1.4101  -13.9024  -41.1470 N.am      5 UNK        -0.5000 
     50 C           0.3966  -13.8548  -40.2699 C.2       4 UNK         0.5000 
     51 O           0.4406  -14.3637  -39.1487 O.2       4 UNK        -0.5000 
     52 CA         -0.8776  -13.1043  -40.7068 C.3       4 UNK         0.1400 
     53 CB         -0.9252  -11.7098  -40.0634 C.3       4 UNK        -0.1800 
     54 N          -0.9881  -12.9524  -42.1581 N.am      4 UNK        -0.5000 
     55 C          -1.3497  -13.9106  -43.0191 C.2       3 UNK         0.5000 
     56 O          -1.6859  -15.0422  -42.6733 O.2       3 UNK        -0.5000 
     57 CA         -1.3065  -13.5623  -44.5224 C.3       3 UNK         0.1400 
     58 CB         -2.6527  -12.9843  -44.9991 C.3       3 UNK        -0.1800 
     59 N          -0.1719  -12.7083  -44.9226 N.am      3 UNK        -0.5000 
     60 C           0.0484  -11.4179  -44.6290 C.2       2 UNK         0.5000 
     61 O          -0.7094  -10.7427  -43.9317 O.2       2 UNK        -0.5000 
     62 CA          1.3547  -10.7701  -45.1319 C.3       2 UNK         0.1400 
     63 CB          2.2894  -10.4895  -43.9430 C.3       2 UNK        -0.1800 
     64 N           2.1104  -11.5239  -46.1381 N.am      2 UNK        -0.5000 
     65 C           1.7261  -11.7484  -47.4023 C.2       1 UNK         0.5000 
     66 O           0.5935  -11.5019  -47.8246 O.2       1 UNK        -0.5000 
     67 C          -1.8750  -21.3911  -47.4636 C.2       11 UNK         0.5000 
     68 O          -2.4994  -22.1250  -48.2263 O.2       11 UNK        -0.5000 
     69 N          -2.4488  -20.4287  -46.7280 N.am      12 UNK        -0.5000 
     70 CA         -3.8831  -20.1314  -46.7325 C.3       12 UNK         0.1400 
     71 CB         -4.1623  -18.8918  -45.8697 C.3       12 UNK        -0.1800 
     72 C          -4.7450  -21.3269  -46.2847 C.2       12 UNK         0.5000 
     73 O          -5.7311  -21.6432  -46.9509 O.2       12 UNK        -0.5000 
     74 N          -4.3242  -22.0066  -45.2084 N.am      13 UNK        -0.5000 
     75 CA         -4.9497  -23.2265  -44.6901 C.3       13 UNK         0.1400 
     76 CB         -4.2948  -23.6037  -43.3529 C.3       13 UNK        -0.1800 
     77 C          -4.8894  -24.4100  -45.6765 C.2       13 UNK         0.5000 
     78 O          -5.8398  -25.1892  -45.7506 O.2       13 UNK        -0.5000 
     79 N          -3.7914  -24.5030  -46.4375 N.am      14 UNK        -0.5000 
     80 CA         -3.5734  -25.4949  -47.4920 C.3       14 UNK         0.1400 
     81 CB         -2.0589  -25.7116  -47.6487 C.3       14 UNK        -0.1800 
     82 C          -4.2064  -25.1050  -48.8452 C.2       14 UNK         0.5000 
     83 O          -4.0287  -25.8393  -49.8188 O.2       14 UNK        -0.5000 
     84 N          -4.8822  -23.9475  -48.9132 N.am      15 UNK        -0.5000 
     85 CA         -5.4742  -23.3357  -50.1079 C.3       15 UNK         0.1400 
     86 CB         -6.6800  -24.1579  -50.6068 C.3       15 UNK        -0.1800 
     87 C          -4.4319  -23.0711  -51.2143 C.2       15 UNK         0.5000 
     88 O          -4.6978  -23.3281  -52.3898 O.2       15 UNK        -0.5000 
     89 N          -3.2608  -22.5643  -50.8058 N.am      16 UNK        -0.5000 
     90 CA         -2.0568  -22.3120  -51.6042 C.3       16 UNK         0.1400 
     91 CB         -2.3250  -21.2603  -52.6977 C.3       16 UNK        -0.1800 
     92 C          -1.4167  -23.6104  -52.1351 C.2       16 UNK         0.5000 
     93 O          -0.8537  -23.6176  -53.2288 O.2       16 UNK        -0.5000 
     94 N          -1.5250  -24.6834  -51.3360 N.am      17 UNK        -0.5000 
     95 CA         -1.1741  -26.0707  -51.6566 C.3       17 UNK         0.1400 
     96 CB          0.3395  -26.2297  -51.9127 C.3       17 UNK        -0.1800 
     97 C          -2.0611  -26.6118  -52.7955 C.2       17 UNK         0.5000 
     98 O          -1.5535  -27.1224  -53.7957 O.2       17 UNK        -0.5000 
     99 N          -3.3808  -26.4590  -52.6060 N.am      18 UNK        -0.5000 
    100 CA        -4.4629  -26.7936  -53.5359 C.3       18 UNK         0.1400 
    101 CB        -4.5868  -28.3229  -53.6974 C.3       18 UNK        -0.1800 
    102 C         -4.3417  -26.0449  -54.8809 C.2       18 UNK         0.5000 
    103 O         -4.3854  -26.6641  -55.9461 O.2       18 UNK        -0.5000 
    104 N         -4.1936  -24.7177  -54.7995 N.am      19 UNK        -0.5000 
    105 CA        -4.0808  -23.8036  -55.9357 C.3       19 UNK         0.1400 
    106 CB        -2.6138  -23.3819  -56.1290 C.3       19 UNK        -0.1800 
    107 C         -5.0380  -22.6135  -55.7493 C.2       19 UNK         0.5000 
    108 O         -4.6606  -21.4642  -55.9859 O.2       19 UNK        -0.5000 
    109 N         -6.2699  -22.9263  -55.3190 N.am      20 UNK        -0.5000 
    110 CA        -7.4305  -22.0356  -55.2032 C.3       20 UNK         0.1400 
    111 CB        -7.9356  -21.6458  -56.6084 C.3       20 UNK        -0.1800 
    112 C         -7.2070  -20.8083  -54.2941 C.2       20 UNK         0.5000 
    113 O         -7.7367  -19.7324  -54.5798 O.2       20 UNK        -0.5000 
    114 N         -6.4141  -20.9840  -53.2248 N.am      21 UNK        -0.5000 
    115 CA        -6.0741  -19.9699  -52.2154 C.3       21 UNK         0.1400 
    116 CB        -7.2920  -19.6781  -51.3155 C.3       21 UNK        -0.1800 
    117 C         -5.4437  -18.6987  -52.8232 C.2       21 UNK         0.5000 
    118 O         -5.7813  -17.5827  -52.4252 O.2       21 UNK        -0.5000 
    119 N         -4.5503  -18.9159  -53.7965 N.am      22 UNK        -0.5000 
    120 CA        -3.8408  -17.9043  -54.5971 C.3       22 UNK         0.1400 
    121 C         -4.7087  -17.2524  -55.7172 C.2       22 UNK         0.5000 
    122 N         -5.9522  -17.6648  -55.9379 N.am      22 UNK        -0.7600 
    123 O         -4.2351  -16.3679  -56.4256 O.2       22 UNK        -0.5000 
    124 C124       -3.0750  -16.8303  -53.7652 C.3       23 UNK        -0.0398 
    125 S125       -2.0692  -17.4856  -52.3859 S.3       23 UNK        -0.2404 
    126 C126       -0.4292  -17.6429  -53.1520 C.3       23 UNK        -0.0205 
    127 H127        1.6472  -12.0479  -52.1644 H         1 UNK         0.0600 
    128 H128        2.7819  -10.7562  -52.5670 H         1 UNK         0.0600 
    129 H129        1.1563  -10.3598  -51.9985 H         1 UNK         0.0600 
    130 H130        2.0332  -12.9802  -50.1771 H         1 UNK         0.3000 
    131 H131        3.7022  -11.7039  -48.1739 H         1 UNK         0.0600 
    132 H132        4.1968  -13.9745  -48.4389 H         1 UNK         0.0800 
    133 H133        3.3643  -13.9013  -46.9292 H         1 UNK         0.0800 
    134 H134        3.1919  -15.0325  -50.7094 H         1 UNK         0.0800 
    135 H135        3.9875  -16.0975  -49.5747 H         1 UNK         0.0800 
    136 H136        1.0577  -15.7782  -51.8446 H         1 UNK         0.1150 
    137 H137        0.4395  -20.0112  -52.1038 H         1 UNK         0.1150 
    138 H138        3.3603  -18.4316  -49.3904 H         1 UNK         0.1150 
    139 H139        1.6235  -21.5237  -50.7158 H         1 UNK         0.0800 
    140 H140        3.2905  -21.0306  -50.5436 H         1 UNK         0.0800 
    141 H141       -0.0742  -20.3719  -49.0873 H         1 UNK         0.0800 
    142 H142        0.3938  -19.5690  -47.6170 H         1 UNK         0.0800 
    143 H143       -0.1356  -22.5787  -47.7469 H         1 UNK         0.0600 
    144 H144        0.6921  -20.9526  -45.5799 H         1 UNK         0.3000 
    145 H145       -0.7508  -22.9560  -42.9483 H         1 UNK         0.0600 
    146 H146        1.4682  -23.9274  -43.5211 H         1 UNK         0.0600 
    147 H147        2.1253  -22.3193  -43.7883 H         1 UNK         0.0600 
    148 H148        1.5946  -22.8006  -42.1791 H         1 UNK         0.0600 
    149 H149        0.6653  -20.4969  -42.8350 H         1 UNK         0.3000 
    150 H150       -2.1825  -18.3221  -43.1699 H         1 UNK         0.0600 
    151 H151       -1.2254  -17.4881  -41.0408 H         1 UNK         0.0600 
    152 H152       -0.3155  -18.9821  -40.8304 H         1 UNK         0.0600 
    153 H153       -2.0747  -19.0043  -40.7723 H         1 UNK         0.0600 
    154 H154        0.5602  -17.7278  -42.8066 H         1 UNK         0.3000 
    155 H155        1.5526  -17.7343  -46.2500 H         1 UNK         0.0600 
    156 H156        0.6766  -15.5023  -45.8894 H         1 UNK         0.0600 
    157 H157        2.3610  -15.4917  -45.4014 H         1 UNK         0.0600 
    158 H158        1.0956  -15.5268  -44.1751 H         1 UNK         0.0600 
    159 H159        2.9127  -17.2921  -43.7510 H         1 UNK         0.3000 
    160 H160        4.0990  -20.6239  -43.3360 H         1 UNK         0.0600 
    161 H161        5.5936  -19.6099  -45.0611 H         1 UNK         0.0600 
    162 H162        6.2758  -19.4455  -43.4509 H         1 UNK         0.0600 
    163 H163        5.5194  -18.0582  -44.2349 H         1 UNK         0.0600 
    164 H164        4.5836  -18.1607  -41.9385 H         1 UNK         0.3000 
    165 H165        1.9220  -18.5239  -39.5786 H         1 UNK         0.0600 
    166 H166        3.8208  -18.4074  -38.0082 H         1 UNK         0.0600 
    167 H167        3.7983  -19.9809  -38.7868 H         1 UNK         0.0600 
    168 H168        4.9639  -18.7677  -39.3025 H         1 UNK         0.0600 
    169 H169        3.8344  -16.5190  -39.6239 H         1 UNK         0.3000 
    170 H170        3.0777  -14.3982  -39.9978 H         1 UNK         0.0600 
    171 H171        3.8711  -13.2231  -42.0462 H         1 UNK         0.0600 
    172 H172        4.5722  -14.8307  -41.9712 H         1 UNK         0.0600 
    173 H173        3.2336  -14.5113  -43.0671 H         1 UNK         0.0600 
    174 H174        1.2664  -13.4836  -42.0520 H         1 UNK         0.3000 
    175 H175       -1.7362  -13.6772  -40.3501 H         1 UNK         0.0600 
    176 H176       -0.0945  -11.0856  -40.3955 H         1 UNK         0.0600 
    177 H177       -1.8526  -11.1931  -40.3110 H         1 UNK         0.0600 
    178 H178       -0.8722  -11.7776  -38.9760 H         1 UNK         0.0600 
    179 H179       -0.7889  -12.0343  -42.5450 H         1 UNK         0.3000 
    180 H180       -1.1739  -14.5062  -45.0501 H         1 UNK         0.0600 
    181 H181       -2.6349  -12.7757  -46.0689 H         1 UNK         0.0600 
    182 H182       -2.9118  -12.0611  -44.4805 H         1 UNK         0.0600 
    183 H183       -3.4623  -13.6927  -44.8194 H         1 UNK         0.0600 
    184 H184        0.5256  -13.1620  -45.4940 H         1 UNK         0.3000 
    185 H185        1.0772   -9.8128  -45.5779 H         1 UNK         0.0600 
    186 H186        2.6214  -11.4125  -43.4660 H         1 UNK         0.0600 
    187 H187        3.1746   -9.9363  -44.2576 H         1 UNK         0.0600 
    188 H188        1.7915   -9.8881  -43.1809 H         1 UNK         0.0600 
    189 H189        3.0553  -11.7634  -45.8743 H         1 UNK         0.3000 
    190 H190       -1.8603  -19.8295  -46.1539 H         1 UNK         0.3000 
    191 H191       -4.1618  -19.8933  -47.7612 H         1 UNK         0.0600 
    192 H192       -3.8984  -19.0576  -44.8256 H         1 UNK         0.0600 
    193 H193       -5.2193  -18.6247  -45.9019 H         1 UNK         0.0600 
    194 H194       -3.5974  -18.0293  -46.2239 H         1 UNK         0.0600 
    195 H195       -3.5216  -21.6538  -44.6924 H         1 UNK         0.3000 
    196 H196       -6.0026  -23.0058  -44.5037 H         1 UNK         0.0600 
    197 H197       -4.7548  -24.4973  -42.9293 H         1 UNK         0.0600 
    198 H198       -4.4040  -22.8031  -42.6211 H         1 UNK         0.0600 
    199 H199       -3.2295  -23.8053  -43.4703 H         1 UNK         0.0600 
    200 H200       -3.0357  -23.8452  -46.2792 H         1 UNK         0.3000 
    201 H201       -4.0210  -26.4428  -47.1873 H         1 UNK         0.0600 
    202 H202       -1.6039  -26.0029  -46.7018 H         1 UNK         0.0600 
    203 H203       -1.5562  -24.8076  -47.9945 H         1 UNK         0.0600 
    204 H204       -1.8445  -26.5058  -48.3641 H         1 UNK         0.0600 
    205 H205       -4.9462  -23.3917  -48.0690 H         1 UNK         0.3000 
    206 H206       -5.8460  -22.3580  -49.7986 H         1 UNK         0.0600 
    207 H207       -7.1962  -23.6426  -51.4177 H         1 UNK         0.0600 
    208 H208       -6.3787  -25.1367  -50.9807 H         1 UNK         0.0600 
    209 H209       -7.4060  -24.3133  -49.8088 H         1 UNK         0.0600 
    210 H210       -3.1373  -22.4066  -49.8043 H         1 UNK         0.3000 
    211 H211       -1.3244  -21.8835  -50.9188 H         1 UNK         0.0600 
    212 H212       -3.0591  -21.6004  -53.4262 H         1 UNK         0.0600 
    213 H213       -1.4154  -21.0121  -53.2448 H         1 UNK         0.0600 
    214 H214       -2.6953  -20.3393  -52.2521 H         1 UNK         0.0600 
    215 H215       -2.0401  -24.5624  -50.4762 H         1 UNK         0.3000 
    216 H216       -1.4165  -26.6633  -50.7737 H         1 UNK         0.0600 
    217 H217        0.6041  -27.2820  -52.0213 H         1 UNK         0.0600 
    218 H218        0.9230  -25.8319  -51.0825 H         1 UNK         0.0600 
    219 H219        0.6590  -25.7208  -52.8222 H         1 UNK         0.0600 
    220 H220       -3.6795  -26.0611  -51.7194 H         1 UNK         0.3000 
    221 H221       -5.3836  -26.4378  -53.0712 H         1 UNK         0.0600 
    222 H222       -3.7109  -28.7533  -54.1837 H         1 UNK         0.0600 
    223 H223       -4.7073  -28.8117  -52.7306 H         1 UNK         0.0600 
    224 H224       -5.4567  -28.5820  -54.3019 H         1 UNK         0.0600 
    225 H225       -4.2226  -24.2751  -53.8819 H         1 UNK         0.3000 
    226 H226       -4.4047  -24.3042  -56.8501 H         1 UNK         0.0600 
    227 H227       -1.9612  -24.2506  -56.2173 H         1 UNK         0.0600 
    228 H228       -2.4944  -22.7897  -57.0367 H         1 UNK         0.0600 
    229 H229       -2.2550  -22.7786  -55.2969 H         1 UNK         0.0600 
    230 H230       -6.4489  -23.8980  -55.1087 H         1 UNK         0.3000 
    231 H231       -8.2159  -22.6207  -54.7229 H         1 UNK         0.0600 
    232 H232       -7.2191  -21.0117  -57.1320 H         1 UNK         0.0600 
    233 H233       -8.1137  -22.5284  -57.2227 H         1 UNK         0.0600 
    234 H234       -8.8774  -21.0987  -56.5514 H         1 UNK         0.0600 
    235 H235       -5.9729  -21.8904  -53.1094 H         1 UNK         0.3000 
    236 H236       -5.2996  -20.3993  -51.5815 H         1 UNK         0.0600 
    237 H237       -8.0992  -19.1994  -51.8708 H         1 UNK         0.0600 
    238 H238       -7.6849  -20.5946  -50.8755 H         1 UNK         0.0600 
    239 H239       -7.0213  -19.0149  -50.4931 H         1 UNK         0.0600 
    240 H240       -4.4058  -19.8698  -54.0989 H         1 UNK         0.3000 
    241 H241       -3.0850  -18.4745  -55.1383 H         1 UNK         0.0600 
    242 H242       -6.4882  -17.2352  -56.6749 H         1 UNK         0.3800 
    243 H243       -6.3801  -18.3835  -55.3658 H         1 UNK         0.3800 
    244 H244       -2.4298  -16.2401  -54.4176 H         1 UNK         0.0800 
    245 H245       -3.7816  -16.1173  -53.3382 H         1 UNK         0.0800 
    246 H246       -0.1970  -16.7406  -53.7197 H         1 UNK         0.0800 
    247 H247       -0.4400  -18.4670  -53.8671 H         1 UNK         0.0800 
@<TRIPOS>BOND
     1    1    2 1    
     2    1  127 1    
     3    1  128 1    
     4    1  129 1    
     5    2    3 2    
     6    2    4 am   BACKBONE|DICT|INTERRES
     7    4    5 1    
     8    4  130 1    
     9    5    6 1    
    10    5   65 1    
    11    5  131 1    
    12    6    7 1    
    13    6  132 1    
    14    6  133 1    
    15    7    8 1    
    16    8    9 1    
    17    8  134 1    
    18    8  135 1    
    19    9   10 ar   
    20    9   14 ar   
    21   10   11 ar   
    22   10  136 1    
    23   11   12 ar   
    24   11  126 1    
    25   12   13 ar   
    26   12  137 1    
    27   13   14 ar   
    28   13   15 1    
    29   14  138 1    
    30   15   16 1    
    31   15  139 1    
    32   15  140 1    
    33   16   17 1    
    34   17   18 1    
    35   17  141 1    
    36   17  142 1    
    37   18   19 1    
    38   18   67 1    
    39   18  143 1    
    40   19   20 am   BACKBONE|DICT|INTERRES
    41   19  144 1    
    42   20   21 2    
    43   20   22 1    
    44   22   23 1    
    45   22   24 1    
    46   22  145 1    
    47   23  146 1    
    48   23  147 1    
    49   23  148 1    
    50   24   25 am   BACKBONE|DICT|INTERRES
    51   24  149 1    
    52   25   26 2    
    53   25   27 1    
    54   27   28 1    
    55   27   29 1    
    56   27  150 1    
    57   28  151 1    
    58   28  152 1    
    59   28  153 1    
    60   29   30 am   BACKBONE|DICT|INTERRES
    61   29  154 1    
    62   30   31 2    
    63   30   32 1    
    64   32   33 1    
    65   32   34 1    
    66   32  155 1    
    67   33  156 1    
    68   33  157 1    
    69   33  158 1    
    70   34   35 am   BACKBONE|DICT|INTERRES
    71   34  159 1    
    72   35   36 2    
    73   35   37 1    
    74   37   38 1    
    75   37   39 1    
    76   37  160 1    
    77   38  161 1    
    78   38  162 1    
    79   38  163 1    
    80   39   40 am   BACKBONE|DICT|INTERRES
    81   39  164 1    
    82   40   41 2    
    83   40   42 1    
    84   42   43 1    
    85   42   44 1    
    86   42  165 1    
    87   43  166 1    
    88   43  167 1    
    89   43  168 1    
    90   44   45 am   BACKBONE|DICT|INTERRES
    91   44  169 1    
    92   45   46 2    
    93   45   47 1    
    94   47   48 1    
    95   47   49 1    
    96   47  170 1    
    97   48  171 1    
    98   48  172 1    
    99   48  173 1    
   100   49   50 am   BACKBONE|DICT|INTERRES
   101   49  174 1    
   102   50   51 2    
   103   50   52 1    
   104   52   53 1    
   105   52   54 1    
   106   52  175 1    
   107   53  176 1    
   108   53  177 1    
   109   53  178 1    
   110   54   55 am   BACKBONE|DICT|INTERRES
   111   54  179 1    
   112   55   56 2    
   113   55   57 1    
   114   57   58 1    
   115   57   59 1    
   116   57  180 1    
   117   58  181 1    
   118   58  182 1    
   119   58  183 1    
   120   59   60 am   BACKBONE|DICT|INTERRES
   121   59  184 1    
   122   60   61 2    
   123   60   62 1    
   124   62   63 1    
   125   62   64 1    
   126   62  185 1    
   127   63  186 1    
   128   63  187 1    
   129   63  188 1    
   130   64   65 am   BACKBONE|DICT|INTERRES
   131   64  189 1    
   132   65   66 2    
   133   67   68 2    
   134   67   69 am   BACKBONE|DICT|INTERRES
   135   69   70 1    
   136   69  190 1    
   137   70   71 1    
   138   70   72 1    
   139   70  191 1    
   140   71  192 1    
   141   71  193 1    
   142   71  194 1    
   143   72   73 2    
   144   72   74 am   BACKBONE|DICT|INTERRES
   145   74   75 1    
   146   74  195 1    
   147   75   76 1    
   148   75   77 1    
   149   75  196 1    
   150   76  197 1    
   151   76  198 1    
   152   76  199 1    
   153   77   78 2    
   154   77   79 am   BACKBONE|DICT|INTERRES
   155   79   80 1    
   156   79  200 1    
   157   80   81 1    
   158   80   82 1    
   159   80  201 1    
   160   81  202 1    
   161   81  203 1    
   162   81  204 1    
   163   82   83 2    
   164   82   84 am   BACKBONE|DICT|INTERRES
   165   84   85 1    
   166   84  205 1    
   167   85   86 1    
   168   85   87 1    
   169   85  206 1    
   170   86  207 1    
   171   86  208 1    
   172   86  209 1    
   173   87   88 2    
   174   87   89 am   BACKBONE|DICT|INTERRES
   175   89   90 1    
   176   89  210 1    
   177   90   91 1    
   178   90   92 1    
   179   90  211 1    
   180   91  212 1    
   181   91  213 1    
   182   91  214 1    
   183   92   93 2    
   184   92   94 am   BACKBONE|DICT|INTERRES
   185   94   95 1    
   186   94  215 1    
   187   95   96 1    
   188   95   97 1    
   189   95  216 1    
   190   96  217 1    
   191   96  218 1    
   192   96  219 1    
   193   97   98 2    
   194   97   99 am   BACKBONE|DICT|INTERRES
   195   99  100 1    
   196   99  220 1    
   197  100  101 1    
   198  100  102 1    
   199  100  221 1    
   200  101  222 1    
   201  101  223 1    
   202  101  224 1    
   203  102  103 2    
   204  102  104 am   BACKBONE|DICT|INTERRES
   205  104  105 1    
   206  104  225 1    
   207  105  106 1    
   208  105  107 1    
   209  105  226 1    
   210  106  227 1    
   211  106  228 1    
   212  106  229 1    
   213  107  108 2    
   214  107  109 am   BACKBONE|DICT|INTERRES
   215  109  110 1    
   216  109  230 1    
   217  110  111 1    
   218  110  112 1    
   219  110  231 1    
   220  111  232 1    
   221  111  233 1    
   222  111  234 1    
   223  112  113 2    
   224  112  114 am   BACKBONE|DICT|INTERRES
   225  114  115 1    
   226  114  235 1    
   227  115  116 1    
   228  115  117 1    
   229  115  236 1    
   230  116  237 1    
   231  116  238 1    
   232  116  239 1    
   233  117  118 2    
   234  117  119 am   BACKBONE|DICT|INTERRES
   235  119  120 1    
   236  119  240 1    
   237  120  121 1    
   238  120  124 1    
   239  120  241 1    
   240  121  122 am   BACKBONE|DICT|INTERRES
   241  121  123 2    
   242  122  242 1    
   243  122  243 1    
   244  124  125 1    
   245  124  244 1    
   246  124  245 1    
   247  125  126 1    
   248  126  246 1    
   249  126  247 1    
@<TRIPOS>SUBSTRUCTURE
     1 UNK         1 GROUP             0       ****    0 ROOT    
