@<TRIPOS>MOLECULE
3R540
247   249    1
SMALL
USER_CHARGES


@<TRIPOS>ATOM
      1 CA         -1.9957  -17.6200  -47.5990 C.3       0 UNK        -0.1800 
      2 C          -0.9694  -16.4976  -47.5794 C.2       0 UNK         0.5000 
      3 O          -0.3277  -16.2768  -46.5560 O.2       0 UNK        -0.5000 
      4 N          -0.8122  -15.7834  -48.7002 N.am      1 UNK        -0.5000 
      5 CA          0.1489  -14.6895  -48.9050 C.3       1 UNK         0.1400 
      6 C6          1.6425  -15.1399  -48.8190 C.3       23 UNK        -0.0398 
      7 S7          2.1447  -16.6408  -49.7422 S.3       23 UNK        -0.2404 
      8 C8          1.1219  -16.6674  -51.2556 C.3       23 UNK        -0.0205 
      9 C9          0.9344  -18.0715  -51.8195 C.ar      23 UNK        -0.0193 
     10 C10         0.9812  -18.2738  -53.2012 C.ar      23 UNK        -0.1150 
     11 C11         0.7115  -19.5331  -53.7562 C.ar      23 UNK        -0.0193 
     12 C12         0.4549  -20.6055  -52.8952 C.ar      23 UNK        -0.1150 
     13 C13         0.4222  -20.4250  -51.5095 C.ar      23 UNK        -0.0193 
     14 C14         0.6407  -19.1520  -50.9808 C.ar      23 UNK        -0.1150 
     15 C15         0.1038  -21.5923  -50.5881 C.3       23 UNK        -0.0205 
     16 S16         1.5563  -22.1262  -49.6196 S.3       23 UNK        -0.2404 
     17 C17         1.1462  -21.5274  -47.9396 C.3       23 UNK        -0.0398 
     18 CA          0.4705  -22.6153  -47.0633 C.3       11 UNK         0.1400 
     19 N           0.4600  -22.2681  -45.6390 N.am      11 UNK        -0.5000 
     20 C           0.0695  -23.1008  -44.6578 C.2       10 UNK         0.5000 
     21 O          -0.2553  -24.2718  -44.8482 O.2       10 UNK        -0.5000 
     22 CA         -0.0313  -22.5303  -43.2289 C.3       10 UNK         0.1400 
     23 CB          1.2882  -22.7422  -42.4727 C.3       10 UNK        -0.1800 
     24 N          -0.3791  -21.1120  -43.1887 N.am      10 UNK        -0.5000 
     25 C          -1.4700  -20.5549  -43.7347 C.2       9 UNK         0.5000 
     26 O          -2.3828  -21.2007  -44.2512 O.2       9 UNK        -0.5000 
     27 CA         -1.5142  -19.0134  -43.7655 C.3       9 UNK         0.1400 
     28 CB         -2.4001  -18.4845  -42.6271 C.3       9 UNK        -0.1800 
     29 N          -0.1935  -18.3769  -43.6817 N.am      9 UNK        -0.5000 
     30 C           0.8368  -18.5721  -44.5218 C.2       8 UNK         0.5000 
     31 O           0.7868  -19.3238  -45.4972 O.2       8 UNK        -0.5000 
     32 CA          2.1624  -17.8671  -44.1782 C.3       8 UNK         0.1400 
     33 CB          2.4870  -16.7516  -45.1813 C.3       8 UNK        -0.1800 
     34 N           2.1739  -17.2980  -42.8312 N.am      8 UNK        -0.5000 
     35 C           2.4390  -17.9676  -41.7015 C.2       7 UNK         0.5000 
     36 O           2.6365  -19.1829  -41.6654 O.2       7 UNK        -0.5000 
     37 CA          2.4686  -17.1277  -40.4028 C.3       7 UNK         0.1400 
     38 CB          3.3552  -17.7468  -39.3030 C.3       7 UNK        -0.1800 
     39 N           2.8202  -15.7216  -40.6477 N.am      7 UNK        -0.5000 
     40 C           3.9677  -15.2422  -41.1547 C.2       6 UNK         0.5000 
     41 O           4.9764  -15.9254  -41.3333 O.2       6 UNK        -0.5000 
     42 CA          3.9809  -13.7632  -41.5876 C.3       6 UNK         0.1400 
     43 CB          4.2266  -13.6559  -43.1015 C.3       6 UNK        -0.1800 
     44 N           2.7205  -13.0808  -41.2795 N.am      6 UNK        -0.5000 
     45 C           2.5921  -12.0551  -40.4267 C.2       5 UNK         0.5000 
     46 O           3.5334  -11.5457  -39.8173 O.2       5 UNK        -0.5000 
     47 CA          1.1679  -11.5072  -40.2032 C.3       5 UNK         0.1400 
     48 CB          0.8934  -10.3292  -41.1499 C.3       5 UNK        -0.1800 
     49 N           0.1220  -12.5183  -40.3769 N.am      5 UNK        -0.5000 
     50 C          -0.0475  -13.5839  -39.5805 C.2       4 UNK         0.5000 
     51 O           0.6419  -13.8043  -38.5851 O.2       4 UNK        -0.5000 
     52 CA         -1.1398  -14.6001  -39.9691 C.3       4 UNK         0.1400 
     53 CB         -2.3824  -14.4166  -39.0851 C.3       4 UNK        -0.1800 
     54 N          -1.5517  -14.5593  -41.3746 N.am      4 UNK        -0.5000 
     55 C          -0.7653  -14.7790  -42.4359 C.2       3 UNK         0.5000 
     56 O           0.4481  -14.9903  -42.3529 O.2       3 UNK        -0.5000 
     57 CA         -1.4414  -14.7859  -43.8206 C.3       3 UNK         0.1400 
     58 CB         -2.9191  -14.3344  -43.8227 C.3       3 UNK        -0.1800 
     59 N          -0.6689  -14.0364  -44.8078 N.am      3 UNK        -0.5000 
     60 C          -0.3685  -12.7294  -44.7912 C.2       2 UNK         0.5000 
     61 O          -0.7151  -11.9641  -43.8903 O.2       2 UNK        -0.5000 
     62 CA          0.4630  -12.1753  -45.9700 C.3       2 UNK         0.1400 
     63 CB          1.8264  -11.6651  -45.4779 C.3       2 UNK        -0.1800 
     64 N           0.6908  -13.1573  -47.0347 N.am      2 UNK        -0.5000 
     65 C          -0.2042  -13.5046  -47.9712 C.2       1 UNK         0.5000 
     66 O          -1.2977  -12.9503  -48.0984 O.2       1 UNK        -0.5000 
     67 C          -0.9550  -22.9228  -47.5565 C.2       11 UNK         0.5000 
     68 O          -1.1900  -23.9952  -48.1100 O.2       11 UNK        -0.5000 
     69 N          -1.8856  -21.9875  -47.3178 N.am      12 UNK        -0.5000 
     70 CA         -3.2888  -22.1117  -47.7101 C.3       12 UNK         0.1400 
     71 CB         -4.0127  -20.7768  -47.4860 C.3       12 UNK        -0.1800 
     72 C          -4.0088  -23.2629  -46.9890 C.2       12 UNK         0.5000 
     73 O          -4.8273  -23.9390  -47.6116 O.2       12 UNK        -0.5000 
     74 N          -3.6650  -23.4898  -45.7147 N.am      13 UNK        -0.5000 
     75 CA         -4.1615  -24.6092  -44.9174 C.3       13 UNK         0.1400 
     76 CB         -3.7395  -24.4228  -43.4522 C.3       13 UNK        -0.1800 
     77 C          -3.6947  -25.9757  -45.4557 C.2       13 UNK         0.5000 
     78 O          -4.5178  -26.8800  -45.6016 O.2       13 UNK        -0.5000 
     79 N          -2.3923  -26.1016  -45.7473 N.am      14 UNK        -0.5000 
     80 CA         -1.7742  -27.3403  -46.2217 C.3       14 UNK         0.1400 
     81 CB         -0.2510  -27.2568  -46.0394 C.3       14 UNK        -0.1800 
     82 C          -2.1194  -27.6696  -47.6838 C.2       14 UNK         0.5000 
     83 O          -2.4177  -28.8245  -47.9905 O.2       14 UNK        -0.5000 
     84 N          -2.0606  -26.6592  -48.5605 N.am      15 UNK        -0.5000 
     85 CA         -2.2307  -26.8092  -50.0075 C.3       15 UNK         0.1400 
     86 CB         -1.3518  -25.7675  -50.7161 C.3       15 UNK        -0.1800 
     87 C          -3.6970  -26.7055  -50.4719 C.2       15 UNK         0.5000 
     88 O          -3.9491  -26.8437  -51.6688 O.2       15 UNK        -0.5000 
     89 N          -4.6279  -26.4664  -49.5358 N.am      16 UNK        -0.5000 
     90 CA         -6.0758  -26.3361  -49.7309 C.3       16 UNK         0.1400 
     91 CB         -6.6914  -27.6600  -50.2313 C.3       16 UNK        -0.1800 
     92 C          -6.4364  -25.1220  -50.6107 C.2       16 UNK         0.5000 
     93 O          -7.0272  -25.2716  -51.6819 O.2       16 UNK        -0.5000 
     94 N          -6.0579  -23.9356  -50.1166 N.am      17 UNK        -0.5000 
     95 CA         -6.3210  -22.6044  -50.6744 C.3       17 UNK         0.1400 
     96 CB         -7.8338  -22.3018  -50.6930 C.3       17 UNK        -0.1800 
     97 C          -5.6402  -22.3434  -52.0342 C.2       17 UNK         0.5000 
     98 O          -6.1480  -21.5567  -52.8355 O.2       17 UNK        -0.5000 
     99 N          -4.4684  -22.9598  -52.2555 N.am      18 UNK        -0.5000 
    100 CA        -3.6615  -22.8252  -53.4770 C.3       18 UNK         0.1400 
    101 CB        -2.4806  -23.8011  -53.4252 C.3       18 UNK        -0.1800 
    102 C         -3.1573  -21.3959  -53.7598 C.2       18 UNK         0.5000 
    103 O         -2.8090  -21.0958  -54.9009 O.2       18 UNK        -0.5000 
    104 N         -3.1820  -20.5204  -52.7440 N.am      19 UNK        -0.5000 
    105 CA        -2.9245  -19.0823  -52.8544 C.3       19 UNK         0.1400 
    106 CB        -3.0238  -18.4469  -51.4599 C.3       19 UNK        -0.1800 
    107 C         -3.8492  -18.3598  -53.8561 C.2       19 UNK         0.5000 
    108 O         -3.4407  -17.3508  -54.4310 O.2       19 UNK        -0.5000 
    109 N         -5.0463  -18.9149  -54.0993 N.am      20 UNK        -0.5000 
    110 CA        -5.9899  -18.4545  -55.1185 C.3       20 UNK         0.1400 
    111 CB        -7.3268  -19.1865  -54.9281 C.3       20 UNK        -0.1800 
    112 C         -5.4820  -18.6296  -56.5659 C.2       20 UNK         0.5000 
    113 O         -5.9434  -17.9035  -57.4472 O.2       20 UNK        -0.5000 
    114 N         -4.5486  -19.5675  -56.7966 N.am      21 UNK        -0.5000 
    115 CA        -3.9022  -19.7700  -58.0960 C.3       21 UNK         0.1400 
    116 CB        -3.3069  -21.1847  -58.1686 C.3       21 UNK        -0.1800 
    117 C         -2.8199  -18.7093  -58.3682 C.2       21 UNK         0.5000 
    118 O         -2.6481  -18.3004  -59.5173 O.2       21 UNK        -0.5000 
    119 N         -2.1261  -18.2741  -57.3085 N.am      22 UNK        -0.5000 
    120 CA        -1.1877  -17.1434  -57.3378 C.3       22 UNK         0.1400 
    121 C         -1.9233  -15.7754  -57.3847 C.2       22 UNK         0.5000 
    122 N         -2.9498  -15.5625  -56.5711 N.am      22 UNK        -0.7600 
    123 O         -1.5605  -14.9013  -58.1670 O.2       22 UNK        -0.5000 
    124 C124       -0.1983  -17.1900  -56.1478 C.3       23 UNK        -0.0398 
    125 S125        1.1289  -18.4265  -56.3717 S.3       23 UNK        -0.2404 
    126 C126        0.6237  -19.7902  -55.2645 C.3       23 UNK        -0.0205 
    127 H127       -2.5166  -17.6758  -48.5544 H         1 UNK         0.0600 
    128 H128       -2.7368  -17.4638  -46.8154 H         1 UNK         0.0600 
    129 H129       -1.5023  -18.5754  -47.4199 H         1 UNK         0.0600 
    130 H130       -1.4153  -15.9757  -49.4858 H         1 UNK         0.3000 
    131 H131       -0.0216  -14.3139  -49.9145 H         1 UNK         0.0600 
    132 H132        2.2888  -14.3257  -49.1510 H         1 UNK         0.0800 
    133 H133        1.9208  -15.3408  -47.7846 H         1 UNK         0.0800 
    134 H134        0.1266  -16.2686  -51.0819 H         1 UNK         0.0800 
    135 H135        1.5897  -16.0134  -51.9930 H         1 UNK         0.0800 
    136 H136        1.1955  -17.4278  -53.8352 H         1 UNK         0.1150 
    137 H137        0.2493  -21.5823  -53.3106 H         1 UNK         0.1150 
    138 H138        0.5810  -19.0042  -49.9120 H         1 UNK         0.1150 
    139 H139       -0.7235  -21.3124  -49.9363 H         1 UNK         0.0800 
    140 H140       -0.2481  -22.4473  -51.1658 H         1 UNK         0.0800 
    141 H141        2.0856  -21.2237  -47.4758 H         1 UNK         0.0800 
    142 H142        0.5440  -20.6189  -47.9956 H         1 UNK         0.0800 
    143 H143        1.0546  -23.5336  -47.1577 H         1 UNK         0.0600 
    144 H144        0.6717  -21.3012  -45.4122 H         1 UNK         0.3000 
    145 H145       -0.8178  -23.0771  -42.7064 H         1 UNK         0.0600 
    146 H146        1.2041  -22.4217  -41.4341 H         1 UNK         0.0600 
    147 H147        1.5700  -23.7960  -42.4653 H         1 UNK         0.0600 
    148 H148        2.1074  -22.1849  -42.9294 H         1 UNK         0.0600 
    149 H149        0.3150  -20.4953  -42.7918 H         1 UNK         0.3000 
    150 H150       -1.9613  -18.7215  -44.7173 H         1 UNK         0.0600 
    151 H151       -3.3901  -18.9419  -42.6583 H         1 UNK         0.0600 
    152 H152       -2.5445  -17.4077  -42.6985 H         1 UNK         0.0600 
    153 H153       -1.9699  -18.7018  -41.6486 H         1 UNK         0.0600 
    154 H154       -0.0371  -17.7595  -42.8998 H         1 UNK         0.3000 
    155 H155        2.9492  -18.6209  -44.2499 H         1 UNK         0.0600 
    156 H156        3.5004  -16.3776  -45.0360 H         1 UNK         0.0600 
    157 H157        1.8036  -15.9084  -45.0792 H         1 UNK         0.0600 
    158 H158        2.4187  -17.1157  -46.2073 H         1 UNK         0.0600 
    159 H159        1.9303  -16.3165  -42.7542 H         1 UNK         0.3000 
    160 H160        1.4437  -17.1196  -40.0298 H         1 UNK         0.0600 
    161 H161        4.3863  -17.8733  -39.6334 H         1 UNK         0.0600 
    162 H162        2.9851  -18.7304  -39.0118 H         1 UNK         0.0600 
    163 H163        3.3626  -17.1259  -38.4072 H         1 UNK         0.0600 
    164 H164        2.0602  -15.0657  -40.5419 H         1 UNK         0.3000 
    165 H165        4.8177  -13.2898  -41.0704 H         1 UNK         0.0600 
    166 H166        3.4362  -14.1475  -43.6697 H         1 UNK         0.0600 
    167 H167        4.2745  -12.6141  -43.4183 H         1 UNK         0.0600 
    168 H168        5.1716  -14.1221  -43.3829 H         1 UNK         0.0600 
    169 H169        1.8910  -13.4355  -41.7408 H         1 UNK         0.3000 
    170 H170        1.1125  -11.1397  -39.1764 H         1 UNK         0.0600 
    171 H171        1.6231   -9.5320  -41.0023 H         1 UNK         0.0600 
    172 H172        0.9483  -10.6329  -42.1957 H         1 UNK         0.0600 
    173 H173       -0.0941   -9.9021  -40.9753 H         1 UNK         0.0600 
    174 H174       -0.4759  -12.4184  -41.1858 H         1 UNK         0.3000 
    175 H175       -0.7319  -15.5949  -39.7788 H         1 UNK         0.0600 
    176 H176       -2.8565  -13.4490  -39.2549 H         1 UNK         0.0600 
    177 H177       -3.1230  -15.1931  -39.2779 H         1 UNK         0.0600 
    178 H178       -2.1233  -14.4740  -38.0269 H         1 UNK         0.0600 
    179 H179       -2.5299  -14.3729  -41.5419 H         1 UNK         0.3000 
    180 H180       -1.4200  -15.8225  -44.1552 H         1 UNK         0.0600 
    181 H181       -3.0395  -13.3157  -43.4522 H         1 UNK         0.0600 
    182 H182       -3.5378  -14.9907  -43.2096 H         1 UNK         0.0600 
    183 H183       -3.3304  -14.3668  -44.8319 H         1 UNK         0.0600 
    184 H184       -0.3259  -14.6043  -45.5767 H         1 UNK         0.3000 
    185 H185       -0.0880  -11.3276  -46.3822 H         1 UNK         0.0600 
    186 H186        2.3861  -11.1942  -46.2862 H         1 UNK         0.0600 
    187 H187        1.7099  -10.9205  -44.6893 H         1 UNK         0.0600 
    188 H188        2.4335  -12.4758  -45.0778 H         1 UNK         0.0600 
    189 H189        1.5618  -13.6638  -46.9830 H         1 UNK         0.3000 
    190 H190       -1.6311  -21.1669  -46.7883 H         1 UNK         0.3000 
    191 H191       -3.3159  -22.3333  -48.7792 H         1 UNK         0.0600 
    192 H192       -3.5971  -19.9952  -48.1210 H         1 UNK         0.0600 
    193 H193       -5.0728  -20.8591  -47.7293 H         1 UNK         0.0600 
    194 H194       -3.9396  -20.4458  -46.4494 H         1 UNK         0.0600 
    195 H195       -3.0246  -22.8457  -45.2621 H         1 UNK         0.3000 
    196 H196       -5.2527  -24.5888  -44.9588 H         1 UNK         0.0600 
    197 H197       -4.1584  -25.2095  -42.8236 H         1 UNK         0.0600 
    198 H198       -4.0894  -23.4685  -43.0580 H         1 UNK         0.0600 
    199 H199       -2.6564  -24.4554  -43.3381 H         1 UNK         0.0600 
    200 H200       -1.7651  -25.3200  -45.5811 H         1 UNK         0.3000 
    201 H201       -2.1389  -28.1621  -45.6017 H         1 UNK         0.0600 
    202 H202        0.0124  -27.1099  -44.9918 H         1 UNK         0.0600 
    203 H203        0.1778  -26.4321  -46.6105 H         1 UNK         0.0600 
    204 H204        0.2349  -28.1752  -46.3712 H         1 UNK         0.0600 
    205 H205       -1.7953  -25.7301  -48.2374 H         1 UNK         0.3000 
    206 H206       -1.8711  -27.7963  -50.3054 H         1 UNK         0.0600 
    207 H207       -0.3263  -25.7949  -50.3471 H         1 UNK         0.0600 
    208 H208       -1.3116  -25.9578  -51.7885 H         1 UNK         0.0600 
    209 H209       -1.7329  -24.7571  -50.5688 H         1 UNK         0.0600 
    210 H210       -4.3036  -26.3286  -48.5883 H         1 UNK         0.3000 
    211 H211       -6.4982  -26.1380  -48.7444 H         1 UNK         0.0600 
    212 H212       -6.3455  -27.9226  -51.2313 H         1 UNK         0.0600 
    213 H213       -7.7790  -27.5900  -50.2724 H         1 UNK         0.0600 
    214 H214       -6.4442  -28.4855  -49.5638 H         1 UNK         0.0600 
    215 H215       -5.5834  -23.9447  -49.2138 H         1 UNK         0.3000 
    216 H216       -5.8631  -21.8992  -49.9799 H         1 UNK         0.0600 
    217 H217       -8.2824  -22.4736  -49.7145 H         1 UNK         0.0600 
    218 H218       -8.3623  -22.9207  -51.4186 H         1 UNK         0.0600 
    219 H219       -8.0225  -21.2601  -50.9554 H         1 UNK         0.0600 
    220 H220       -4.1343  -23.6100  -51.5600 H         1 UNK         0.3000 
    221 H221       -4.2969  -23.1091  -54.3184 H         1 UNK         0.0600 
    222 H222       -1.7994  -23.5607  -52.6104 H         1 UNK         0.0600 
    223 H223       -2.8244  -24.8273  -53.2980 H         1 UNK         0.0600 
    224 H224       -1.9046  -23.7670  -54.3511 H         1 UNK         0.0600 
    225 H225       -3.4872  -20.8547  -51.8437 H         1 UNK         0.3000 
    226 H226       -1.9058  -18.9535  -53.2167 H         1 UNK         0.0600 
    227 H227       -2.3182  -18.9061  -50.7676 H         1 UNK         0.0600 
    228 H228       -2.7914  -17.3819  -51.5000 H         1 UNK         0.0600 
    229 H229       -4.0247  -18.5513  -51.0396 H         1 UNK         0.0600 
    230 H230       -5.3074  -19.7569  -53.5977 H         1 UNK         0.3000 
    231 H231       -6.1594  -17.3877  -54.9586 H         1 UNK         0.0600 
    232 H232       -8.0744  -18.8274  -55.6365 H         1 UNK         0.0600 
    233 H233       -7.7256  -19.0279  -53.9259 H         1 UNK         0.0600 
    234 H234       -7.2202  -20.2615  -55.0796 H         1 UNK         0.0600 
    235 H235       -4.1893  -20.1178  -56.0242 H         1 UNK         0.3000 
    236 H236       -4.6594  -19.6871  -58.8788 H         1 UNK         0.0600 
    237 H237       -4.0557  -21.9429  -57.9391 H         1 UNK         0.0600 
    238 H238       -2.9285  -21.3928  -59.1700 H         1 UNK         0.0600 
    239 H239       -2.4746  -21.3121  -57.4763 H         1 UNK         0.0600 
    240 H240       -2.3536  -18.6487  -56.3999 H         1 UNK         0.3000 
    241 H241       -0.6032  -17.2114  -58.2579 H         1 UNK         0.0600 
    242 H242       -3.4317  -14.6786  -56.6036 H         1 UNK         0.3800 
    243 H243       -3.2070  -16.2486  -55.8643 H         1 UNK         0.3800 
    244 H244       -0.7361  -17.3660  -55.2155 H         1 UNK         0.0800 
    245 H245        0.3027  -16.2277  -56.0261 H         1 UNK         0.0800 
    246 H246       -0.3986  -20.0761  -55.5140 H         1 UNK         0.0800 
    247 H247        1.2470  -20.6532  -55.5023 H         1 UNK         0.0800 
@<TRIPOS>BOND
     1    1    2 1    
     2    1  127 1    
     3    1  128 1    
     4    1  129 1    
     5    2    3 2    
     6    2    4 am   BACKBONE|DICT|INTERRES
     7    4    5 1    
     8    4  130 1    
     9    5    6 1    
    10    5   65 1    
    11    5  131 1    
    12    6    7 1    
    13    6  132 1    
    14    6  133 1    
    15    7    8 1    
    16    8    9 1    
    17    8  134 1    
    18    8  135 1    
    19    9   10 ar   
    20    9   14 ar   
    21   10   11 ar   
    22   10  136 1    
    23   11   12 ar   
    24   11  126 1    
    25   12   13 ar   
    26   12  137 1    
    27   13   14 ar   
    28   13   15 1    
    29   14  138 1    
    30   15   16 1    
    31   15  139 1    
    32   15  140 1    
    33   16   17 1    
    34   17   18 1    
    35   17  141 1    
    36   17  142 1    
    37   18   19 1    
    38   18   67 1    
    39   18  143 1    
    40   19   20 am   BACKBONE|DICT|INTERRES
    41   19  144 1    
    42   20   21 2    
    43   20   22 1    
    44   22   23 1    
    45   22   24 1    
    46   22  145 1    
    47   23  146 1    
    48   23  147 1    
    49   23  148 1    
    50   24   25 am   BACKBONE|DICT|INTERRES
    51   24  149 1    
    52   25   26 2    
    53   25   27 1    
    54   27   28 1    
    55   27   29 1    
    56   27  150 1    
    57   28  151 1    
    58   28  152 1    
    59   28  153 1    
    60   29   30 am   BACKBONE|DICT|INTERRES
    61   29  154 1    
    62   30   31 2    
    63   30   32 1    
    64   32   33 1    
    65   32   34 1    
    66   32  155 1    
    67   33  156 1    
    68   33  157 1    
    69   33  158 1    
    70   34   35 am   BACKBONE|DICT|INTERRES
    71   34  159 1    
    72   35   36 2    
    73   35   37 1    
    74   37   38 1    
    75   37   39 1    
    76   37  160 1    
    77   38  161 1    
    78   38  162 1    
    79   38  163 1    
    80   39   40 am   BACKBONE|DICT|INTERRES
    81   39  164 1    
    82   40   41 2    
    83   40   42 1    
    84   42   43 1    
    85   42   44 1    
    86   42  165 1    
    87   43  166 1    
    88   43  167 1    
    89   43  168 1    
    90   44   45 am   BACKBONE|DICT|INTERRES
    91   44  169 1    
    92   45   46 2    
    93   45   47 1    
    94   47   48 1    
    95   47   49 1    
    96   47  170 1    
    97   48  171 1    
    98   48  172 1    
    99   48  173 1    
   100   49   50 am   BACKBONE|DICT|INTERRES
   101   49  174 1    
   102   50   51 2    
   103   50   52 1    
   104   52   53 1    
   105   52   54 1    
   106   52  175 1    
   107   53  176 1    
   108   53  177 1    
   109   53  178 1    
   110   54   55 am   BACKBONE|DICT|INTERRES
   111   54  179 1    
   112   55   56 2    
   113   55   57 1    
   114   57   58 1    
   115   57   59 1    
   116   57  180 1    
   117   58  181 1    
   118   58  182 1    
   119   58  183 1    
   120   59   60 am   BACKBONE|DICT|INTERRES
   121   59  184 1    
   122   60   61 2    
   123   60   62 1    
   124   62   63 1    
   125   62   64 1    
   126   62  185 1    
   127   63  186 1    
   128   63  187 1    
   129   63  188 1    
   130   64   65 am   BACKBONE|DICT|INTERRES
   131   64  189 1    
   132   65   66 2    
   133   67   68 2    
   134   67   69 am   BACKBONE|DICT|INTERRES
   135   69   70 1    
   136   69  190 1    
   137   70   71 1    
   138   70   72 1    
   139   70  191 1    
   140   71  192 1    
   141   71  193 1    
   142   71  194 1    
   143   72   73 2    
   144   72   74 am   BACKBONE|DICT|INTERRES
   145   74   75 1    
   146   74  195 1    
   147   75   76 1    
   148   75   77 1    
   149   75  196 1    
   150   76  197 1    
   151   76  198 1    
   152   76  199 1    
   153   77   78 2    
   154   77   79 am   BACKBONE|DICT|INTERRES
   155   79   80 1    
   156   79  200 1    
   157   80   81 1    
   158   80   82 1    
   159   80  201 1    
   160   81  202 1    
   161   81  203 1    
   162   81  204 1    
   163   82   83 2    
   164   82   84 am   BACKBONE|DICT|INTERRES
   165   84   85 1    
   166   84  205 1    
   167   85   86 1    
   168   85   87 1    
   169   85  206 1    
   170   86  207 1    
   171   86  208 1    
   172   86  209 1    
   173   87   88 2    
   174   87   89 am   BACKBONE|DICT|INTERRES
   175   89   90 1    
   176   89  210 1    
   177   90   91 1    
   178   90   92 1    
   179   90  211 1    
   180   91  212 1    
   181   91  213 1    
   182   91  214 1    
   183   92   93 2    
   184   92   94 am   BACKBONE|DICT|INTERRES
   185   94   95 1    
   186   94  215 1    
   187   95   96 1    
   188   95   97 1    
   189   95  216 1    
   190   96  217 1    
   191   96  218 1    
   192   96  219 1    
   193   97   98 2    
   194   97   99 am   BACKBONE|DICT|INTERRES
   195   99  100 1    
   196   99  220 1    
   197  100  101 1    
   198  100  102 1    
   199  100  221 1    
   200  101  222 1    
   201  101  223 1    
   202  101  224 1    
   203  102  103 2    
   204  102  104 am   BACKBONE|DICT|INTERRES
   205  104  105 1    
   206  104  225 1    
   207  105  106 1    
   208  105  107 1    
   209  105  226 1    
   210  106  227 1    
   211  106  228 1    
   212  106  229 1    
   213  107  108 2    
   214  107  109 am   BACKBONE|DICT|INTERRES
   215  109  110 1    
   216  109  230 1    
   217  110  111 1    
   218  110  112 1    
   219  110  231 1    
   220  111  232 1    
   221  111  233 1    
   222  111  234 1    
   223  112  113 2    
   224  112  114 am   BACKBONE|DICT|INTERRES
   225  114  115 1    
   226  114  235 1    
   227  115  116 1    
   228  115  117 1    
   229  115  236 1    
   230  116  237 1    
   231  116  238 1    
   232  116  239 1    
   233  117  118 2    
   234  117  119 am   BACKBONE|DICT|INTERRES
   235  119  120 1    
   236  119  240 1    
   237  120  121 1    
   238  120  124 1    
   239  120  241 1    
   240  121  122 am   BACKBONE|DICT|INTERRES
   241  121  123 2    
   242  122  242 1    
   243  122  243 1    
   244  124  125 1    
   245  124  244 1    
   246  124  245 1    
   247  125  126 1    
   248  126  246 1    
   249  126  247 1    
@<TRIPOS>SUBSTRUCTURE
     1 UNK         1 GROUP             0       ****    0 ROOT    
