@<TRIPOS>MOLECULE
3R540
247   249    1
SMALL
USER_CHARGES


@<TRIPOS>ATOM
      1 CA          2.7582  -10.2467  -53.2065 C.3       0 UNK        -0.1800 
      2 C           2.8997  -10.3766  -51.6967 C.2       0 UNK         0.5000 
      3 O           2.6329   -9.4199  -50.9699 O.2       0 UNK        -0.5000 
      4 N           3.3031  -11.5603  -51.2192 N.am      1 UNK        -0.5000 
      5 CA          3.5090  -11.8796  -49.7998 C.3       1 UNK         0.1400 
      6 C6          4.6245  -12.9408  -49.6022 C.3       23 UNK        -0.0398 
      7 S7          4.2755  -14.5518  -50.3928 S.3       23 UNK        -0.2404 
      8 C8          3.8584  -15.5846  -48.9509 C.3       23 UNK        -0.0205 
      9 C9          2.7429  -16.5549  -49.2947 C.ar      23 UNK        -0.0193 
     10 C10         1.4138  -16.1318  -49.2393 C.ar      23 UNK        -0.1150 
     11 C11         0.3753  -16.9997  -49.5835 C.ar      23 UNK        -0.0193 
     12 C12         0.6740  -18.3099  -49.9718 C.ar      23 UNK        -0.1150 
     13 C13         2.0016  -18.7510  -50.0093 C.ar      23 UNK        -0.0193 
     14 C14         3.0317  -17.8672  -49.6739 C.ar      23 UNK        -0.1150 
     15 C15         2.3369  -20.1768  -50.4172 C.3       23 UNK        -0.0205 
     16 S16         2.4181  -21.2842  -48.9733 S.3       23 UNK        -0.2404 
     17 C17         0.6512  -21.6522  -48.7359 C.3       23 UNK        -0.0398 
     18 CA          0.4189  -22.8489  -47.7850 C.3       11 UNK         0.1400 
     19 N           0.6723  -22.5073  -46.3840 N.am      11 UNK        -0.5000 
     20 C           0.6886  -23.3918  -45.3772 C.2       10 UNK         0.5000 
     21 O           0.5338  -24.6049  -45.5262 O.2       10 UNK        -0.5000 
     22 CA          0.8532  -22.8191  -43.9585 C.3       10 UNK         0.1400 
     23 CB          2.3124  -22.4211  -43.6904 C.3       10 UNK        -0.1800 
     24 N          -0.0298  -21.6789  -43.7046 N.am      10 UNK        -0.5000 
     25 C          -1.3696  -21.7431  -43.7260 C.2       9 UNK         0.5000 
     26 O          -2.0022  -22.7753  -43.9425 O.2       9 UNK        -0.5000 
     27 CA         -2.1400  -20.4320  -43.5029 C.3       9 UNK         0.1400 
     28 CB         -2.1944  -20.0821  -42.0084 C.3       9 UNK        -0.1800 
     29 N          -1.5817  -19.3101  -44.2542 N.am      9 UNK        -0.5000 
     30 C          -1.5089  -19.2454  -45.5915 C.2       8 UNK         0.5000 
     31 O          -1.9236  -20.1219  -46.3488 O.2       8 UNK        -0.5000 
     32 CA         -0.7991  -18.0173  -46.1821 C.3       8 UNK         0.1400 
     33 CB         -1.6887  -16.7682  -46.0829 C.3       8 UNK        -0.1800 
     34 N           0.4895  -17.7561  -45.5457 N.am      8 UNK        -0.5000 
     35 C           1.5114  -18.6234  -45.5008 C.2       7 UNK         0.5000 
     36 O           1.4934  -19.7428  -46.0111 O.2       7 UNK        -0.5000 
     37 CA          2.7361  -18.1858  -44.6838 C.3       7 UNK         0.1400 
     38 CB          3.6215  -17.2267  -45.4948 C.3       7 UNK        -0.1800 
     39 N           2.3390  -17.5587  -43.4221 N.am      7 UNK        -0.5000 
     40 C           1.7649  -18.2153  -42.4028 C.2       6 UNK         0.5000 
     41 O           1.5521  -19.4280  -42.4012 O.2       6 UNK        -0.5000 
     42 CA          1.3161  -17.3651  -41.1999 C.3       6 UNK         0.1400 
     43 CB          2.5066  -17.0466  -40.2831 C.3       6 UNK        -0.1800 
     44 N           0.6651  -16.1180  -41.6043 N.am      6 UNK        -0.5000 
     45 C          -0.5111  -16.0532  -42.2442 C.2       5 UNK         0.5000 
     46 O          -1.1886  -17.0399  -42.5264 O.2       5 UNK        -0.5000 
     47 CA         -0.9979  -14.6575  -42.6770 C.3       5 UNK         0.1400 
     48 CB         -1.8364  -14.0115  -41.5644 C.3       5 UNK        -0.1800 
     49 N           0.0764  -13.7403  -43.0653 N.am      5 UNK        -0.5000 
     50 C           0.9706  -13.9598  -44.0376 C.2       4 UNK         0.5000 
     51 O           1.0219  -14.9988  -44.6986 O.2       4 UNK        -0.5000 
     52 CA          1.9525  -12.8105  -44.3213 C.3       4 UNK         0.1400 
     53 CB          3.2993  -13.3203  -44.8640 C.3       4 UNK        -0.1800 
     54 N           1.3601  -11.8771  -45.2770 N.am      4 UNK        -0.5000 
     55 C           0.4448  -10.9454  -44.9690 C.2       3 UNK         0.5000 
     56 O           0.0621  -10.7325  -43.8171 O.2       3 UNK        -0.5000 
     57 CA         -0.1464  -10.1008  -46.1188 C.3       3 UNK         0.1400 
     58 CB          0.5241   -8.7192  -46.1671 C.3       3 UNK        -0.1800 
     59 N          -0.0271  -10.7261  -47.4361 N.am      3 UNK        -0.5000 
     60 C          -0.6902  -11.8197  -47.8355 C.2       2 UNK         0.5000 
     61 O          -1.5609  -12.3718  -47.1626 O.2       2 UNK        -0.5000 
     62 CA         -0.3066  -12.4134  -49.2085 C.3       2 UNK         0.1400 
     63 CB         -1.3379  -12.0101  -50.2733 C.3       2 UNK        -0.1800 
     64 N           1.0358  -12.0712  -49.7008 N.am      2 UNK        -0.5000 
     65 C           2.2010  -12.2462  -49.0573 C.2       1 UNK         0.5000 
     66 O           2.2688  -12.6696  -47.9052 O.2       1 UNK        -0.5000 
     67 C          -0.9932  -23.4332  -47.9825 C.2       11 UNK         0.5000 
     68 O          -1.1292  -24.4661  -48.6395 O.2       11 UNK        -0.5000 
     69 N          -2.0135  -22.7867  -47.4005 N.am      12 UNK        -0.5000 
     70 CA         -3.4073  -23.2185  -47.4934 C.3       12 UNK         0.1400 
     71 CB         -4.3364  -22.1418  -46.9164 C.3       12 UNK        -0.1800 
     72 C          -3.6652  -24.5812  -46.8303 C.2       12 UNK         0.5000 
     73 O          -4.3898  -25.3974  -47.3981 O.2       12 UNK        -0.5000 
     74 N          -3.0405  -24.8243  -45.6697 N.am      13 UNK        -0.5000 
     75 CA         -3.0889  -26.1013  -44.9569 C.3       13 UNK         0.1400 
     76 CB         -2.4548  -25.9432  -43.5669 C.3       13 UNK        -0.1800 
     77 C          -2.4104  -27.2436  -45.7336 C.2       13 UNK         0.5000 
     78 O          -2.9226  -28.3634  -45.7274 O.2       13 UNK        -0.5000 
     79 N          -1.2871  -26.9402  -46.3997 N.am      14 UNK        -0.5000 
     80 CA         -0.5558  -27.8792  -47.2498 C.3       14 UNK         0.1400 
     81 CB          0.8303  -27.3040  -47.5797 C.3       14 UNK        -0.1800 
     82 C          -1.3254  -28.2332  -48.5357 C.2       14 UNK         0.5000 
     83 O          -1.3745  -29.4059  -48.9095 O.2       14 UNK        -0.5000 
     84 N          -1.9143  -27.2195  -49.1844 N.am      15 UNK        -0.5000 
     85 CA         -2.6911  -27.3705  -50.4158 C.3       15 UNK         0.1400 
     86 CB         -2.8326  -25.9974  -51.0874 C.3       15 UNK        -0.1800 
     87 C          -4.0863  -27.9806  -50.1925 C.2       15 UNK         0.5000 
     88 O          -4.6001  -28.6442  -51.0937 O.2       15 UNK        -0.5000 
     89 N          -4.6809  -27.7076  -49.0211 N.am      16 UNK        -0.5000 
     90 CA         -6.0797  -27.9562  -48.6533 C.3       16 UNK         0.1400 
     91 CB         -6.3878  -29.4671  -48.5982 C.3       16 UNK        -0.1800 
     92 C          -7.0547  -27.1574  -49.5477 C.2       16 UNK         0.5000 
     93 O          -8.1058  -27.6678  -49.9401 O.2       16 UNK        -0.5000 
     94 N          -6.6674  -25.9175  -49.8697 N.am      17 UNK        -0.5000 
     95 CA         -7.3322  -25.0017  -50.7919 C.3       17 UNK         0.1400 
     96 CB         -7.1293  -25.4841  -52.2429 C.3       17 UNK        -0.1800 
     97 C          -6.7423  -23.5957  -50.5956 C.2       17 UNK         0.5000 
     98 O          -5.7761  -23.4363  -49.8456 O.2       17 UNK        -0.5000 
     99 N          -7.3060  -22.5980  -51.2888 N.am      18 UNK        -0.5000 
    100 CA        -6.8265  -21.2126  -51.3166 C.3       18 UNK         0.1400 
    101 CB        -7.9588  -20.3001  -51.8205 C.3       18 UNK        -0.1800 
    102 C         -5.5419  -21.0748  -52.1615 C.2       18 UNK         0.5000 
    103 O         -5.5772  -20.5356  -53.2703 O.2       18 UNK        -0.5000 
    104 N         -4.4350  -21.6031  -51.6245 N.am      19 UNK        -0.5000 
    105 CA        -3.0963  -21.6204  -52.2146 C.3       19 UNK         0.1400 
    106 CB        -2.1241  -22.2282  -51.1990 C.3       19 UNK        -0.1800 
    107 C         -2.6124  -20.2181  -52.6144 C.2       19 UNK         0.5000 
    108 O         -2.7536  -19.2858  -51.8204 O.2       19 UNK        -0.5000 
    109 N         -2.0929  -20.0903  -53.8431 N.am      20 UNK        -0.5000 
    110 CA        -1.6115  -18.8484  -54.4681 C.3       20 UNK         0.1400 
    111 CB        -0.3196  -18.3699  -53.7725 C.3       20 UNK        -0.1800 
    112 C         -2.6795  -17.7310  -54.5692 C.2       20 UNK         0.5000 
    113 O         -2.3254  -16.5625  -54.7298 O.2       20 UNK        -0.5000 
    114 N         -3.9634  -18.1145  -54.4721 N.am      21 UNK        -0.5000 
    115 CA        -5.1508  -17.2616  -54.3714 C.3       21 UNK         0.1400 
    116 CB        -5.3474  -16.4185  -55.6493 C.3       21 UNK        -0.1800 
    117 C         -5.1942  -16.4207  -53.0751 C.2       21 UNK         0.5000 
    118 O         -5.8363  -15.3685  -53.0564 O.2       21 UNK        -0.5000 
    119 N         -4.5362  -16.8979  -52.0104 N.am      22 UNK        -0.5000 
    120 CA        -4.4775  -16.2383  -50.6968 C.3       22 UNK         0.1400 
    121 C         -4.5423  -17.2085  -49.4848 C.2       22 UNK         0.5000 
    122 N         -4.2152  -18.4870  -49.6219 N.am      22 UNK        -0.7600 
    123 O         -4.9206  -16.7935  -48.3934 O.2       22 UNK        -0.5000 
    124 C124       -3.3083  -15.2206  -50.5844 C.3       23 UNK        -0.0398 
    125 S125       -1.6663  -15.8621  -51.0755 S.3       23 UNK        -0.2404 
    126 C126       -1.0668  -16.5285  -49.4979 C.3       23 UNK        -0.0205 
    127 H127        3.0186  -11.1730  -53.7193 H         1 UNK         0.0600 
    128 H128        3.4120   -9.4575  -53.5777 H         1 UNK         0.0600 
    129 H129        1.7311   -9.9908  -53.4668 H         1 UNK         0.0600 
    130 H130        3.4897  -12.3199  -51.8598 H         1 UNK         0.3000 
    131 H131        3.8671  -10.9730  -49.3075 H         1 UNK         0.0600 
    132 H132        4.8408  -13.0817  -48.5417 H         1 UNK         0.0800 
    133 H133        5.5537  -12.5629  -50.0305 H         1 UNK         0.0800 
    134 H134        4.7494  -16.1208  -48.6209 H         1 UNK         0.0800 
    135 H135        3.5442  -14.9695  -48.1074 H         1 UNK         0.0800 
    136 H136        1.1941  -15.1213  -48.9310 H         1 UNK         0.1150 
    137 H137       -0.1280  -18.9849  -50.2370 H         1 UNK         0.1150 
    138 H138        4.0590  -18.2013  -49.7106 H         1 UNK         0.1150 
    139 H139        1.6121  -20.5476  -51.1435 H         1 UNK         0.0800 
    140 H140        3.3032  -20.1942  -50.9235 H         1 UNK         0.0800 
    141 H141        0.2434  -21.8670  -49.7228 H         1 UNK         0.0800 
    142 H142        0.1391  -20.7596  -48.3719 H         1 UNK         0.0800 
    143 H143        1.1209  -23.6401  -48.0575 H         1 UNK         0.0600 
    144 H144        0.8423  -21.5241  -46.1830 H         1 UNK         0.3000 
    145 H145        0.5844  -23.6075  -43.2524 H         1 UNK         0.0600 
    146 H146        2.4501  -22.1051  -42.6562 H         1 UNK         0.0600 
    147 H147        2.9851  -23.2614  -43.8662 H         1 UNK         0.0600 
    148 H148        2.6333  -21.6026  -44.3350 H         1 UNK         0.0600 
    149 H149        0.4188  -20.7934  -43.4958 H         1 UNK         0.3000 
    150 H150       -3.1630  -20.5860  -43.8522 H         1 UNK         0.0600 
    151 H151       -2.6051  -20.9086  -41.4271 H         1 UNK         0.0600 
    152 H152       -2.8287  -19.2135  -41.8308 H         1 UNK         0.0600 
    153 H153       -1.2036  -19.8590  -41.6109 H         1 UNK         0.0600 
    154 H154       -1.2452  -18.5236  -43.7045 H         1 UNK         0.3000 
    155 H155       -0.5998  -18.2266  -47.2328 H         1 UNK         0.0600 
    156 H156       -1.1608  -15.8726  -46.4104 H         1 UNK         0.0600 
    157 H157       -2.5775  -16.8759  -46.7056 H         1 UNK         0.0600 
    158 H158       -2.0286  -16.5934  -45.0630 H         1 UNK         0.0600 
    159 H159        0.6143  -16.8407  -45.1222 H         1 UNK         0.3000 
    160 H160        3.3238  -19.0765  -44.4520 H         1 UNK         0.0600 
    161 H161        3.0810  -16.3274  -45.7899 H         1 UNK         0.0600 
    162 H162        3.9731  -17.7067  -46.4090 H         1 UNK         0.0600 
    163 H163        4.5003  -16.9211  -44.9272 H         1 UNK         0.0600 
    164 H164        2.4106  -16.5531  -43.3744 H         1 UNK         0.3000 
    165 H165        0.5946  -17.9535  -40.6288 H         1 UNK         0.0600 
    166 H166        2.1831  -16.5156  -39.3876 H         1 UNK         0.0600 
    167 H167        3.0020  -17.9617  -39.9558 H         1 UNK         0.0600 
    168 H168        3.2530  -16.4315  -40.7873 H         1 UNK         0.0600 
    169 H169        1.1557  -15.2578  -41.4100 H         1 UNK         0.3000 
    170 H170       -1.6395  -14.7902  -43.5497 H         1 UNK         0.0600 
    171 H171       -2.6625  -14.6608  -41.2707 H         1 UNK         0.0600 
    172 H172       -1.2396  -13.8150  -40.6728 H         1 UNK         0.0600 
    173 H173       -2.2690  -13.0668  -41.8945 H         1 UNK         0.0600 
    174 H174        0.0746  -12.8325  -42.6198 H         1 UNK         0.3000 
    175 H175        2.1544  -12.2864  -43.3848 H         1 UNK         0.0600 
    176 H176        3.7798  -13.9872  -44.1473 H         1 UNK         0.0600 
    177 H177        3.1814  -13.8751  -45.7945 H         1 UNK         0.0600 
    178 H178        3.9857  -12.4951  -45.0537 H         1 UNK         0.0600 
    179 H179        1.5989  -12.0368  -46.2526 H         1 UNK         0.3000 
    180 H180       -1.2080   -9.9584  -45.9061 H         1 UNK         0.0600 
    181 H181        1.5883   -8.7967  -46.3938 H         1 UNK         0.0600 
    182 H182        0.4289   -8.2043  -45.2101 H         1 UNK         0.0600 
    183 H183        0.0642   -8.0829  -46.9235 H         1 UNK         0.0600 
    184 H184        0.6703  -10.3432  -48.0573 H         1 UNK         0.3000 
    185 H185       -0.3467  -13.4968  -49.1009 H         1 UNK         0.0600 
    186 H186       -2.3511  -12.2553  -49.9520 H         1 UNK         0.0600 
    187 H187       -1.3077  -10.9389  -50.4759 H         1 UNK         0.0600 
    188 H188       -1.1622  -12.5368  -51.2117 H         1 UNK         0.0600 
    189 H189        1.0819  -11.7020  -50.6389 H         1 UNK         0.3000 
    190 H190       -1.8409  -21.9215  -46.8933 H         1 UNK         0.3000 
    191 H191       -3.6305  -23.3269  -48.5544 H         1 UNK         0.0600 
    192 H192       -4.1243  -21.9499  -45.8641 H         1 UNK         0.0600 
    193 H193       -5.3809  -22.4464  -46.9951 H         1 UNK         0.0600 
    194 H194       -4.2322  -21.2022  -47.4584 H         1 UNK         0.0600 
    195 H195       -2.5006  -24.0812  -45.2328 H         1 UNK         0.3000 
    196 H196       -4.1387  -26.3699  -44.8226 H         1 UNK         0.0600 
    197 H197       -2.4771  -26.8844  -43.0161 H         1 UNK         0.0600 
    198 H198       -2.9925  -25.2056  -42.9710 H         1 UNK         0.0600 
    199 H199       -1.4138  -25.6245  -43.6341 H         1 UNK         0.0600 
    200 H200       -0.9071  -26.0035  -46.3212 H         1 UNK         0.3000 
    201 H201       -0.4096  -28.8025  -46.6853 H         1 UNK         0.0600 
    202 H202        1.4076  -27.1252  -46.6724 H         1 UNK         0.0600 
    203 H203        0.7592  -26.3598  -48.1201 H         1 UNK         0.0600 
    204 H204        1.4028  -27.9953  -48.1992 H         1 UNK         0.0600 
    205 H205       -1.7747  -26.2715  -48.8438 H         1 UNK         0.3000 
    206 H206       -2.1419  -28.0270  -51.0940 H         1 UNK         0.0600 
    207 H207       -1.8566  -25.5611  -51.3010 H         1 UNK         0.0600 
    208 H208       -3.3700  -26.0750  -52.0334 H         1 UNK         0.0600 
    209 H209       -3.3843  -25.3023  -50.4530 H         1 UNK         0.0600 
    210 H210       -4.1885  -27.0936  -48.3797 H         1 UNK         0.3000 
    211 H211       -6.2015  -27.5614  -47.6438 H         1 UNK         0.0600 
    212 H212       -6.3638  -29.9259  -49.5868 H         1 UNK         0.0600 
    213 H213       -7.3793  -29.6462  -48.1810 H         1 UNK         0.0600 
    214 H214       -5.6705  -29.9914  -47.9667 H         1 UNK         0.0600 
    215 H215       -5.8303  -25.5333  -49.4442 H         1 UNK         0.3000 
    216 H216       -8.3970  -24.9645  -50.5548 H         1 UNK         0.0600 
    217 H217       -6.0709  -25.5289  -52.5032 H         1 UNK         0.0600 
    218 H218       -7.6164  -24.8196  -52.9570 H         1 UNK         0.0600 
    219 H219       -7.5505  -26.4776  -52.3969 H         1 UNK         0.0600 
    220 H220       -8.0786  -22.8100  -51.9033 H         1 UNK         0.3000 
    221 H221       -6.5833  -20.9030  -50.2976 H         1 UNK         0.0600 
    222 H222       -8.8285  -20.3536  -51.1655 H         1 UNK         0.0600 
    223 H223       -8.2796  -20.5705  -52.8273 H         1 UNK         0.0600 
    224 H224       -7.6364  -19.2581  -51.8463 H         1 UNK         0.0600 
    225 H225       -4.5441  -22.0877  -50.7408 H         1 UNK         0.3000 
    226 H226       -3.1322  -22.2598  -53.0986 H         1 UNK         0.0600 
    227 H227       -2.4429  -23.2207  -50.8903 H         1 UNK         0.0600 
    228 H228       -1.1243  -22.3235  -51.6237 H         1 UNK         0.0600 
    229 H229       -2.0534  -21.6105  -50.3027 H         1 UNK         0.0600 
    230 H230       -2.0421  -20.9118  -54.4295 H         1 UNK         0.3000 
    231 H231       -1.3543  -19.1054  -55.4965 H         1 UNK         0.0600 
    232 H232       -0.5061  -18.0588  -52.7450 H         1 UNK         0.0600 
    233 H233        0.1201  -17.5198  -54.2950 H         1 UNK         0.0600 
    234 H234        0.4322  -19.1586  -53.7493 H         1 UNK         0.0600 
    235 H235       -4.1461  -19.0995  -54.3228 H         1 UNK         0.3000 
    236 H236       -5.9980  -17.9453  -54.3039 H         1 UNK         0.0600 
    237 H237       -6.3206  -15.9265  -55.6461 H         1 UNK         0.0600 
    238 H238       -4.5909  -15.6393  -55.7436 H         1 UNK         0.0600 
    239 H239       -5.3036  -17.0405  -56.5433 H         1 UNK         0.0600 
    240 H240       -3.9907  -17.7478  -52.1015 H         1 UNK         0.3000 
    241 H241       -5.3959  -15.6574  -50.5905 H         1 UNK         0.0600 
    242 H242       -4.2736  -19.0859  -48.8158 H         1 UNK         0.3800 
    243 H243       -3.7602  -18.8254  -50.4679 H         1 UNK         0.3800 
    244 H244       -3.2527  -14.7948  -49.5809 H         1 UNK         0.0800 
    245 H245       -3.5209  -14.3757  -51.2404 H         1 UNK         0.0800 
    246 H246       -1.7000  -17.3604  -49.1926 H         1 UNK         0.0800 
    247 H247       -1.1623  -15.7619  -48.7298 H         1 UNK         0.0800 
@<TRIPOS>BOND
     1    1    2 1    
     2    1  127 1    
     3    1  128 1    
     4    1  129 1    
     5    2    3 2    
     6    2    4 am   BACKBONE|DICT|INTERRES
     7    4    5 1    
     8    4  130 1    
     9    5    6 1    
    10    5   65 1    
    11    5  131 1    
    12    6    7 1    
    13    6  132 1    
    14    6  133 1    
    15    7    8 1    
    16    8    9 1    
    17    8  134 1    
    18    8  135 1    
    19    9   10 ar   
    20    9   14 ar   
    21   10   11 ar   
    22   10  136 1    
    23   11   12 ar   
    24   11  126 1    
    25   12   13 ar   
    26   12  137 1    
    27   13   14 ar   
    28   13   15 1    
    29   14  138 1    
    30   15   16 1    
    31   15  139 1    
    32   15  140 1    
    33   16   17 1    
    34   17   18 1    
    35   17  141 1    
    36   17  142 1    
    37   18   19 1    
    38   18   67 1    
    39   18  143 1    
    40   19   20 am   BACKBONE|DICT|INTERRES
    41   19  144 1    
    42   20   21 2    
    43   20   22 1    
    44   22   23 1    
    45   22   24 1    
    46   22  145 1    
    47   23  146 1    
    48   23  147 1    
    49   23  148 1    
    50   24   25 am   BACKBONE|DICT|INTERRES
    51   24  149 1    
    52   25   26 2    
    53   25   27 1    
    54   27   28 1    
    55   27   29 1    
    56   27  150 1    
    57   28  151 1    
    58   28  152 1    
    59   28  153 1    
    60   29   30 am   BACKBONE|DICT|INTERRES
    61   29  154 1    
    62   30   31 2    
    63   30   32 1    
    64   32   33 1    
    65   32   34 1    
    66   32  155 1    
    67   33  156 1    
    68   33  157 1    
    69   33  158 1    
    70   34   35 am   BACKBONE|DICT|INTERRES
    71   34  159 1    
    72   35   36 2    
    73   35   37 1    
    74   37   38 1    
    75   37   39 1    
    76   37  160 1    
    77   38  161 1    
    78   38  162 1    
    79   38  163 1    
    80   39   40 am   BACKBONE|DICT|INTERRES
    81   39  164 1    
    82   40   41 2    
    83   40   42 1    
    84   42   43 1    
    85   42   44 1    
    86   42  165 1    
    87   43  166 1    
    88   43  167 1    
    89   43  168 1    
    90   44   45 am   BACKBONE|DICT|INTERRES
    91   44  169 1    
    92   45   46 2    
    93   45   47 1    
    94   47   48 1    
    95   47   49 1    
    96   47  170 1    
    97   48  171 1    
    98   48  172 1    
    99   48  173 1    
   100   49   50 am   BACKBONE|DICT|INTERRES
   101   49  174 1    
   102   50   51 2    
   103   50   52 1    
   104   52   53 1    
   105   52   54 1    
   106   52  175 1    
   107   53  176 1    
   108   53  177 1    
   109   53  178 1    
   110   54   55 am   BACKBONE|DICT|INTERRES
   111   54  179 1    
   112   55   56 2    
   113   55   57 1    
   114   57   58 1    
   115   57   59 1    
   116   57  180 1    
   117   58  181 1    
   118   58  182 1    
   119   58  183 1    
   120   59   60 am   BACKBONE|DICT|INTERRES
   121   59  184 1    
   122   60   61 2    
   123   60   62 1    
   124   62   63 1    
   125   62   64 1    
   126   62  185 1    
   127   63  186 1    
   128   63  187 1    
   129   63  188 1    
   130   64   65 am   BACKBONE|DICT|INTERRES
   131   64  189 1    
   132   65   66 2    
   133   67   68 2    
   134   67   69 am   BACKBONE|DICT|INTERRES
   135   69   70 1    
   136   69  190 1    
   137   70   71 1    
   138   70   72 1    
   139   70  191 1    
   140   71  192 1    
   141   71  193 1    
   142   71  194 1    
   143   72   73 2    
   144   72   74 am   BACKBONE|DICT|INTERRES
   145   74   75 1    
   146   74  195 1    
   147   75   76 1    
   148   75   77 1    
   149   75  196 1    
   150   76  197 1    
   151   76  198 1    
   152   76  199 1    
   153   77   78 2    
   154   77   79 am   BACKBONE|DICT|INTERRES
   155   79   80 1    
   156   79  200 1    
   157   80   81 1    
   158   80   82 1    
   159   80  201 1    
   160   81  202 1    
   161   81  203 1    
   162   81  204 1    
   163   82   83 2    
   164   82   84 am   BACKBONE|DICT|INTERRES
   165   84   85 1    
   166   84  205 1    
   167   85   86 1    
   168   85   87 1    
   169   85  206 1    
   170   86  207 1    
   171   86  208 1    
   172   86  209 1    
   173   87   88 2    
   174   87   89 am   BACKBONE|DICT|INTERRES
   175   89   90 1    
   176   89  210 1    
   177   90   91 1    
   178   90   92 1    
   179   90  211 1    
   180   91  212 1    
   181   91  213 1    
   182   91  214 1    
   183   92   93 2    
   184   92   94 am   BACKBONE|DICT|INTERRES
   185   94   95 1    
   186   94  215 1    
   187   95   96 1    
   188   95   97 1    
   189   95  216 1    
   190   96  217 1    
   191   96  218 1    
   192   96  219 1    
   193   97   98 2    
   194   97   99 am   BACKBONE|DICT|INTERRES
   195   99  100 1    
   196   99  220 1    
   197  100  101 1    
   198  100  102 1    
   199  100  221 1    
   200  101  222 1    
   201  101  223 1    
   202  101  224 1    
   203  102  103 2    
   204  102  104 am   BACKBONE|DICT|INTERRES
   205  104  105 1    
   206  104  225 1    
   207  105  106 1    
   208  105  107 1    
   209  105  226 1    
   210  106  227 1    
   211  106  228 1    
   212  106  229 1    
   213  107  108 2    
   214  107  109 am   BACKBONE|DICT|INTERRES
   215  109  110 1    
   216  109  230 1    
   217  110  111 1    
   218  110  112 1    
   219  110  231 1    
   220  111  232 1    
   221  111  233 1    
   222  111  234 1    
   223  112  113 2    
   224  112  114 am   BACKBONE|DICT|INTERRES
   225  114  115 1    
   226  114  235 1    
   227  115  116 1    
   228  115  117 1    
   229  115  236 1    
   230  116  237 1    
   231  116  238 1    
   232  116  239 1    
   233  117  118 2    
   234  117  119 am   BACKBONE|DICT|INTERRES
   235  119  120 1    
   236  119  240 1    
   237  120  121 1    
   238  120  124 1    
   239  120  241 1    
   240  121  122 am   BACKBONE|DICT|INTERRES
   241  121  123 2    
   242  122  242 1    
   243  122  243 1    
   244  124  125 1    
   245  124  244 1    
   246  124  245 1    
   247  125  126 1    
   248  126  246 1    
   249  126  247 1    
@<TRIPOS>SUBSTRUCTURE
     1 UNK         1 GROUP             0       ****    0 ROOT    
