@<TRIPOS>MOLECULE
3R540
247   249    1
SMALL
USER_CHARGES


@<TRIPOS>ATOM
      1 CA          3.1202  -12.4054  -49.7275 C.3       0 UNK        -0.1800 
      2 C           1.9879  -12.4748  -48.7134 C.2       0 UNK         0.5000 
      3 O           1.6712  -11.4676  -48.0797 O.2       0 UNK        -0.5000 
      4 N           1.3813  -13.6586  -48.5520 N.am      1 UNK        -0.5000 
      5 CA          0.3272  -13.9514  -47.5744 C.3       1 UNK         0.1400 
      6 C6         -0.9855  -13.1671  -47.8666 C.3       23 UNK        -0.0398 
      7 S7         -2.4577  -13.9776  -47.1537 S.3       23 UNK        -0.2404 
      8 C8         -3.5183  -14.2162  -48.6228 C.3       23 UNK        -0.0205 
      9 C9         -2.9474  -15.1269  -49.7109 C.ar      23 UNK        -0.0193 
     10 C10        -3.3484  -14.9269  -51.0364 C.ar      23 UNK        -0.1150 
     11 C11        -2.8802  -15.7590  -52.0566 C.ar      23 UNK        -0.0193 
     12 C12        -1.9969  -16.7942  -51.7492 C.ar      23 UNK        -0.1150 
     13 C13        -1.5853  -17.0099  -50.4338 C.ar      23 UNK        -0.0193 
     14 C14        -2.0677  -16.1773  -49.4193 C.ar      23 UNK        -0.1150 
     15 C15        -0.6276  -18.1490  -50.1167 C.3       23 UNK        -0.0205 
     16 S16        -1.4842  -19.7551  -50.0737 S.3       23 UNK        -0.2404 
     17 C17        -2.5672  -19.5479  -48.6190 C.3       23 UNK        -0.0398 
     18 CA         -2.4420  -20.6986  -47.5951 C.3       11 UNK         0.1400 
     19 N          -2.8227  -20.2486  -46.2535 N.am      11 UNK        -0.5000 
     20 C          -2.7706  -20.9640  -45.1234 C.2       10 UNK         0.5000 
     21 O          -2.4937  -22.1643  -45.0959 O.2       10 UNK        -0.5000 
     22 CA         -3.0823  -20.2014  -43.8150 C.3       10 UNK         0.1400 
     23 CB         -2.7768  -21.0385  -42.5606 C.3       10 UNK        -0.1800 
     24 N          -2.3445  -18.9394  -43.7219 N.am      10 UNK        -0.5000 
     25 C          -2.6338  -17.8009  -44.3678 C.2       9 UNK         0.5000 
     26 O          -3.6162  -17.6627  -45.0968 O.2       9 UNK        -0.5000 
     27 CA         -1.6050  -16.6624  -44.2393 C.3       9 UNK         0.1400 
     28 CB         -1.7675  -15.9393  -42.8937 C.3       9 UNK        -0.1800 
     29 N          -0.2351  -17.1625  -44.3909 N.am      9 UNK        -0.5000 
     30 C           0.2444  -17.6980  -45.5250 C.2       8 UNK         0.5000 
     31 O          -0.3742  -17.6919  -46.5872 O.2       8 UNK        -0.5000 
     32 CA          1.6200  -18.3834  -45.4740 C.3       8 UNK         0.1400 
     33 CB          2.7245  -17.4357  -45.9469 C.3       8 UNK        -0.1800 
     34 N           1.9451  -18.8623  -44.1332 N.am      8 UNK        -0.5000 
     35 C           1.6143  -20.0730  -43.6654 C.2       7 UNK         0.5000 
     36 O           1.0520  -20.9371  -44.3367 O.2       7 UNK        -0.5000 
     37 CA          1.9487  -20.3614  -42.1890 C.3       7 UNK         0.1400 
     38 CB          3.3622  -20.9486  -42.0604 C.3       7 UNK        -0.1800 
     39 N           1.8413  -19.1777  -41.3341 N.am      7 UNK        -0.5000 
     40 C           0.7013  -18.5157  -41.0956 C.2       6 UNK         0.5000 
     41 O          -0.3919  -18.8570  -41.5458 O.2       6 UNK        -0.5000 
     42 CA          0.8028  -17.2317  -40.2520 C.3       6 UNK         0.1400 
     43 CB          0.5671  -17.5485  -38.7680 C.3       6 UNK        -0.1800 
     44 N           2.0695  -16.5067  -40.3937 N.am      6 UNK        -0.5000 
     45 C           2.5688  -16.0090  -41.5344 C.2       5 UNK         0.5000 
     46 O           2.0404  -16.1769  -42.6361 O.2       5 UNK        -0.5000 
     47 CA          3.8507  -15.1653  -41.3836 C.3       5 UNK         0.1400 
     48 CB          4.9680  -15.9193  -40.6286 C.3       5 UNK        -0.1800 
     49 N           4.3424  -14.6013  -42.6450 N.am      5 UNK        -0.5000 
     50 C           4.9641  -15.2213  -43.6605 C.2       4 UNK         0.5000 
     51 O           5.2152  -16.4272  -43.6784 O.2       4 UNK        -0.5000 
     52 CA          5.4105  -14.3259  -44.8397 C.3       4 UNK         0.1400 
     53 CB          5.4545  -15.0685  -46.1870 C.3       4 UNK        -0.1800 
     54 N           4.5443  -13.1556  -44.9769 N.am      4 UNK        -0.5000 
     55 C           4.8450  -11.9063  -44.5946 C.2       3 UNK         0.5000 
     56 O           5.9447  -11.5738  -44.1521 O.2       3 UNK        -0.5000 
     57 CA          3.7186  -10.8532  -44.6827 C.3       3 UNK         0.1400 
     58 CB          3.8864   -9.9926  -45.9433 C.3       3 UNK        -0.1800 
     59 N           2.3761  -11.4433  -44.6696 N.am      3 UNK        -0.5000 
     60 C           1.8518  -12.1073  -43.6278 C.2       2 UNK         0.5000 
     61 O           2.4042  -12.1779  -42.5290 O.2       2 UNK        -0.5000 
     62 CA          0.5272  -12.8684  -43.8460 C.3       2 UNK         0.1400 
     63 CB         -0.6350  -12.1539  -43.1408 C.3       2 UNK        -0.1800 
     64 N           0.1580  -13.1064  -45.2453 N.am      2 UNK        -0.5000 
     65 C           0.8823  -13.7969  -46.1367 C.2       1 UNK         0.5000 
     66 O           1.9839  -14.2786  -45.8704 O.2       1 UNK        -0.5000 
     67 C          -3.2275  -21.9408  -48.0583 C.2       11 UNK         0.5000 
     68 O          -2.6365  -22.8598  -48.6224 O.2       11 UNK        -0.5000 
     69 N          -4.5364  -21.9669  -47.7686 N.am      12 UNK        -0.5000 
     70 CA         -5.4275  -23.0796  -48.0952 C.3       12 UNK         0.1400 
     71 CB         -6.8803  -22.6666  -47.8215 C.3       12 UNK        -0.1800 
     72 C          -5.0782  -24.3766  -47.3473 C.2       12 UNK         0.5000 
     73 O          -5.1765  -25.4534  -47.9349 O.2       12 UNK        -0.5000 
     74 N          -4.6463  -24.2486  -46.0853 N.am      13 UNK        -0.5000 
     75 CA         -4.1862  -25.3621  -45.2573 C.3       13 UNK         0.1400 
     76 CB         -4.2113  -24.9526  -43.7771 C.3       13 UNK        -0.1800 
     77 C          -2.7839  -25.8365  -45.6726 C.2       13 UNK         0.5000 
     78 O          -2.5444  -27.0428  -45.7122 O.2       13 UNK        -0.5000 
     79 N          -1.8990  -24.8860  -46.0076 N.am      14 UNK        -0.5000 
     80 CA         -0.5428  -25.1390  -46.4985 C.3       14 UNK         0.1400 
     81 CB          0.2324  -23.8146  -46.5669 C.3       14 UNK        -0.1800 
     82 C          -0.5283  -25.8571  -47.8613 C.2       14 UNK         0.5000 
     83 O           0.2393  -26.8028  -48.0433 O.2       14 UNK        -0.5000 
     84 N          -1.4004  -25.4184  -48.7793 N.am      15 UNK        -0.5000 
     85 CA         -1.6253  -26.0448  -50.0836 C.3       15 UNK         0.1400 
     86 CB         -2.3535  -25.0438  -50.9948 C.3       15 UNK        -0.1800 
     87 C          -2.4344  -27.3536  -49.9949 C.2       15 UNK         0.5000 
     88 O          -2.3798  -28.1556  -50.9277 O.2       15 UNK        -0.5000 
     89 N          -3.1845  -27.5245  -48.8952 N.am      16 UNK        -0.5000 
     90 CA         -4.1607  -28.5858  -48.6264 C.3       16 UNK         0.1400 
     91 CB         -3.4613  -29.9520  -48.4719 C.3       16 UNK        -0.1800 
     92 C          -5.3010  -28.5918  -49.6671 C.2       16 UNK         0.5000 
     93 O          -5.7039  -29.6530  -50.1484 O.2       16 UNK        -0.5000 
     94 N          -5.7776  -27.3899  -50.0123 N.am      17 UNK        -0.5000 
     95 CA         -6.7561  -27.1311  -51.0605 C.3       17 UNK         0.1400 
     96 CB         -6.1294  -27.3612  -52.4552 C.3       17 UNK        -0.1800 
     97 C          -7.3175  -25.7134  -50.8747 C.2       17 UNK         0.5000 
     98 O          -8.2793  -25.5346  -50.1270 O.2       17 UNK        -0.5000 
     99 N          -6.7124  -24.7349  -51.5551 N.am      18 UNK        -0.5000 
    100 CA        -7.1112  -23.3323  -51.5902 C.3       18 UNK         0.1400 
    101 CB        -8.1751  -23.1309  -52.6841 C.3       18 UNK        -0.1800 
    102 C         -5.8687  -22.4709  -51.8591 C.2       18 UNK         0.5000 
    103 O         -4.8153  -23.0075  -52.2143 O.2       18 UNK        -0.5000 
    104 N         -6.0122  -21.1488  -51.7043 N.am      19 UNK        -0.5000 
    105 CA        -4.9727  -20.1385  -51.9291 C.3       19 UNK         0.1400 
    106 CB        -5.3864  -18.8448  -51.2040 C.3       19 UNK        -0.1800 
    107 C         -4.6873  -19.9091  -53.4320 C.2       19 UNK         0.5000 
    108 O         -4.8410  -18.7979  -53.9393 O.2       19 UNK        -0.5000 
    109 N         -4.3008  -20.9823  -54.1292 N.am      20 UNK        -0.5000 
    110 CA        -4.0794  -21.0280  -55.5753 C.3       20 UNK         0.1400 
    111 CB        -4.1648  -22.4935  -56.0298 C.3       20 UNK        -0.1800 
    112 C         -2.7464  -20.4001  -56.0273 C.2       20 UNK         0.5000 
    113 O         -2.5648  -20.1774  -57.2253 O.2       20 UNK        -0.5000 
    114 N         -1.8361  -20.1283  -55.0804 N.am      21 UNK        -0.5000 
    115 CA        -0.4712  -19.6448  -55.3185 C.3       21 UNK         0.1400 
    116 CB         0.2927  -19.6220  -53.9855 C.3       21 UNK        -0.1800 
    117 C         -0.3674  -18.2832  -56.0398 C.2       21 UNK         0.5000 
    118 O          0.6752  -18.0028  -56.6332 O.2       21 UNK        -0.5000 
    119 N         -1.4384  -17.4788  -56.0067 N.am      22 UNK        -0.5000 
    120 CA        -1.5682  -16.2411  -56.7978 C.3       22 UNK         0.1400 
    121 C         -1.9103  -16.4795  -58.3002 C.2       22 UNK         0.5000 
    122 N         -2.2297  -17.6919  -58.7397 N.am      22 UNK        -0.7600 
    123 O         -1.8756  -15.5408  -59.0913 O.2       22 UNK        -0.5000 
    124 C124       -2.5613  -15.2324  -56.1631 C.3       23 UNK        -0.0398 
    125 S125       -2.0680  -14.7273  -54.4806 S.3       23 UNK        -0.2404 
    126 C126       -3.3380  -15.5693  -53.4912 C.3       23 UNK        -0.0205 
    127 H127        3.2822  -13.3640  -50.2210 H         1 UNK         0.0600 
    128 H128        4.0474  -12.1164  -49.2326 H         1 UNK         0.0600 
    129 H129        2.8939  -11.6624  -50.4922 H         1 UNK         0.0600 
    130 H130        1.7091  -14.4532  -49.0822 H         1 UNK         0.3000 
    131 H131        0.1194  -15.0154  -47.6939 H         1 UNK         0.0600 
    132 H132       -0.9301  -12.1340  -47.5200 H         1 UNK         0.0800 
    133 H133       -1.1273  -13.0952  -48.9457 H         1 UNK         0.0800 
    134 H134       -3.7451  -13.2338  -49.0402 H         1 UNK         0.0800 
    135 H135       -4.4690  -14.6368  -48.2932 H         1 UNK         0.0800 
    136 H136       -4.0370  -14.1283  -51.2746 H         1 UNK         0.1150 
    137 H137       -1.6409  -17.4382  -52.5386 H         1 UNK         0.1150 
    138 H138       -1.7621  -16.3576  -48.3994 H         1 UNK         0.1150 
    139 H139        0.1552  -18.1865  -50.8752 H         1 UNK         0.0800 
    140 H140       -0.1186  -17.9770  -49.1681 H         1 UNK         0.0800 
    141 H141       -3.5964  -19.4140  -48.9518 H         1 UNK         0.0800 
    142 H142       -2.3019  -18.6124  -48.1299 H         1 UNK         0.0800 
    143 H143       -1.3902  -20.9828  -47.5247 H         1 UNK         0.0600 
    144 H144       -3.0766  -19.2706  -46.1612 H         1 UNK         0.3000 
    145 H145       -4.1514  -19.9805  -43.8175 H         1 UNK         0.0600 
    146 H146       -3.0029  -20.4826  -41.6505 H         1 UNK         0.0600 
    147 H147       -3.3750  -21.9495  -42.5395 H         1 UNK         0.0600 
    148 H148       -1.7260  -21.3297  -42.5208 H         1 UNK         0.0600 
    149 H149       -1.5218  -18.9539  -43.1253 H         1 UNK         0.3000 
    150 H150       -1.7845  -15.9418  -45.0385 H         1 UNK         0.0600 
    151 H151       -2.6925  -15.3620  -42.8796 H         1 UNK         0.0600 
    152 H152       -0.9493  -15.2486  -42.7031 H         1 UNK         0.0600 
    153 H153       -1.8136  -16.6380  -42.0591 H         1 UNK         0.0600 
    154 H154        0.3671  -17.1327  -43.5779 H         1 UNK         0.3000 
    155 H155        1.5882  -19.2264  -46.1678 H         1 UNK         0.0600 
    156 H156        2.4908  -17.0086  -46.9230 H         1 UNK         0.0600 
    157 H157        3.6802  -17.9528  -46.0329 H         1 UNK         0.0600 
    158 H158        2.8548  -16.6127  -45.2462 H         1 UNK         0.0600 
    159 H159        2.3684  -18.1873  -43.5083 H         1 UNK         0.3000 
    160 H160        1.2339  -21.1038  -41.8275 H         1 UNK         0.0600 
    161 H161        4.1242  -20.2381  -42.3841 H         1 UNK         0.0600 
    162 H162        3.4688  -21.8458  -42.6717 H         1 UNK         0.0600 
    163 H163        3.5806  -21.2306  -41.0303 H         1 UNK         0.0600 
    164 H164        2.6964  -18.8237  -40.9314 H         1 UNK         0.3000 
    165 H165        0.0100  -16.5596  -40.5820 H         1 UNK         0.0600 
    166 H166        0.5307  -16.6377  -38.1701 H         1 UNK         0.0600 
    167 H167       -0.3824  -18.0664  -38.6249 H         1 UNK         0.0600 
    168 H168        1.3534  -18.1865  -38.3626 H         1 UNK         0.0600 
    169 H169        2.5658  -16.3219  -39.5341 H         1 UNK         0.3000 
    170 H170        3.5716  -14.3014  -40.7787 H         1 UNK         0.0600 
    171 H171        4.6844  -16.1206  -39.5954 H         1 UNK         0.0600 
    172 H172        5.1993  -16.8783  -41.0930 H         1 UNK         0.0600 
    173 H173        5.8866  -15.3332  -40.5962 H         1 UNK         0.0600 
    174 H174        4.1256  -13.6212  -42.7707 H         1 UNK         0.3000 
    175 H175        6.4306  -14.0136  -44.6090 H         1 UNK         0.0600 
    176 H176        4.4582  -15.3473  -46.5263 H         1 UNK         0.0600 
    177 H177        5.8987  -14.4414  -46.9600 H         1 UNK         0.0600 
    178 H178        6.0541  -15.9773  -46.1263 H         1 UNK         0.0600 
    179 H179        3.6020  -13.3583  -45.3021 H         1 UNK         0.3000 
    180 H180        3.8062  -10.2015  -43.8109 H         1 UNK         0.0600 
    181 H181        4.8352   -9.4550  -45.9226 H         1 UNK         0.0600 
    182 H182        3.0932   -9.2495  -46.0270 H         1 UNK         0.0600 
    183 H183        3.8773  -10.5998  -46.8486 H         1 UNK         0.0600 
    184 H184        1.8741  -11.4437  -45.5476 H         1 UNK         0.3000 
    185 H185        0.6655  -13.8454  -43.3818 H         1 UNK         0.0600 
    186 H186       -0.4179  -12.0024  -42.0826 H         1 UNK         0.0600 
    187 H187       -0.8288  -11.1748  -43.5804 H         1 UNK         0.0600 
    188 H188       -1.5537  -12.7377  -43.2012 H         1 UNK         0.0600 
    189 H189       -0.7379  -12.7422  -45.5361 H         1 UNK         0.3000 
    190 H190       -4.9420  -21.1826  -47.2793 H         1 UNK         0.3000 
    191 H191       -5.3214  -23.2888  -49.1600 H         1 UNK         0.0600 
    192 H192       -7.1610  -21.7940  -48.4114 H         1 UNK         0.0600 
    193 H193       -7.5698  -23.4711  -48.0817 H         1 UNK         0.0600 
    194 H194       -7.0396  -22.4260  -46.7697 H         1 UNK         0.0600 
    195 H195       -4.5332  -23.3218  -45.7007 H         1 UNK         0.3000 
    196 H196       -4.8768  -26.1984  -45.3871 H         1 UNK         0.0600 
    197 H197       -3.9331  -25.7917  -43.1383 H         1 UNK         0.0600 
    198 H198       -5.2065  -24.6282  -43.4729 H         1 UNK         0.0600 
    199 H199       -3.5142  -24.1410  -43.5697 H         1 UNK         0.0600 
    200 H200       -2.1651  -23.9125  -45.8889 H         1 UNK         0.3000 
    201 H201       -0.0436  -25.7867  -45.7749 H         1 UNK         0.0600 
    202 H202        0.2589  -23.3229  -45.5942 H         1 UNK         0.0600 
    203 H203       -0.2151  -23.1207  -47.2782 H         1 UNK         0.0600 
    204 H204        1.2647  -23.9816  -46.8763 H         1 UNK         0.0600 
    205 H205       -1.9442  -24.5805  -48.5818 H         1 UNK         0.3000 
    206 H206       -0.6573  -26.2785  -50.5315 H         1 UNK         0.0600 
    207 H207       -1.7809  -24.1234  -51.1111 H         1 UNK         0.0600 
    208 H208       -2.5096  -25.4580  -51.9916 H         1 UNK         0.0600 
    209 H209       -3.3327  -24.7774  -50.5942 H         1 UNK         0.0600 
    210 H210       -3.1604  -26.7861  -48.2058 H         1 UNK         0.3000 
    211 H211       -4.6214  -28.3411  -47.6683 H         1 UNK         0.0600 
    212 H212       -3.0187  -30.2916  -49.4086 H         1 UNK         0.0600 
    213 H213       -4.1679  -30.7169  -48.1481 H         1 UNK         0.0600 
    214 H214       -2.6696  -29.9044  -47.7240 H         1 UNK         0.0600 
    215 H215       -5.4633  -26.5809  -49.4815 H         1 UNK         0.3000 
    216 H216       -7.5923  -27.8228  -50.9394 H         1 UNK         0.0600 
    217 H217       -6.8094  -27.0504  -53.2495 H         1 UNK         0.0600 
    218 H218       -5.9117  -28.4165  -52.6192 H         1 UNK         0.0600 
    219 H219       -5.1946  -26.8130  -52.5791 H         1 UNK         0.0600 
    220 H220       -5.8767  -24.9378  -52.0892 H         1 UNK         0.3000 
    221 H221       -7.5242  -23.0425  -50.6229 H         1 UNK         0.0600 
    222 H222       -7.7908  -23.3958  -53.6700 H         1 UNK         0.0600 
    223 H223       -9.0569  -23.7432  -52.4945 H         1 UNK         0.0600 
    224 H224       -8.5084  -22.0935  -52.7285 H         1 UNK         0.0600 
    225 H225       -6.9208  -20.7886  -51.4507 H         1 UNK         0.3000 
    226 H226       -4.0465  -20.4950  -51.4748 H         1 UNK         0.0600 
    227 H227       -5.5953  -19.0280  -50.1503 H         1 UNK         0.0600 
    228 H228       -4.5920  -18.0995  -51.2521 H         1 UNK         0.0600 
    229 H229       -6.2798  -18.4023  -51.6461 H         1 UNK         0.0600 
    230 H230       -4.2362  -21.8638  -53.6265 H         1 UNK         0.3000 
    231 H231       -4.8813  -20.4721  -56.0656 H         1 UNK         0.0600 
    232 H232       -4.0434  -22.5781  -57.1106 H         1 UNK         0.0600 
    233 H233       -5.1324  -22.9285  -55.7780 H         1 UNK         0.0600 
    234 H234       -3.3912  -23.1044  -55.5626 H         1 UNK         0.0600 
    235 H235       -2.0777  -20.3432  -54.1246 H         1 UNK         0.3000 
    236 H236        0.0155  -20.3761  -55.9671 H         1 UNK         0.0600 
    237 H237        0.3243  -20.6122  -53.5307 H         1 UNK         0.0600 
    238 H238        1.3249  -19.3004  -54.1304 H         1 UNK         0.0600 
    239 H239       -0.1637  -18.9409  -53.2698 H         1 UNK         0.0600 
    240 H240       -2.2596  -17.7874  -55.5085 H         1 UNK         0.3000 
    241 H241       -0.5912  -15.7537  -56.8030 H         1 UNK         0.0600 
    242 H242       -2.4407  -17.8191  -59.7167 H         1 UNK         0.3800 
    243 H243       -2.2684  -18.4933  -58.1164 H         1 UNK         0.3800 
    244 H244       -2.6144  -14.3228  -56.7640 H         1 UNK         0.0800 
    245 H245       -3.5723  -15.6431  -56.1536 H         1 UNK         0.0800 
    246 H246       -3.5526  -16.5460  -53.9238 H         1 UNK         0.0800 
    247 H247       -4.2687  -15.0015  -53.5322 H         1 UNK         0.0800 
@<TRIPOS>BOND
     1    1    2 1    
     2    1  127 1    
     3    1  128 1    
     4    1  129 1    
     5    2    3 2    
     6    2    4 am   BACKBONE|DICT|INTERRES
     7    4    5 1    
     8    4  130 1    
     9    5    6 1    
    10    5   65 1    
    11    5  131 1    
    12    6    7 1    
    13    6  132 1    
    14    6  133 1    
    15    7    8 1    
    16    8    9 1    
    17    8  134 1    
    18    8  135 1    
    19    9   10 ar   
    20    9   14 ar   
    21   10   11 ar   
    22   10  136 1    
    23   11   12 ar   
    24   11  126 1    
    25   12   13 ar   
    26   12  137 1    
    27   13   14 ar   
    28   13   15 1    
    29   14  138 1    
    30   15   16 1    
    31   15  139 1    
    32   15  140 1    
    33   16   17 1    
    34   17   18 1    
    35   17  141 1    
    36   17  142 1    
    37   18   19 1    
    38   18   67 1    
    39   18  143 1    
    40   19   20 am   BACKBONE|DICT|INTERRES
    41   19  144 1    
    42   20   21 2    
    43   20   22 1    
    44   22   23 1    
    45   22   24 1    
    46   22  145 1    
    47   23  146 1    
    48   23  147 1    
    49   23  148 1    
    50   24   25 am   BACKBONE|DICT|INTERRES
    51   24  149 1    
    52   25   26 2    
    53   25   27 1    
    54   27   28 1    
    55   27   29 1    
    56   27  150 1    
    57   28  151 1    
    58   28  152 1    
    59   28  153 1    
    60   29   30 am   BACKBONE|DICT|INTERRES
    61   29  154 1    
    62   30   31 2    
    63   30   32 1    
    64   32   33 1    
    65   32   34 1    
    66   32  155 1    
    67   33  156 1    
    68   33  157 1    
    69   33  158 1    
    70   34   35 am   BACKBONE|DICT|INTERRES
    71   34  159 1    
    72   35   36 2    
    73   35   37 1    
    74   37   38 1    
    75   37   39 1    
    76   37  160 1    
    77   38  161 1    
    78   38  162 1    
    79   38  163 1    
    80   39   40 am   BACKBONE|DICT|INTERRES
    81   39  164 1    
    82   40   41 2    
    83   40   42 1    
    84   42   43 1    
    85   42   44 1    
    86   42  165 1    
    87   43  166 1    
    88   43  167 1    
    89   43  168 1    
    90   44   45 am   BACKBONE|DICT|INTERRES
    91   44  169 1    
    92   45   46 2    
    93   45   47 1    
    94   47   48 1    
    95   47   49 1    
    96   47  170 1    
    97   48  171 1    
    98   48  172 1    
    99   48  173 1    
   100   49   50 am   BACKBONE|DICT|INTERRES
   101   49  174 1    
   102   50   51 2    
   103   50   52 1    
   104   52   53 1    
   105   52   54 1    
   106   52  175 1    
   107   53  176 1    
   108   53  177 1    
   109   53  178 1    
   110   54   55 am   BACKBONE|DICT|INTERRES
   111   54  179 1    
   112   55   56 2    
   113   55   57 1    
   114   57   58 1    
   115   57   59 1    
   116   57  180 1    
   117   58  181 1    
   118   58  182 1    
   119   58  183 1    
   120   59   60 am   BACKBONE|DICT|INTERRES
   121   59  184 1    
   122   60   61 2    
   123   60   62 1    
   124   62   63 1    
   125   62   64 1    
   126   62  185 1    
   127   63  186 1    
   128   63  187 1    
   129   63  188 1    
   130   64   65 am   BACKBONE|DICT|INTERRES
   131   64  189 1    
   132   65   66 2    
   133   67   68 2    
   134   67   69 am   BACKBONE|DICT|INTERRES
   135   69   70 1    
   136   69  190 1    
   137   70   71 1    
   138   70   72 1    
   139   70  191 1    
   140   71  192 1    
   141   71  193 1    
   142   71  194 1    
   143   72   73 2    
   144   72   74 am   BACKBONE|DICT|INTERRES
   145   74   75 1    
   146   74  195 1    
   147   75   76 1    
   148   75   77 1    
   149   75  196 1    
   150   76  197 1    
   151   76  198 1    
   152   76  199 1    
   153   77   78 2    
   154   77   79 am   BACKBONE|DICT|INTERRES
   155   79   80 1    
   156   79  200 1    
   157   80   81 1    
   158   80   82 1    
   159   80  201 1    
   160   81  202 1    
   161   81  203 1    
   162   81  204 1    
   163   82   83 2    
   164   82   84 am   BACKBONE|DICT|INTERRES
   165   84   85 1    
   166   84  205 1    
   167   85   86 1    
   168   85   87 1    
   169   85  206 1    
   170   86  207 1    
   171   86  208 1    
   172   86  209 1    
   173   87   88 2    
   174   87   89 am   BACKBONE|DICT|INTERRES
   175   89   90 1    
   176   89  210 1    
   177   90   91 1    
   178   90   92 1    
   179   90  211 1    
   180   91  212 1    
   181   91  213 1    
   182   91  214 1    
   183   92   93 2    
   184   92   94 am   BACKBONE|DICT|INTERRES
   185   94   95 1    
   186   94  215 1    
   187   95   96 1    
   188   95   97 1    
   189   95  216 1    
   190   96  217 1    
   191   96  218 1    
   192   96  219 1    
   193   97   98 2    
   194   97   99 am   BACKBONE|DICT|INTERRES
   195   99  100 1    
   196   99  220 1    
   197  100  101 1    
   198  100  102 1    
   199  100  221 1    
   200  101  222 1    
   201  101  223 1    
   202  101  224 1    
   203  102  103 2    
   204  102  104 am   BACKBONE|DICT|INTERRES
   205  104  105 1    
   206  104  225 1    
   207  105  106 1    
   208  105  107 1    
   209  105  226 1    
   210  106  227 1    
   211  106  228 1    
   212  106  229 1    
   213  107  108 2    
   214  107  109 am   BACKBONE|DICT|INTERRES
   215  109  110 1    
   216  109  230 1    
   217  110  111 1    
   218  110  112 1    
   219  110  231 1    
   220  111  232 1    
   221  111  233 1    
   222  111  234 1    
   223  112  113 2    
   224  112  114 am   BACKBONE|DICT|INTERRES
   225  114  115 1    
   226  114  235 1    
   227  115  116 1    
   228  115  117 1    
   229  115  236 1    
   230  116  237 1    
   231  116  238 1    
   232  116  239 1    
   233  117  118 2    
   234  117  119 am   BACKBONE|DICT|INTERRES
   235  119  120 1    
   236  119  240 1    
   237  120  121 1    
   238  120  124 1    
   239  120  241 1    
   240  121  122 am   BACKBONE|DICT|INTERRES
   241  121  123 2    
   242  122  242 1    
   243  122  243 1    
   244  124  125 1    
   245  124  244 1    
   246  124  245 1    
   247  125  126 1    
   248  126  246 1    
   249  126  247 1    
@<TRIPOS>SUBSTRUCTURE
     1 UNK         1 GROUP             0       ****    0 ROOT    
