@<TRIPOS>MOLECULE
3R540
247   249    1
SMALL
USER_CHARGES


@<TRIPOS>ATOM
      1 CA         -1.8131  -13.9830  -49.1516 C.3       0 UNK        -0.1800 
      2 C          -0.5008  -13.2159  -49.0884 C.2       0 UNK         0.5000 
      3 O          -0.2713  -12.3241  -49.9060 O.2       0 UNK        -0.5000 
      4 N           0.3608  -13.5605  -48.1234 N.am      1 UNK        -0.5000 
      5 CA          1.6533  -12.9112  -47.8785 C.3       1 UNK         0.1400 
      6 C6          2.5806  -13.7246  -46.9332 C.3       23 UNK        -0.0398 
      7 S7          2.4967  -15.5322  -47.1513 S.3       23 UNK        -0.2404 
      8 C8          3.5795  -15.8040  -48.5790 C.3       23 UNK        -0.0205 
      9 C9          3.0935  -17.0033  -49.3745 C.ar      23 UNK        -0.0193 
     10 C10         2.2886  -16.8140  -50.5002 C.ar      23 UNK        -0.1150 
     11 C11         1.8219  -17.9076  -51.2381 C.ar      23 UNK        -0.0193 
     12 C12         2.1748  -19.2014  -50.8329 C.ar      23 UNK        -0.1150 
     13 C13         2.9936  -19.4044  -49.7164 C.ar      23 UNK        -0.0193 
     14 C14         3.4450  -18.2994  -48.9888 C.ar      23 UNK        -0.1150 
     15 C15         3.4545  -20.8053  -49.3322 C.3       23 UNK        -0.0205 
     16 S16         2.7060  -21.3982  -47.7809 S.3       23 UNK        -0.2404 
     17 C17         1.0919  -22.0202  -48.3516 C.3       23 UNK        -0.0398 
     18 CA          0.4913  -23.0752  -47.3866 C.3       11 UNK         0.1400 
     19 N           0.1739  -22.5464  -46.0530 N.am      11 UNK        -0.5000 
     20 C          -0.2499  -23.2933  -45.0202 C.2       10 UNK         0.5000 
     21 O          -0.3236  -24.5222  -45.0535 O.2       10 UNK        -0.5000 
     22 CA         -0.7458  -22.5477  -43.7658 C.3       10 UNK         0.1400 
     23 CB          0.4164  -22.1764  -42.8331 C.3       10 UNK        -0.1800 
     24 N          -1.5284  -21.3570  -44.1046 N.am      10 UNK        -0.5000 
     25 C          -2.7260  -21.3977  -44.7073 C.2       9 UNK         0.5000 
     26 O          -3.3253  -22.4460  -44.9456 O.2       9 UNK        -0.5000 
     27 CA         -3.3330  -20.0581  -45.1720 C.3       9 UNK         0.1400 
     28 CB         -4.1438  -19.3965  -44.0493 C.3       9 UNK        -0.1800 
     29 N          -2.3230  -19.1240  -45.6726 N.am      9 UNK        -0.5000 
     30 C          -1.5838  -19.3336  -46.7715 C.2       8 UNK         0.5000 
     31 O          -1.7531  -20.2912  -47.5243 O.2       8 UNK        -0.5000 
     32 CA         -0.4327  -18.3459  -47.0405 C.3       8 UNK         0.1400 
     33 CB         -0.9195  -17.1354  -47.8472 C.3       8 UNK        -0.1800 
     34 N           0.2015  -17.8975  -45.7986 N.am      8 UNK        -0.5000 
     35 C           0.9342  -18.6937  -45.0077 C.2       7 UNK         0.5000 
     36 O           1.1762  -19.8692  -45.2714 O.2       7 UNK        -0.5000 
     37 CA          1.4086  -18.1115  -43.6641 C.3       7 UNK         0.1400 
     38 CB          2.7296  -17.3448  -43.8154 C.3       7 UNK        -0.1800 
     39 N           0.3956  -17.2500  -43.0534 N.am      7 UNK        -0.5000 
     40 C          -0.7374  -17.7155  -42.5049 C.2       6 UNK         0.5000 
     41 O          -0.9964  -18.9149  -42.4102 O.2       6 UNK        -0.5000 
     42 CA         -1.7747  -16.6824  -42.0163 C.3       6 UNK         0.1400 
     43 CB         -1.5529  -16.3617  -40.5311 C.3       6 UNK        -0.1800 
     44 N          -1.7644  -15.4352  -42.7820 N.am      6 UNK        -0.5000 
     45 C          -2.0032  -15.3361  -44.0969 C.2       5 UNK         0.5000 
     46 O          -2.3635  -16.2866  -44.7910 O.2       5 UNK        -0.5000 
     47 CA         -1.7359  -13.9697  -44.7647 C.3       5 UNK         0.1400 
     48 CB         -3.0538  -13.2354  -45.0470 C.3       5 UNK        -0.1800 
     49 N          -0.8345  -13.0761  -44.0238 N.am      5 UNK        -0.5000 
     50 C           0.4282  -13.3607  -43.6726 C.2       4 UNK         0.5000 
     51 O           0.9498  -14.4577  -43.8748 O.2       4 UNK        -0.5000 
     52 CA          1.2249  -12.2435  -42.9785 C.3       4 UNK         0.1400 
     53 CB          2.7453  -12.5026  -42.9599 C.3       4 UNK        -0.1800 
     54 N           0.9463  -10.9440  -43.5903 N.am      4 UNK        -0.5000 
     55 C           1.0387   -9.7686  -42.9528 C.2       3 UNK         0.5000 
     56 O           1.2958   -9.6729  -41.7510 O.2       3 UNK        -0.5000 
     57 CA          0.7981   -8.4881  -43.7862 C.3       3 UNK         0.1400 
     58 CB          1.5206   -7.2534  -43.2067 C.3       3 UNK        -0.1800 
     59 N           1.1001   -8.6413  -45.2145 N.am      3 UNK        -0.5000 
     60 C           2.2814   -8.9420  -45.7742 C.2       2 UNK         0.5000 
     61 O           3.3300   -9.1088  -45.1486 O.2       2 UNK        -0.5000 
     62 CA          2.2645   -9.1355  -47.3041 C.3       2 UNK         0.1400 
     63 CB          3.4342   -8.3967  -47.9756 C.3       2 UNK        -0.1800 
     64 N           2.3041  -10.5473  -47.6964 N.am      2 UNK        -0.5000 
     65 C           1.4348  -11.4925  -47.3127 C.2       1 UNK         0.5000 
     66 O           0.5023  -11.2933  -46.5279 O.2       1 UNK        -0.5000 
     67 C          -0.7333  -23.7579  -48.0286 C.2       11 UNK         0.5000 
     68 O          -0.5911  -24.8502  -48.5740 O.2       11 UNK        -0.5000 
     69 N          -1.9147  -23.1332  -47.9182 N.am      12 UNK        -0.5000 
     70 CA         -3.1867  -23.6618  -48.4155 C.3       12 UNK         0.1400 
     71 CB         -4.2852  -22.6023  -48.2608 C.3       12 UNK        -0.1800 
     72 C          -3.5991  -24.9705  -47.7293 C.2       12 UNK         0.5000 
     73 O          -4.0071  -25.9079  -48.4142 O.2       12 UNK        -0.5000 
     74 N          -3.4463  -25.0229  -46.3995 N.am      13 UNK        -0.5000 
     75 CA         -3.6958  -26.2099  -45.5829 C.3       13 UNK         0.1400 
     76 CB         -3.5981  -25.8361  -44.0962 C.3       13 UNK        -0.1800 
     77 C          -2.7482  -27.3768  -45.9196 C.2       13 UNK         0.5000 
     78 O          -3.1916  -28.5252  -45.9520 O.2       13 UNK        -0.5000 
     79 N          -1.4723  -27.0617  -46.1813 N.am      14 UNK        -0.5000 
     80 CA         -0.4496  -28.0247  -46.5856 C.3       14 UNK         0.1400 
     81 CB          0.9406  -27.3889  -46.4291 C.3       14 UNK        -0.1800 
     82 C          -0.6568  -28.5452  -48.0204 C.2       14 UNK         0.5000 
     83 O          -0.5709  -29.7532  -48.2455 O.2       14 UNK        -0.5000 
     84 N          -0.9138  -27.6293  -48.9639 N.am      15 UNK        -0.5000 
     85 CA         -1.0725  -27.9288  -50.3879 C.3       15 UNK         0.1400 
     86 CB         -0.8893  -26.6348  -51.1980 C.3       15 UNK        -0.1800 
     87 C          -2.4243  -28.5732  -50.7391 C.2       15 UNK         0.5000 
     88 O          -2.4940  -29.3080  -51.7251 O.2       15 UNK        -0.5000 
     89 N          -3.4682  -28.2576  -49.9568 N.am      16 UNK        -0.5000 
     90 CA         -4.8839  -28.5478  -50.2116 C.3       16 UNK         0.1400 
     91 CB         -5.1644  -30.0647  -50.1716 C.3       16 UNK        -0.1800 
     92 C          -5.3664  -27.8602  -51.5074 C.2       16 UNK         0.5000 
     93 O          -5.9997  -28.4909  -52.3565 O.2       16 UNK        -0.5000 
     94 N          -5.0162  -26.5762  -51.6434 N.am      17 UNK        -0.5000 
     95 CA         -5.2513  -25.7410  -52.8168 C.3       17 UNK         0.1400 
     96 CB         -4.0757  -25.9077  -53.7965 C.3       17 UNK        -0.1800 
     97 C          -5.3976  -24.2778  -52.3755 C.2       17 UNK         0.5000 
     98 O          -5.0643  -23.9443  -51.2361 O.2       17 UNK        -0.5000 
     99 N          -5.8620  -23.4170  -53.2904 N.am      18 UNK        -0.5000 
    100 CA        -6.1389  -21.9888  -53.0841 C.3       18 UNK         0.1400 
    101 CB        -7.0843  -21.5053  -54.1986 C.3       18 UNK        -0.1800 
    102 C         -4.8783  -21.0987  -52.9611 C.2       18 UNK         0.5000 
    103 O         -4.8403  -19.9910  -53.5050 O.2       18 UNK        -0.5000 
    104 N         -3.8698  -21.5738  -52.2197 N.am      19 UNK        -0.5000 
    105 CA        -2.6220  -20.8591  -51.9445 C.3       19 UNK         0.1400 
    106 CB        -1.5632  -21.8357  -51.4168 C.3       19 UNK        -0.1800 
    107 C         -2.8047  -19.6698  -50.9818 C.2       19 UNK         0.5000 
    108 O         -1.9393  -18.8015  -50.9474 O.2       19 UNK        -0.5000 
    109 N         -3.9419  -19.6080  -50.2720 N.am      20 UNK        -0.5000 
    110 CA        -4.3341  -18.4959  -49.4007 C.3       20 UNK         0.1400 
    111 CB        -5.5683  -18.9028  -48.5819 C.3       20 UNK        -0.1800 
    112 C         -4.6059  -17.1945  -50.1791 C.2       20 UNK         0.5000 
    113 O         -4.3713  -16.1087  -49.6508 O.2       20 UNK        -0.5000 
    114 N         -5.0719  -17.3380  -51.4263 N.am      21 UNK        -0.5000 
    115 CA        -5.2280  -16.2583  -52.4019 C.3       21 UNK         0.1400 
    116 CB        -6.5727  -16.4560  -53.1216 C.3       21 UNK        -0.1800 
    117 C         -4.0675  -16.2415  -53.4192 C.2       21 UNK         0.5000 
    118 O         -4.0525  -15.3846  -54.3039 O.2       21 UNK        -0.5000 
    119 N         -3.1378  -17.1979  -53.2912 N.am      22 UNK        -0.5000 
    120 CA        -2.0279  -17.4904  -54.2092 C.3       22 UNK         0.1400 
    121 C         -2.4911  -17.8584  -55.6503 C.2       22 UNK         0.5000 
    122 N         -3.5851  -18.5979  -55.7963 N.am      22 UNK        -0.7600 
    123 O         -1.8580  -17.4965  -56.6387 O.2       22 UNK        -0.5000 
    124 C124       -0.8898  -16.4355  -54.1481 C.3       23 UNK        -0.0398 
    125 S125       -0.1587  -16.3051  -52.4775 S.3       23 UNK        -0.2404 
    126 C126        1.0037  -17.7165  -52.5145 C.3       23 UNK        -0.0205 
    127 H127       -2.6151  -13.3396  -49.5133 H         1 UNK         0.0600 
    128 H128       -2.1051  -14.3572  -48.1708 H         1 UNK         0.0600 
    129 H129       -1.7225  -14.8294  -49.8331 H         1 UNK         0.0600 
    130 H130        0.1340  -14.3102  -47.4892 H         1 UNK         0.3000 
    131 H131        2.1552  -12.8239  -48.8444 H         1 UNK         0.0600 
    132 H132        3.6163  -13.3992  -47.0436 H         1 UNK         0.0800 
    133 H133        2.3251  -13.5391  -45.8916 H         1 UNK         0.0800 
    134 H134        4.6031  -15.9622  -48.2366 H         1 UNK         0.0800 
    135 H135        3.5959  -14.9166  -49.2133 H         1 UNK         0.0800 
    136 H136        2.0334  -15.8089  -50.8038 H         1 UNK         0.1150 
    137 H137        1.8378  -20.0523  -51.4080 H         1 UNK         0.1150 
    138 H138        4.0751  -18.4488  -48.1231 H         1 UNK         0.1150 
    139 H139        3.2611  -21.5165  -50.1364 H         1 UNK         0.0800 
    140 H140        4.5378  -20.7898  -49.2043 H         1 UNK         0.0800 
    141 H141        1.2312  -22.4592  -49.3412 H         1 UNK         0.0800 
    142 H142        0.4203  -21.1742  -48.4903 H         1 UNK         0.0800 
    143 H143        1.2421  -23.8555  -47.2442 H         1 UNK         0.0600 
    144 H144        0.2859  -21.5460  -45.9206 H         1 UNK         0.3000 
    145 H145       -1.4018  -23.2276  -43.2180 H         1 UNK         0.0600 
    146 H146        0.0581  -21.6592  -41.9429 H         1 UNK         0.0600 
    147 H147        0.9442  -23.0708  -42.5003 H         1 UNK         0.0600 
    148 H148        1.1464  -21.5336  -43.3222 H         1 UNK         0.0600 
    149 H149       -1.1186  -20.4573  -43.8838 H         1 UNK         0.3000 
    150 H150       -4.0166  -20.2750  -45.9945 H         1 UNK         0.0600 
    151 H151       -4.9656  -20.0407  -43.7346 H         1 UNK         0.0600 
    152 H152       -4.5769  -18.4514  -44.3779 H         1 UNK         0.0600 
    153 H153       -3.5315  -19.1984  -43.1707 H         1 UNK         0.0600 
    154 H154       -2.1751  -18.2708  -45.1439 H         1 UNK         0.3000 
    155 H155        0.3222  -18.8621  -47.6377 H         1 UNK         0.0600 
    156 H156       -1.7046  -16.5873  -47.3277 H         1 UNK         0.0600 
    157 H157       -0.1031  -16.4488  -48.0610 H         1 UNK         0.0600 
    158 H158       -1.3197  -17.4475  -48.8105 H         1 UNK         0.0600 
    159 H159        0.0161  -16.9521  -45.4994 H         1 UNK         0.3000 
    160 H160        1.5935  -18.9522  -42.9917 H         1 UNK         0.0600 
    161 H161        2.6093  -16.4469  -44.4189 H         1 UNK         0.0600 
    162 H162        3.4890  -17.9637  -44.2949 H         1 UNK         0.0600 
    163 H163        3.1202  -17.0408  -42.8444 H         1 UNK         0.0600 
    164 H164        0.5367  -16.2482  -43.1449 H         1 UNK         0.3000 
    165 H165       -2.7642  -17.1300  -42.1258 H         1 UNK         0.0600 
    166 H166       -2.3286  -15.6971  -40.1502 H         1 UNK         0.0600 
    167 H167       -1.5800  -17.2701  -39.9275 H         1 UNK         0.0600 
    168 H168       -0.5869  -15.8840  -40.3626 H         1 UNK         0.0600 
    169 H169       -1.4695  -14.6047  -42.2911 H         1 UNK         0.3000 
    170 H170       -1.2581  -14.1808  -45.7225 H         1 UNK         0.0600 
    171 H171       -3.7351  -13.8616  -45.6249 H         1 UNK         0.0600 
    172 H172       -3.5644  -12.9572  -44.1243 H         1 UNK         0.0600 
    173 H173       -2.8818  -12.3274  -45.6255 H         1 UNK         0.0600 
    174 H174       -1.1905  -12.1544  -43.8152 H         1 UNK         0.3000 
    175 H175        0.8717  -12.2345  -41.9455 H         1 UNK         0.0600 
    176 H176        3.1693  -12.4774  -43.9635 H         1 UNK         0.0600 
    177 H177        3.2652  -11.7528  -42.3637 H         1 UNK         0.0600 
    178 H178        2.9787  -13.4750  -42.5242 H         1 UNK         0.0600 
    179 H179        0.7256  -10.9551  -44.5834 H         1 UNK         0.3000 
    180 H180       -0.2739   -8.2953  -43.7259 H         1 UNK         0.0600 
    181 H181        2.6004   -7.3989  -43.1640 H         1 UNK         0.0600 
    182 H182        1.1802   -7.0389  -42.1930 H         1 UNK         0.0600 
    183 H183        1.3252   -6.3644  -43.8062 H         1 UNK         0.0600 
    184 H184        0.2969   -8.5848  -45.8257 H         1 UNK         0.3000 
    185 H185        1.3377   -8.7119  -47.6967 H         1 UNK         0.0600 
    186 H186        3.4367   -7.3407  -47.7021 H         1 UNK         0.0600 
    187 H187        4.3982   -8.8139  -47.6815 H         1 UNK         0.0600 
    188 H188        3.3634   -8.4493  -49.0621 H         1 UNK         0.0600 
    189 H189        3.0539  -10.8037  -48.3220 H         1 UNK         0.3000 
    190 H190       -1.9342  -22.2029  -47.5094 H         1 UNK         0.3000 
    191 H191       -3.0614  -23.8771  -49.4775 H         1 UNK         0.0600 
    192 H192       -4.5484  -22.4313  -47.2183 H         1 UNK         0.0600 
    193 H193       -5.1963  -22.9037  -48.7779 H         1 UNK         0.0600 
    194 H194       -3.9646  -21.6531  -48.6787 H         1 UNK         0.0600 
    195 H195       -3.1519  -24.1825  -45.9110 H         1 UNK         0.3000 
    196 H196       -4.7163  -26.5425  -45.7838 H         1 UNK         0.0600 
    197 H197       -3.8169  -26.6960  -43.4620 H         1 UNK         0.0600 
    198 H198       -4.3104  -25.0516  -43.8395 H         1 UNK         0.0600 
    199 H199       -2.6014  -25.4799  -43.8348 H         1 UNK         0.0600 
    200 H200       -1.1775  -26.0960  -46.0810 H         1 UNK         0.3000 
    201 H201       -0.5035  -28.8810  -45.9100 H         1 UNK         0.0600 
    202 H202        1.1218  -27.0895  -45.3966 H         1 UNK         0.0600 
    203 H203        1.0540  -26.5042  -47.0562 H         1 UNK         0.0600 
    204 H204        1.7261  -28.0926  -46.7073 H         1 UNK         0.0600 
    205 H205       -0.9213  -26.6438  -48.7073 H         1 UNK         0.3000 
    206 H206       -0.2858  -28.6266  -50.6824 H         1 UNK         0.0600 
    207 H207        0.0888  -26.1895  -51.0154 H         1 UNK         0.0600 
    208 H208       -0.9635  -26.8287  -52.2689 H         1 UNK         0.0600 
    209 H209       -1.6478  -25.8921  -50.9460 H         1 UNK         0.0600 
    210 H210       -3.3081  -27.5960  -49.2036 H         1 UNK         0.3000 
    211 H211       -5.4433  -28.0907  -49.3942 H         1 UNK         0.0600 
    212 H212       -4.6909  -30.5919  -51.0000 H         1 UNK         0.0600 
    213 H213       -6.2352  -30.2621  -50.2308 H         1 UNK         0.0600 
    214 H214       -4.8035  -30.5062  -49.2427 H         1 UNK         0.0600 
    215 H215       -4.5742  -26.0982  -50.8665 H         1 UNK         0.3000 
    216 H216       -6.1823  -26.0412  -53.3019 H         1 UNK         0.0600 
    217 H217       -4.2252  -25.3169  -54.7008 H         1 UNK         0.0600 
    218 H218       -3.9639  -26.9472  -54.1055 H         1 UNK         0.0600 
    219 H219       -3.1331  -25.5911  -53.3480 H         1 UNK         0.0600 
    220 H220       -6.0676  -23.7688  -54.2145 H         1 UNK         0.3000 
    221 H221       -6.6741  -21.8888  -52.1377 H         1 UNK         0.0600 
    222 H222       -6.6087  -21.5586  -55.1787 H         1 UNK         0.0600 
    223 H223       -7.9942  -22.1048  -54.2330 H         1 UNK         0.0600 
    224 H224       -7.3895  -20.4705  -54.0369 H         1 UNK         0.0600 
    225 H225       -4.0037  -22.4770  -51.7736 H         1 UNK         0.3000 
    226 H226       -2.2561  -20.4601  -52.8918 H         1 UNK         0.0600 
    227 H227       -1.4433  -22.6945  -52.0774 H         1 UNK         0.0600 
    228 H228       -0.5916  -21.3468  -51.3341 H         1 UNK         0.0600 
    229 H229       -1.8230  -22.2011  -50.4281 H         1 UNK         0.0600 
    230 H230       -4.5984  -20.3683  -50.3604 H         1 UNK         0.3000 
    231 H231       -3.5166  -18.3011  -48.7071 H         1 UNK         0.0600 
    232 H232       -5.8700  -18.0995  -47.9084 H         1 UNK         0.0600 
    233 H233       -5.3656  -19.7782  -47.9662 H         1 UNK         0.0600 
    234 H234       -6.4203  -19.1323  -49.2228 H         1 UNK         0.0600 
    235 H235       -5.2332  -18.2725  -51.7768 H         1 UNK         0.3000 
    236 H236       -5.2423  -15.2881  -51.9012 H         1 UNK         0.0600 
    237 H237       -7.4021  -16.4539  -52.4142 H         1 UNK         0.0600 
    238 H238       -6.7568  -15.6548  -53.8383 H         1 UNK         0.0600 
    239 H239       -6.6000  -17.3997  -53.6686 H         1 UNK         0.0600 
    240 H240       -3.1899  -17.7981  -52.4814 H         1 UNK         0.3000 
    241 H241       -1.5979  -18.4218  -53.8456 H         1 UNK         0.0600 
    242 H242       -4.0922  -18.9446  -54.9871 H         1 UNK         0.3800 
    243 H243       -3.8955  -18.8452  -56.7222 H         1 UNK         0.3800 
    244 H244       -0.0927  -16.6800  -54.8518 H         1 UNK         0.0800 
    245 H245       -1.2645  -15.4550  -54.4443 H         1 UNK         0.0800 
    246 H246        0.4347  -18.6245  -52.7168 H         1 UNK         0.0800 
    247 H247        1.6956  -17.5868  -53.3474 H         1 UNK         0.0800 
@<TRIPOS>BOND
     1    1    2 1    
     2    1  127 1    
     3    1  128 1    
     4    1  129 1    
     5    2    3 2    
     6    2    4 am   BACKBONE|DICT|INTERRES
     7    4    5 1    
     8    4  130 1    
     9    5    6 1    
    10    5   65 1    
    11    5  131 1    
    12    6    7 1    
    13    6  132 1    
    14    6  133 1    
    15    7    8 1    
    16    8    9 1    
    17    8  134 1    
    18    8  135 1    
    19    9   10 ar   
    20    9   14 ar   
    21   10   11 ar   
    22   10  136 1    
    23   11   12 ar   
    24   11  126 1    
    25   12   13 ar   
    26   12  137 1    
    27   13   14 ar   
    28   13   15 1    
    29   14  138 1    
    30   15   16 1    
    31   15  139 1    
    32   15  140 1    
    33   16   17 1    
    34   17   18 1    
    35   17  141 1    
    36   17  142 1    
    37   18   19 1    
    38   18   67 1    
    39   18  143 1    
    40   19   20 am   BACKBONE|DICT|INTERRES
    41   19  144 1    
    42   20   21 2    
    43   20   22 1    
    44   22   23 1    
    45   22   24 1    
    46   22  145 1    
    47   23  146 1    
    48   23  147 1    
    49   23  148 1    
    50   24   25 am   BACKBONE|DICT|INTERRES
    51   24  149 1    
    52   25   26 2    
    53   25   27 1    
    54   27   28 1    
    55   27   29 1    
    56   27  150 1    
    57   28  151 1    
    58   28  152 1    
    59   28  153 1    
    60   29   30 am   BACKBONE|DICT|INTERRES
    61   29  154 1    
    62   30   31 2    
    63   30   32 1    
    64   32   33 1    
    65   32   34 1    
    66   32  155 1    
    67   33  156 1    
    68   33  157 1    
    69   33  158 1    
    70   34   35 am   BACKBONE|DICT|INTERRES
    71   34  159 1    
    72   35   36 2    
    73   35   37 1    
    74   37   38 1    
    75   37   39 1    
    76   37  160 1    
    77   38  161 1    
    78   38  162 1    
    79   38  163 1    
    80   39   40 am   BACKBONE|DICT|INTERRES
    81   39  164 1    
    82   40   41 2    
    83   40   42 1    
    84   42   43 1    
    85   42   44 1    
    86   42  165 1    
    87   43  166 1    
    88   43  167 1    
    89   43  168 1    
    90   44   45 am   BACKBONE|DICT|INTERRES
    91   44  169 1    
    92   45   46 2    
    93   45   47 1    
    94   47   48 1    
    95   47   49 1    
    96   47  170 1    
    97   48  171 1    
    98   48  172 1    
    99   48  173 1    
   100   49   50 am   BACKBONE|DICT|INTERRES
   101   49  174 1    
   102   50   51 2    
   103   50   52 1    
   104   52   53 1    
   105   52   54 1    
   106   52  175 1    
   107   53  176 1    
   108   53  177 1    
   109   53  178 1    
   110   54   55 am   BACKBONE|DICT|INTERRES
   111   54  179 1    
   112   55   56 2    
   113   55   57 1    
   114   57   58 1    
   115   57   59 1    
   116   57  180 1    
   117   58  181 1    
   118   58  182 1    
   119   58  183 1    
   120   59   60 am   BACKBONE|DICT|INTERRES
   121   59  184 1    
   122   60   61 2    
   123   60   62 1    
   124   62   63 1    
   125   62   64 1    
   126   62  185 1    
   127   63  186 1    
   128   63  187 1    
   129   63  188 1    
   130   64   65 am   BACKBONE|DICT|INTERRES
   131   64  189 1    
   132   65   66 2    
   133   67   68 2    
   134   67   69 am   BACKBONE|DICT|INTERRES
   135   69   70 1    
   136   69  190 1    
   137   70   71 1    
   138   70   72 1    
   139   70  191 1    
   140   71  192 1    
   141   71  193 1    
   142   71  194 1    
   143   72   73 2    
   144   72   74 am   BACKBONE|DICT|INTERRES
   145   74   75 1    
   146   74  195 1    
   147   75   76 1    
   148   75   77 1    
   149   75  196 1    
   150   76  197 1    
   151   76  198 1    
   152   76  199 1    
   153   77   78 2    
   154   77   79 am   BACKBONE|DICT|INTERRES
   155   79   80 1    
   156   79  200 1    
   157   80   81 1    
   158   80   82 1    
   159   80  201 1    
   160   81  202 1    
   161   81  203 1    
   162   81  204 1    
   163   82   83 2    
   164   82   84 am   BACKBONE|DICT|INTERRES
   165   84   85 1    
   166   84  205 1    
   167   85   86 1    
   168   85   87 1    
   169   85  206 1    
   170   86  207 1    
   171   86  208 1    
   172   86  209 1    
   173   87   88 2    
   174   87   89 am   BACKBONE|DICT|INTERRES
   175   89   90 1    
   176   89  210 1    
   177   90   91 1    
   178   90   92 1    
   179   90  211 1    
   180   91  212 1    
   181   91  213 1    
   182   91  214 1    
   183   92   93 2    
   184   92   94 am   BACKBONE|DICT|INTERRES
   185   94   95 1    
   186   94  215 1    
   187   95   96 1    
   188   95   97 1    
   189   95  216 1    
   190   96  217 1    
   191   96  218 1    
   192   96  219 1    
   193   97   98 2    
   194   97   99 am   BACKBONE|DICT|INTERRES
   195   99  100 1    
   196   99  220 1    
   197  100  101 1    
   198  100  102 1    
   199  100  221 1    
   200  101  222 1    
   201  101  223 1    
   202  101  224 1    
   203  102  103 2    
   204  102  104 am   BACKBONE|DICT|INTERRES
   205  104  105 1    
   206  104  225 1    
   207  105  106 1    
   208  105  107 1    
   209  105  226 1    
   210  106  227 1    
   211  106  228 1    
   212  106  229 1    
   213  107  108 2    
   214  107  109 am   BACKBONE|DICT|INTERRES
   215  109  110 1    
   216  109  230 1    
   217  110  111 1    
   218  110  112 1    
   219  110  231 1    
   220  111  232 1    
   221  111  233 1    
   222  111  234 1    
   223  112  113 2    
   224  112  114 am   BACKBONE|DICT|INTERRES
   225  114  115 1    
   226  114  235 1    
   227  115  116 1    
   228  115  117 1    
   229  115  236 1    
   230  116  237 1    
   231  116  238 1    
   232  116  239 1    
   233  117  118 2    
   234  117  119 am   BACKBONE|DICT|INTERRES
   235  119  120 1    
   236  119  240 1    
   237  120  121 1    
   238  120  124 1    
   239  120  241 1    
   240  121  122 am   BACKBONE|DICT|INTERRES
   241  121  123 2    
   242  122  242 1    
   243  122  243 1    
   244  124  125 1    
   245  124  244 1    
   246  124  245 1    
   247  125  126 1    
   248  126  246 1    
   249  126  247 1    
@<TRIPOS>SUBSTRUCTURE
     1 UNK         1 GROUP             0       ****    0 ROOT    
