@<TRIPOS>MOLECULE
3R540
247   249    1
SMALL
USER_CHARGES


@<TRIPOS>ATOM
      1 CA         -2.3069  -14.2100  -41.8769 C.3       0 UNK        -0.1800 
      2 C          -2.7952  -13.2898  -42.9864 C.2       0 UNK         0.5000 
      3 O          -3.4528  -12.2865  -42.7078 O.2       0 UNK        -0.5000 
      4 N          -2.4734  -13.6263  -44.2408 N.am      1 UNK        -0.5000 
      5 CA         -2.7492  -12.8015  -45.4206 C.3       1 UNK         0.1400 
      6 C6         -2.6924  -13.6337  -46.7271 C.3       23 UNK        -0.0398 
      7 S7         -4.0434  -14.8518  -46.8299 S.3       23 UNK        -0.2404 
      8 C8         -3.2402  -16.2135  -47.7313 C.3       23 UNK        -0.0205 
      9 C9         -4.2607  -17.2691  -48.1287 C.ar      23 UNK        -0.0193 
     10 C10        -4.7975  -17.2853  -49.4208 C.ar      23 UNK        -0.1150 
     11 C11        -5.7764  -18.2210  -49.7714 C.ar      23 UNK        -0.0193 
     12 C12        -6.2063  -19.1527  -48.8217 C.ar      23 UNK        -0.1150 
     13 C13        -5.6659  -19.1574  -47.5325 C.ar      23 UNK        -0.0193 
     14 C14        -4.6934  -18.2127  -47.1923 C.ar      23 UNK        -0.1150 
     15 C15        -6.1618  -20.1606  -46.5011 C.3       23 UNK        -0.0205 
     16 S16        -5.4201  -21.8063  -46.7302 S.3       23 UNK        -0.2404 
     17 C17        -3.7171  -21.5066  -46.1552 C.3       23 UNK        -0.0398 
     18 CA         -2.8655  -22.7988  -46.1228 C.3       11 UNK         0.1400 
     19 N          -1.4283  -22.5144  -46.1476 N.am      11 UNK        -0.5000 
     20 C          -0.4679  -23.4305  -46.3275 C.2       10 UNK         0.5000 
     21 O          -0.7010  -24.6147  -46.5530 O.2       10 UNK        -0.5000 
     22 CA          0.9933  -22.9643  -46.2004 C.3       10 UNK         0.1400 
     23 CB          1.5150  -22.4293  -47.5408 C.3       10 UNK        -0.1800 
     24 N           1.1755  -21.9594  -45.1527 N.am      10 UNK        -0.5000 
     25 C           0.9612  -22.1836  -43.8478 C.2       9 UNK         0.5000 
     26 O           0.6571  -23.2840  -43.3885 O.2       9 UNK        -0.5000 
     27 CA          1.0332  -20.9655  -42.9084 C.3       9 UNK         0.1400 
     28 CB          2.4888  -20.6232  -42.5595 C.3       9 UNK        -0.1800 
     29 N           0.3662  -19.7894  -43.4699 N.am      9 UNK        -0.5000 
     30 C          -0.9438  -19.7216  -43.7474 C.2       8 UNK         0.5000 
     31 O          -1.7428  -20.6228  -43.4906 O.2       8 UNK        -0.5000 
     32 CA         -1.4329  -18.4708  -44.5010 C.3       8 UNK         0.1400 
     33 CB         -1.6876  -17.3002  -43.5450 C.3       8 UNK        -0.1800 
     34 N          -0.5083  -18.0572  -45.5576 N.am      8 UNK        -0.5000 
     35 C          -0.2594  -18.7855  -46.6549 C.2       7 UNK         0.5000 
     36 O          -0.8330  -19.8408  -46.9129 O.2       7 UNK        -0.5000 
     37 CA          0.8493  -18.2805  -47.5900 C.3       7 UNK         0.1400 
     38 CB          0.3002  -17.2300  -48.5627 C.3       7 UNK        -0.1800 
     39 N           1.9815  -17.7341  -46.8417 N.am      7 UNK        -0.5000 
     40 C           2.8379  -18.4809  -46.1295 C.2       6 UNK         0.5000 
     41 O           2.7854  -19.7086  -46.0750 O.2       6 UNK        -0.5000 
     42 CA          3.9051  -17.7327  -45.3078 C.3       6 UNK         0.1400 
     43 CB          5.1483  -17.4576  -46.1663 C.3       6 UNK        -0.1800 
     44 N           3.4146  -16.4710  -44.7511 N.am      6 UNK        -0.5000 
     45 C           2.4454  -16.3659  -43.8299 C.2       5 UNK         0.5000 
     46 O           1.9004  -17.3336  -43.3008 O.2       5 UNK        -0.5000 
     47 CA          1.9563  -14.9404  -43.5003 C.3       5 UNK         0.1400 
     48 CB          2.7622  -14.3448  -42.3374 C.3       5 UNK        -0.1800 
     49 N           2.0170  -14.0343  -44.6530 N.am      5 UNK        -0.5000 
     50 C           1.3354  -14.2224  -45.7902 C.2       4 UNK         0.5000 
     51 O           0.5396  -15.1532  -45.9508 O.2       4 UNK        -0.5000 
     52 CA          1.6402  -13.2608  -46.9523 C.3       4 UNK         0.1400 
     53 CB          3.1182  -13.3663  -47.3778 C.3       4 UNK        -0.1800 
     54 N           0.7879  -13.6186  -48.0847 N.am      4 UNK        -0.5000 
     55 C           0.3406  -12.8497  -49.0844 C.2       3 UNK         0.5000 
     56 O          -0.4108  -13.3049  -49.9448 O.2       3 UNK        -0.5000 
     57 CA          0.6768  -11.3470  -49.1037 C.3       3 UNK         0.1400 
     58 CB          0.6379  -10.7432  -50.5196 C.3       3 UNK        -0.1800 
     59 N          -0.3269  -10.6969  -48.2745 N.am      3 UNK        -0.5000 
     60 C          -0.1055   -9.7301  -47.3782 C.2       2 UNK         0.5000 
     61 O           0.9749   -9.1581  -47.2320 O.2       2 UNK        -0.5000 
     62 CA         -1.2926   -9.3824  -46.4561 C.3       2 UNK         0.1400 
     63 CB         -2.1412   -8.2573  -47.0676 C.3       2 UNK        -0.1800 
     64 N          -2.1512  -10.5415  -46.1771 N.am      2 UNK        -0.5000 
     65 C          -1.7561  -11.6221  -45.4881 C.2       1 UNK         0.5000 
     66 O          -0.6446  -11.7205  -44.9625 O.2       1 UNK        -0.5000 
     67 C          -3.2343  -23.7102  -44.9345 C.2       11 UNK         0.5000 
     68 O          -3.9203  -24.7137  -45.1304 O.2       11 UNK        -0.5000 
     69 N          -2.7114  -23.3894  -43.7417 N.am      12 UNK        -0.5000 
     70 CA         -2.8565  -24.1926  -42.5242 C.3       12 UNK         0.1400 
     71 CB         -2.2773  -23.4178  -41.3311 C.3       12 UNK        -0.1800 
     72 C          -2.2141  -25.5908  -42.6386 C.2       12 UNK         0.5000 
     73 O          -2.7619  -26.5572  -42.1076 O.2       12 UNK        -0.5000 
     74 N          -1.0903  -25.6790  -43.3625 N.am      13 UNK        -0.5000 
     75 CA         -0.3924  -26.9233  -43.6955 C.3       13 UNK         0.1400 
     76 CB          1.0633  -26.5872  -44.0578 C.3       13 UNK        -0.1800 
     77 C          -1.0572  -27.7285  -44.8346 C.2       13 UNK         0.5000 
     78 O          -0.6179  -28.8473  -45.1038 O.2       13 UNK        -0.5000 
     79 N          -2.0778  -27.1531  -45.4897 N.am      14 UNK        -0.5000 
     80 CA         -2.8076  -27.6733  -46.6519 C.3       14 UNK         0.1400 
     81 CB         -3.5665  -28.9700  -46.3006 C.3       14 UNK        -0.1800 
     82 C          -1.9307  -27.8052  -47.9174 C.2       14 UNK         0.5000 
     83 O          -2.1767  -28.6732  -48.7562 O.2       14 UNK        -0.5000 
     84 N          -0.9422  -26.9137  -48.0541 N.am      15 UNK        -0.5000 
     85 CA         -0.0051  -26.8168  -49.1718 C.3       15 UNK         0.1400 
     86 CB          1.4008  -26.5371  -48.6101 C.3       15 UNK        -0.1800 
     87 C          -0.4699  -25.7450  -50.1790 C.2       15 UNK         0.5000 
     88 O           0.3158  -24.8851  -50.5853 O.2       15 UNK        -0.5000 
     89 N          -1.7622  -25.8006  -50.5397 N.am      16 UNK        -0.5000 
     90 CA         -2.4523  -24.9926  -51.5572 C.3       16 UNK         0.1400 
     91 CB         -1.9797  -25.4158  -52.9638 C.3       16 UNK        -0.1800 
     92 C          -2.3548  -23.4639  -51.3524 C.2       16 UNK         0.5000 
     93 O          -2.4286  -22.7134  -52.3264 O.2       16 UNK        -0.5000 
     94 N          -2.1406  -23.0303  -50.0999 N.am      17 UNK        -0.5000 
     95 CA         -1.8938  -21.6437  -49.6795 C.3       17 UNK         0.1400 
     96 CB         -3.1750  -20.8026  -49.8189 C.3       17 UNK        -0.1800 
     97 C          -0.6906  -20.9894  -50.3913 C.2       17 UNK         0.5000 
     98 O          -0.7001  -19.7818  -50.6280 O.2       17 UNK        -0.5000 
     99 N           0.2959  -21.8101  -50.7910 N.am      18 UNK        -0.5000 
    100 CA         1.4477  -21.4486  -51.6281 C.3       18 UNK         0.1400 
    101 CB         2.4054  -20.5172  -50.8542 C.3       18 UNK        -0.1800 
    102 C          1.0516  -20.8738  -53.0115 C.2       18 UNK         0.5000 
    103 O          1.8537  -20.1769  -53.6348 O.2       18 UNK        -0.5000 
    104 N         -0.1827  -21.1651  -53.4549 N.am      19 UNK        -0.5000 
    105 CA        -0.8610  -20.6544  -54.6480 C.3       19 UNK         0.1400 
    106 CB        -0.1638  -21.1495  -55.9321 C.3       19 UNK        -0.1800 
    107 C         -1.0898  -19.1253  -54.6381 C.2       19 UNK         0.5000 
    108 O         -1.2402  -18.5323  -55.7082 O.2       19 UNK        -0.5000 
    109 N         -1.1295  -18.5053  -53.4484 N.am      20 UNK        -0.5000 
    110 CA        -1.3492  -17.0708  -53.2587 C.3       20 UNK         0.1400 
    111 CB        -1.0084  -16.6965  -51.8092 C.3       20 UNK        -0.1800 
    112 C         -2.7925  -16.6705  -53.6147 C.2       20 UNK         0.5000 
    113 O         -3.6962  -16.8485  -52.7980 O.2       20 UNK        -0.5000 
    114 N         -2.9834  -16.1734  -54.8442 N.am      21 UNK        -0.5000 
    115 CA        -4.2364  -15.7500  -55.4863 C.3       21 UNK         0.1400 
    116 CB        -4.9424  -14.6352  -54.6899 C.3       21 UNK        -0.1800 
    117 C         -5.2012  -16.9083  -55.8094 C.2       21 UNK         0.5000 
    118 O         -5.6953  -16.9827  -56.9349 O.2       21 UNK        -0.5000 
    119 N         -5.4346  -17.7981  -54.8398 N.am      22 UNK        -0.5000 
    120 CA        -6.2435  -19.0197  -54.9706 C.3       22 UNK         0.1400 
    121 C         -5.5034  -20.2309  -55.6154 C.2       22 UNK         0.5000 
    122 N         -4.2518  -20.1059  -56.0407 N.am      22 UNK        -0.7600 
    123 O         -6.0867  -21.3013  -55.7646 O.2       22 UNK        -0.5000 
    124 C124       -6.9582  -19.3836  -53.6420 C.3       23 UNK        -0.0398 
    125 S125       -5.8497  -19.5779  -52.2004 S.3       23 UNK        -0.2404 
    126 C126       -6.4123  -18.1973  -51.1543 C.3       23 UNK        -0.0205 
    127 H127       -3.0604  -14.9651  -41.6535 H         1 UNK         0.0600 
    128 H128       -2.1126  -13.6402  -40.9680 H         1 UNK         0.0600 
    129 H129       -1.3822  -14.7131  -42.1575 H         1 UNK         0.0600 
    130 H130       -1.9022  -14.4408  -44.4079 H         1 UNK         0.3000 
    131 H131       -3.7536  -12.3830  -45.3233 H         1 UNK         0.0600 
    132 H132       -2.7744  -12.9929  -47.6066 H         1 UNK         0.0800 
    133 H133       -1.7351  -14.1477  -46.8120 H         1 UNK         0.0800 
    134 H134       -2.4698  -16.6590  -47.1019 H         1 UNK         0.0800 
    135 H135       -2.7359  -15.8224  -48.6168 H         1 UNK         0.0800 
    136 H136       -4.4689  -16.5562  -50.1485 H         1 UNK         0.1150 
    137 H137       -6.9657  -19.8748  -49.0868 H         1 UNK         0.1150 
    138 H138       -4.2890  -18.1947  -46.1912 H         1 UNK         0.1150 
    139 H139       -5.9634  -19.8060  -45.4885 H         1 UNK         0.0800 
    140 H140       -7.2460  -20.2517  -46.5819 H         1 UNK         0.0800 
    141 H141       -3.7424  -21.0195  -45.1797 H         1 UNK         0.0800 
    142 H142       -3.2730  -20.7861  -46.8415 H         1 UNK         0.0800 
    143 H143       -3.0787  -23.3591  -47.0359 H         1 UNK         0.0600 
    144 H144       -1.1551  -21.5416  -46.0454 H         1 UNK         0.3000 
    145 H145        1.5943  -23.8351  -45.9326 H         1 UNK         0.0600 
    146 H146        2.5775  -22.1931  -47.4828 H         1 UNK         0.0600 
    147 H147        1.3892  -23.1651  -48.3357 H         1 UNK         0.0600 
    148 H148        0.9907  -21.5255  -47.8463 H         1 UNK         0.0600 
    149 H149        1.4921  -21.0416  -45.4507 H         1 UNK         0.3000 
    150 H150        0.5167  -21.2294  -41.9832 H         1 UNK         0.0600 
    151 H151        2.9885  -21.4747  -42.0962 H         1 UNK         0.0600 
    152 H152        2.5405  -19.7923  -41.8556 H         1 UNK         0.0600 
    153 H153        3.0628  -20.3480  -43.4438 H         1 UNK         0.0600 
    154 H154        0.9473  -18.9755  -43.6491 H         1 UNK         0.3000 
    155 H155       -2.3829  -18.7289  -44.9714 H         1 UNK         0.0600 
    156 H156       -0.7694  -16.9621  -43.0656 H         1 UNK         0.0600 
    157 H157       -2.3852  -17.5845  -42.7562 H         1 UNK         0.0600 
    158 H158       -2.1259  -16.4568  -44.0769 H         1 UNK         0.0600 
    159 H159       -0.0086  -17.1858  -45.4286 H         1 UNK         0.3000 
    160 H160        1.2032  -19.1283  -48.1800 H         1 UNK         0.0600 
    161 H161        1.0650  -16.8972  -49.2643 H         1 UNK         0.0600 
    162 H162       -0.0996  -16.3580  -48.0516 H         1 UNK         0.0600 
    163 H163       -0.5191  -17.6511  -49.1426 H         1 UNK         0.0600 
    164 H164        2.0458  -16.7289  -46.7846 H         1 UNK         0.3000 
    165 H165        4.1985  -18.3773  -44.4768 H         1 UNK         0.0600 
    166 H166        5.9413  -16.9977  -45.5763 H         1 UNK         0.0600 
    167 H167        5.5488  -18.3841  -46.5804 H         1 UNK         0.0600 
    168 H168        4.9234  -16.7945  -47.0026 H         1 UNK         0.0600 
    169 H169        3.8145  -15.6233  -45.1242 H         1 UNK         0.3000 
    170 H170        0.9125  -15.0149  -43.1894 H         1 UNK         0.0600 
    171 H171        2.7156  -14.9908  -41.4596 H         1 UNK         0.0600 
    172 H172        3.8138  -14.2189  -42.5977 H         1 UNK         0.0600 
    173 H173        2.3690  -13.3713  -42.0439 H         1 UNK         0.0600 
    174 H174        2.6408  -13.2442  -44.5743 H         1 UNK         0.3000 
    175 H175        1.4201  -12.2495  -46.6098 H         1 UNK         0.0600 
    176 H176        3.3853  -14.3897  -47.6449 H         1 UNK         0.0600 
    177 H177        3.3393  -12.7373  -48.2393 H         1 UNK         0.0600 
    178 H178        3.7869  -13.0503  -46.5766 H         1 UNK         0.0600 
    179 H179        0.4618  -14.5733  -48.0342 H         1 UNK         0.3000 
    180 H180        1.6774  -11.1902  -48.7004 H         1 UNK         0.0600 
    181 H181       -0.3516  -10.8252  -50.9712 H         1 UNK         0.0600 
    182 H182        1.3450  -11.2495  -51.1777 H         1 UNK         0.0600 
    183 H183        0.9078   -9.6872  -50.5017 H         1 UNK         0.0600 
    184 H184       -1.2488  -11.1064  -48.3160 H         1 UNK         0.3000 
    185 H185       -0.8830   -9.0266  -45.5083 H         1 UNK         0.0600 
    186 H186       -1.5327   -7.3738  -47.2655 H         1 UNK         0.0600 
    187 H187       -2.5951   -8.5611  -48.0117 H         1 UNK         0.0600 
    188 H188       -2.9410   -7.9543  -46.3915 H         1 UNK         0.0600 
    189 H189       -3.0840  -10.5127  -46.5642 H         1 UNK         0.3000 
    190 H190       -2.1766  -22.5290  -43.6593 H         1 UNK         0.3000 
    191 H191       -3.9247  -24.3353  -42.3491 H         1 UNK         0.0600 
    192 H192       -2.4135  -23.9729  -40.4022 H         1 UNK         0.0600 
    193 H193       -2.7712  -22.4534  -41.2102 H         1 UNK         0.0600 
    194 H194       -1.2096  -23.2330  -41.4492 H         1 UNK         0.0600 
    195 H195       -0.6656  -24.8203  -43.6969 H         1 UNK         0.3000 
    196 H196       -0.3822  -27.5616  -42.8097 H         1 UNK         0.0600 
    197 H197        1.6447  -27.4939  -44.2286 H         1 UNK         0.0600 
    198 H198        1.5536  -26.0338  -43.2566 H         1 UNK         0.0600 
    199 H199        1.1213  -25.9869  -44.9654 H         1 UNK         0.0600 
    200 H200       -2.3565  -26.2249  -45.1960 H         1 UNK         0.3000 
    201 H201       -3.5560  -26.9167  -46.8912 H         1 UNK         0.0600 
    202 H202       -4.1765  -28.8391  -45.4068 H         1 UNK         0.0600 
    203 H203       -2.8875  -29.8047  -46.1253 H         1 UNK         0.0600 
    204 H204       -4.2373  -29.2612  -47.1096 H         1 UNK         0.0600 
    205 H205       -0.8564  -26.1789  -47.3520 H         1 UNK         0.3000 
    206 H206        0.0348  -27.7662  -49.7093 H         1 UNK         0.0600 
    207 H207        1.7106  -27.3230  -47.9211 H         1 UNK         0.0600 
    208 H208        2.1426  -26.4946  -49.4085 H         1 UNK         0.0600 
    209 H209        1.4397  -25.5903  -48.0720 H         1 UNK         0.0600 
    210 H210       -2.3181  -26.5364  -50.1254 H         1 UNK         0.3000 
    211 H211       -3.5121  -25.2378  -51.4759 H         1 UNK         0.0600 
    212 H212       -0.9370  -25.1457  -53.1356 H         1 UNK         0.0600 
    213 H213       -2.5749  -24.9364  -53.7420 H         1 UNK         0.0600 
    214 H214       -2.0748  -26.4924  -53.1049 H         1 UNK         0.0600 
    215 H215       -2.0649  -23.7314  -49.3777 H         1 UNK         0.3000 
    216 H216       -1.6329  -21.6802  -48.6261 H         1 UNK         0.0600 
    217 H217       -3.0587  -19.8340  -49.3317 H         1 UNK         0.0600 
    218 H218       -4.0311  -21.2964  -49.3615 H         1 UNK         0.0600 
    219 H219       -3.4176  -20.6134  -50.8643 H         1 UNK         0.0600 
    220 H220        0.2018  -22.8028  -50.5989 H         1 UNK         0.3000 
    221 H221        1.9788  -22.3802  -51.8279 H         1 UNK         0.0600 
    222 H222        1.9657  -19.5339  -50.6841 H         1 UNK         0.0600 
    223 H223        2.6698  -20.9382  -49.8845 H         1 UNK         0.0600 
    224 H224        3.3350  -20.3669  -51.4040 H         1 UNK         0.0600 
    225 H225       -0.7752  -21.7381  -52.8614 H         1 UNK         0.3000 
    226 H226       -1.8567  -21.0992  -54.6271 H         1 UNK         0.0600 
    227 H227       -0.7564  -20.9122  -56.8163 H         1 UNK         0.0600 
    228 H228        0.8161  -20.6902  -56.0642 H         1 UNK         0.0600 
    229 H229       -0.0292  -22.2310  -55.9155 H         1 UNK         0.0600 
    230 H230       -1.0169  -19.0537  -52.6023 H         1 UNK         0.3000 
    231 H231       -0.6618  -16.5284  -53.9111 H         1 UNK         0.0600 
    232 H232        0.0212  -16.9601  -51.5676 H         1 UNK         0.0600 
    233 H233       -1.6630  -17.2076  -51.1022 H         1 UNK         0.0600 
    234 H234       -1.1204  -15.6244  -51.6429 H         1 UNK         0.0600 
    235 H235       -2.1774  -16.1550  -55.4549 H         1 UNK         0.3000 
    236 H236       -3.9378  -15.3199  -56.4436 H         1 UNK         0.0600 
    237 H237       -4.2708  -13.7970  -54.5049 H         1 UNK         0.0600 
    238 H238       -5.7997  -14.2493  -55.2427 H         1 UNK         0.0600 
    239 H239       -5.3123  -14.9880  -53.7269 H         1 UNK         0.0600 
    240 H240       -4.9653  -17.6623  -53.9475 H         1 UNK         0.3000 
    241 H241       -7.0421  -18.7959  -55.6803 H         1 UNK         0.0600 
    242 H242       -3.8067  -20.8932  -56.4839 H         1 UNK         0.3800 
    243 H243       -3.7670  -19.2259  -55.9663 H         1 UNK         0.3800 
    244 H244       -7.6964  -18.6117  -53.4218 H         1 UNK         0.0800 
    245 H245       -7.5371  -20.3018  -53.7534 H         1 UNK         0.0800 
    246 H246       -7.4964  -18.2453  -51.0423 H         1 UNK         0.0800 
    247 H247       -6.1954  -17.2550  -51.6599 H         1 UNK         0.0800 
@<TRIPOS>BOND
     1    1    2 1    
     2    1  127 1    
     3    1  128 1    
     4    1  129 1    
     5    2    3 2    
     6    2    4 am   BACKBONE|DICT|INTERRES
     7    4    5 1    
     8    4  130 1    
     9    5    6 1    
    10    5   65 1    
    11    5  131 1    
    12    6    7 1    
    13    6  132 1    
    14    6  133 1    
    15    7    8 1    
    16    8    9 1    
    17    8  134 1    
    18    8  135 1    
    19    9   10 ar   
    20    9   14 ar   
    21   10   11 ar   
    22   10  136 1    
    23   11   12 ar   
    24   11  126 1    
    25   12   13 ar   
    26   12  137 1    
    27   13   14 ar   
    28   13   15 1    
    29   14  138 1    
    30   15   16 1    
    31   15  139 1    
    32   15  140 1    
    33   16   17 1    
    34   17   18 1    
    35   17  141 1    
    36   17  142 1    
    37   18   19 1    
    38   18   67 1    
    39   18  143 1    
    40   19   20 am   BACKBONE|DICT|INTERRES
    41   19  144 1    
    42   20   21 2    
    43   20   22 1    
    44   22   23 1    
    45   22   24 1    
    46   22  145 1    
    47   23  146 1    
    48   23  147 1    
    49   23  148 1    
    50   24   25 am   BACKBONE|DICT|INTERRES
    51   24  149 1    
    52   25   26 2    
    53   25   27 1    
    54   27   28 1    
    55   27   29 1    
    56   27  150 1    
    57   28  151 1    
    58   28  152 1    
    59   28  153 1    
    60   29   30 am   BACKBONE|DICT|INTERRES
    61   29  154 1    
    62   30   31 2    
    63   30   32 1    
    64   32   33 1    
    65   32   34 1    
    66   32  155 1    
    67   33  156 1    
    68   33  157 1    
    69   33  158 1    
    70   34   35 am   BACKBONE|DICT|INTERRES
    71   34  159 1    
    72   35   36 2    
    73   35   37 1    
    74   37   38 1    
    75   37   39 1    
    76   37  160 1    
    77   38  161 1    
    78   38  162 1    
    79   38  163 1    
    80   39   40 am   BACKBONE|DICT|INTERRES
    81   39  164 1    
    82   40   41 2    
    83   40   42 1    
    84   42   43 1    
    85   42   44 1    
    86   42  165 1    
    87   43  166 1    
    88   43  167 1    
    89   43  168 1    
    90   44   45 am   BACKBONE|DICT|INTERRES
    91   44  169 1    
    92   45   46 2    
    93   45   47 1    
    94   47   48 1    
    95   47   49 1    
    96   47  170 1    
    97   48  171 1    
    98   48  172 1    
    99   48  173 1    
   100   49   50 am   BACKBONE|DICT|INTERRES
   101   49  174 1    
   102   50   51 2    
   103   50   52 1    
   104   52   53 1    
   105   52   54 1    
   106   52  175 1    
   107   53  176 1    
   108   53  177 1    
   109   53  178 1    
   110   54   55 am   BACKBONE|DICT|INTERRES
   111   54  179 1    
   112   55   56 2    
   113   55   57 1    
   114   57   58 1    
   115   57   59 1    
   116   57  180 1    
   117   58  181 1    
   118   58  182 1    
   119   58  183 1    
   120   59   60 am   BACKBONE|DICT|INTERRES
   121   59  184 1    
   122   60   61 2    
   123   60   62 1    
   124   62   63 1    
   125   62   64 1    
   126   62  185 1    
   127   63  186 1    
   128   63  187 1    
   129   63  188 1    
   130   64   65 am   BACKBONE|DICT|INTERRES
   131   64  189 1    
   132   65   66 2    
   133   67   68 2    
   134   67   69 am   BACKBONE|DICT|INTERRES
   135   69   70 1    
   136   69  190 1    
   137   70   71 1    
   138   70   72 1    
   139   70  191 1    
   140   71  192 1    
   141   71  193 1    
   142   71  194 1    
   143   72   73 2    
   144   72   74 am   BACKBONE|DICT|INTERRES
   145   74   75 1    
   146   74  195 1    
   147   75   76 1    
   148   75   77 1    
   149   75  196 1    
   150   76  197 1    
   151   76  198 1    
   152   76  199 1    
   153   77   78 2    
   154   77   79 am   BACKBONE|DICT|INTERRES
   155   79   80 1    
   156   79  200 1    
   157   80   81 1    
   158   80   82 1    
   159   80  201 1    
   160   81  202 1    
   161   81  203 1    
   162   81  204 1    
   163   82   83 2    
   164   82   84 am   BACKBONE|DICT|INTERRES
   165   84   85 1    
   166   84  205 1    
   167   85   86 1    
   168   85   87 1    
   169   85  206 1    
   170   86  207 1    
   171   86  208 1    
   172   86  209 1    
   173   87   88 2    
   174   87   89 am   BACKBONE|DICT|INTERRES
   175   89   90 1    
   176   89  210 1    
   177   90   91 1    
   178   90   92 1    
   179   90  211 1    
   180   91  212 1    
   181   91  213 1    
   182   91  214 1    
   183   92   93 2    
   184   92   94 am   BACKBONE|DICT|INTERRES
   185   94   95 1    
   186   94  215 1    
   187   95   96 1    
   188   95   97 1    
   189   95  216 1    
   190   96  217 1    
   191   96  218 1    
   192   96  219 1    
   193   97   98 2    
   194   97   99 am   BACKBONE|DICT|INTERRES
   195   99  100 1    
   196   99  220 1    
   197  100  101 1    
   198  100  102 1    
   199  100  221 1    
   200  101  222 1    
   201  101  223 1    
   202  101  224 1    
   203  102  103 2    
   204  102  104 am   BACKBONE|DICT|INTERRES
   205  104  105 1    
   206  104  225 1    
   207  105  106 1    
   208  105  107 1    
   209  105  226 1    
   210  106  227 1    
   211  106  228 1    
   212  106  229 1    
   213  107  108 2    
   214  107  109 am   BACKBONE|DICT|INTERRES
   215  109  110 1    
   216  109  230 1    
   217  110  111 1    
   218  110  112 1    
   219  110  231 1    
   220  111  232 1    
   221  111  233 1    
   222  111  234 1    
   223  112  113 2    
   224  112  114 am   BACKBONE|DICT|INTERRES
   225  114  115 1    
   226  114  235 1    
   227  115  116 1    
   228  115  117 1    
   229  115  236 1    
   230  116  237 1    
   231  116  238 1    
   232  116  239 1    
   233  117  118 2    
   234  117  119 am   BACKBONE|DICT|INTERRES
   235  119  120 1    
   236  119  240 1    
   237  120  121 1    
   238  120  124 1    
   239  120  241 1    
   240  121  122 am   BACKBONE|DICT|INTERRES
   241  121  123 2    
   242  122  242 1    
   243  122  243 1    
   244  124  125 1    
   245  124  244 1    
   246  124  245 1    
   247  125  126 1    
   248  126  246 1    
   249  126  247 1    
@<TRIPOS>SUBSTRUCTURE
     1 UNK         1 GROUP             0       ****    0 ROOT    
