@<TRIPOS>MOLECULE
3R540
247   249    1
SMALL
USER_CHARGES


@<TRIPOS>ATOM
      1 CA         -3.0041  -11.3628  -44.6117 C.3       0 UNK        -0.1800 
      2 C          -1.8146  -11.3586  -45.5613 C.2       0 UNK         0.5000 
      3 O          -0.9133  -10.5332  -45.4095 O.2       0 UNK        -0.5000 
      4 N          -1.8134  -12.2741  -46.5395 N.am      1 UNK        -0.5000 
      5 CA         -0.7342  -12.4878  -47.5084 C.3       1 UNK         0.1400 
      6 C6         -1.1657  -13.4727  -48.6217 C.3       23 UNK        -0.0398 
      7 S7         -0.1164  -13.3785  -50.1117 S.3       23 UNK        -0.2404 
      8 C8          0.7103  -15.0096  -50.0738 C.3       23 UNK        -0.0205 
      9 C9         -0.1552  -16.2279  -50.4167 C.ar      23 UNK        -0.0193 
     10 C10        -1.5382  -16.1553  -50.6402 C.ar      23 UNK        -0.1150 
     11 C11        -2.2801  -17.3040  -50.9283 C.ar      23 UNK        -0.0193 
     12 C12        -1.6317  -18.5377  -51.0097 C.ar      23 UNK        -0.1150 
     13 C13        -0.2533  -18.6277  -50.8107 C.ar      23 UNK        -0.0193 
     14 C14         0.4745  -17.4739  -50.5071 C.ar      23 UNK        -0.1150 
     15 C15         0.4474  -19.9718  -50.9297 C.3       23 UNK        -0.0205 
     16 S16         0.6966  -20.7464  -49.3043 S.3       23 UNK        -0.2404 
     17 C17        -1.0278  -20.9871  -48.7599 C.3       23 UNK        -0.0398 
     18 CA         -1.1408  -22.1034  -47.7006 C.3       11 UNK         0.1400 
     19 N          -0.5178  -21.7332  -46.4302 N.am      11 UNK        -0.5000 
     20 C          -0.2215  -22.5933  -45.4487 C.2       10 UNK         0.5000 
     21 O          -0.4436  -23.8017  -45.5127 O.2       10 UNK        -0.5000 
     22 CA          0.3674  -21.9947  -44.1591 C.3       10 UNK         0.1400 
     23 CB          1.8481  -21.6317  -44.3444 C.3       10 UNK        -0.1800 
     24 N          -0.3754  -20.8198  -43.7026 N.am      10 UNK        -0.5000 
     25 C          -1.6631  -20.8364  -43.3305 C.2       9 UNK         0.5000 
     26 O          -2.3546  -21.8549  -43.3008 O.2       9 UNK        -0.5000 
     27 CA         -2.2958  -19.4818  -42.9728 C.3       9 UNK         0.1400 
     28 CB         -1.9387  -19.0711  -41.5365 C.3       9 UNK        -0.1800 
     29 N          -1.8954  -18.4255  -43.9018 N.am      9 UNK        -0.5000 
     30 C          -2.3082  -18.3426  -45.1747 C.2       8 UNK         0.5000 
     31 O          -3.0772  -19.1464  -45.6996 O.2       8 UNK        -0.5000 
     32 CA         -1.7367  -17.1805  -46.0096 C.3       8 UNK         0.1400 
     33 CB         -2.4660  -15.8764  -45.6532 C.3       8 UNK        -0.1800 
     34 N          -0.2940  -16.9951  -45.8342 N.am      8 UNK        -0.5000 
     35 C           0.6277  -17.9472  -46.0425 C.2       7 UNK         0.5000 
     36 O           0.3646  -19.0777  -46.4423 O.2       7 UNK        -0.5000 
     37 CA          2.0794  -17.6109  -45.6671 C.3       7 UNK         0.1400 
     38 CB          2.7809  -16.8811  -46.8190 C.3       7 UNK        -0.1800 
     39 N           2.1829  -16.8346  -44.4284 N.am      7 UNK        -0.5000 
     40 C           1.7715  -17.2716  -43.2266 C.2       6 UNK         0.5000 
     41 O           1.2167  -18.3588  -43.0510 O.2       6 UNK        -0.5000 
     42 CA          2.0165  -16.3262  -42.0347 C.3       6 UNK         0.1400 
     43 CB          1.8376  -17.0054  -40.6614 C.3       6 UNK        -0.1800 
     44 N           3.3095  -15.6475  -42.1323 N.am      6 UNK        -0.5000 
     45 C           4.5394  -16.1801  -42.0797 C.2       5 UNK         0.5000 
     46 O           4.7740  -17.3661  -41.8473 O.2       5 UNK        -0.5000 
     47 CA          5.7112  -15.2170  -42.3526 C.3       5 UNK         0.1400 
     48 CB          6.1833  -15.3581  -43.8090 C.3       5 UNK        -0.1800 
     49 N           5.3357  -13.8214  -42.1129 N.am      5 UNK        -0.5000 
     50 C           5.4717  -13.1819  -40.9431 C.2       4 UNK         0.5000 
     51 O           6.0241  -13.6694  -39.9562 O.2       4 UNK        -0.5000 
     52 CA          4.8753  -11.7618  -40.8540 C.3       4 UNK         0.1400 
     53 CB          5.9081  -10.7149  -41.2979 C.3       4 UNK        -0.1800 
     54 N           3.6557  -11.6001  -41.6499 N.am      4 UNK        -0.5000 
     55 C           2.4839  -12.1931  -41.3796 C.2       3 UNK         0.5000 
     56 O           2.2848  -12.8847  -40.3813 O.2       3 UNK        -0.5000 
     57 CA          1.3480  -12.0182  -42.4094 C.3       3 UNK         0.1400 
     58 CB          0.4093  -10.8823  -41.9761 C.3       3 UNK        -0.1800 
     59 N           1.7830  -11.7768  -43.7906 N.am      3 UNK        -0.5000 
     60 C           2.5983  -12.5614  -44.5099 C.2       2 UNK         0.5000 
     61 O           3.1473  -13.5688  -44.0616 O.2       2 UNK        -0.5000 
     62 CA          2.8006  -12.1549  -45.9825 C.3       2 UNK         0.1400 
     63 CB          3.7714  -13.0814  -46.7383 C.3       2 UNK        -0.1800 
     64 N           1.5293  -12.0380  -46.7023 N.am      2 UNK        -0.5000 
     65 C           0.5473  -12.9496  -46.7837 C.2       1 UNK         0.5000 
     66 O           0.5903  -14.0789  -46.2877 O.2       1 UNK        -0.5000 
     67 C          -2.6036  -22.5535  -47.5311 C.2       11 UNK         0.5000 
     68 O          -3.0500  -23.3985  -48.3062 O.2       11 UNK        -0.5000 
     69 N          -3.3260  -22.0215  -46.5354 N.am      12 UNK        -0.5000 
     70 CA         -4.6637  -22.4908  -46.1704 C.3       12 UNK         0.1400 
     71 CB         -5.3427  -21.4900  -45.2244 C.3       12 UNK        -0.1800 
     72 C          -4.6271  -23.9017  -45.5583 C.2       12 UNK         0.5000 
     73 O          -5.4263  -24.7508  -45.9525 O.2       12 UNK        -0.5000 
     74 N          -3.6734  -24.1401  -44.6463 N.am      13 UNK        -0.5000 
     75 CA         -3.4360  -25.4374  -44.0089 C.3       13 UNK         0.1400 
     76 CB         -2.4283  -25.2665  -42.8619 C.3       13 UNK        -0.1800 
     77 C          -2.9618  -26.5176  -45.0006 C.2       13 UNK         0.5000 
     78 O          -3.4196  -27.6581  -44.9231 O.2       13 UNK        -0.5000 
     79 N          -2.0769  -26.1331  -45.9303 N.am      14 UNK        -0.5000 
     80 CA         -1.5550  -26.9906  -46.9980 C.3       14 UNK         0.1400 
     81 CB         -0.2596  -26.3656  -47.5405 C.3       14 UNK        -0.1800 
     82 C          -2.5508  -27.2248  -48.1530 C.2       14 UNK         0.5000 
     83 O          -2.3011  -28.0945  -48.9878 O.2       14 UNK        -0.5000 
     84 N          -3.6292  -26.4279  -48.2026 N.am      15 UNK        -0.5000 
     85 CA         -4.6556  -26.3587  -49.2510 C.3       15 UNK         0.1400 
     86 CB         -5.4001  -27.6998  -49.4105 C.3       15 UNK        -0.1800 
     87 C          -4.1369  -25.8014  -50.5953 C.2       15 UNK         0.5000 
     88 O          -4.8190  -25.9171  -51.6135 O.2       15 UNK        -0.5000 
     89 N          -2.9714  -25.1428  -50.5721 N.am      16 UNK        -0.5000 
     90 CA         -2.3932  -24.4095  -51.6965 C.3       16 UNK         0.1400 
     91 CB         -0.9357  -24.0528  -51.3714 C.3       16 UNK        -0.1800 
     92 C          -3.2068  -23.1478  -52.0379 C.2       16 UNK         0.5000 
     93 O          -3.3144  -22.7904  -53.2102 O.2       16 UNK        -0.5000 
     94 N          -3.8111  -22.5209  -51.0178 N.am      17 UNK        -0.5000 
     95 CA         -4.7354  -21.3983  -51.1848 C.3       17 UNK         0.1400 
     96 CB         -5.0157  -20.7499  -49.8218 C.3       17 UNK        -0.1800 
     97 C          -6.0449  -21.8239  -51.8758 C.2       17 UNK         0.5000 
     98 O          -6.5459  -21.0939  -52.7298 O.2       17 UNK        -0.5000 
     99 N          -6.5423  -23.0241  -51.5399 N.am      18 UNK        -0.5000 
    100 CA        -7.7078  -23.6479  -52.1742 C.3       18 UNK         0.1400 
    101 CB        -8.1831  -24.8358  -51.3236 C.3       18 UNK        -0.1800 
    102 C         -7.4242  -24.0842  -53.6252 C.2       18 UNK         0.5000 
    103 O         -8.3134  -23.9975  -54.4721 O.2       18 UNK        -0.5000 
    104 N         -6.1767  -24.4941  -53.8950 N.am      19 UNK        -0.5000 
    105 CA        -5.6489  -24.7925  -55.2293 C.3       19 UNK         0.1400 
    106 CB        -4.3927  -25.6658  -55.0812 C.3       19 UNK        -0.1800 
    107 C         -5.3422  -23.5328  -56.0718 C.2       19 UNK         0.5000 
    108 O         -4.9736  -23.6720  -57.2388 O.2       19 UNK        -0.5000 
    109 N         -5.5003  -22.3400  -55.4781 N.am      20 UNK        -0.5000 
    110 CA        -5.3008  -21.0116  -56.0603 C.3       20 UNK         0.1400 
    111 CB        -6.2808  -20.7587  -57.2254 C.3       20 UNK        -0.1800 
    112 C         -3.8307  -20.7167  -56.4206 C.2       20 UNK         0.5000 
    113 O         -3.5572  -20.0834  -57.4417 O.2       20 UNK        -0.5000 
    114 N         -2.9032  -21.1319  -55.5455 N.am      21 UNK        -0.5000 
    115 CA        -1.4684  -20.8302  -55.6343 C.3       21 UNK         0.1400 
    116 CB        -0.6962  -21.8258  -54.7538 C.3       21 UNK        -0.1800 
    117 C         -1.1113  -19.3750  -55.2487 C.2       21 UNK         0.5000 
    118 O          0.0668  -19.0173  -55.2728 O.2       21 UNK        -0.5000 
    119 N         -2.1207  -18.5731  -54.8866 N.am      22 UNK        -0.5000 
    120 CA        -2.0279  -17.1749  -54.4363 C.3       22 UNK         0.1400 
    121 C         -1.4506  -16.1679  -55.4752 C.2       22 UNK         0.5000 
    122 N         -1.4089  -16.4899  -56.7625 N.am      22 UNK        -0.7600 
    123 O         -1.0395  -15.0716  -55.1060 O.2       22 UNK        -0.5000 
    124 C124       -3.3941  -16.6534  -53.9075 C.3       23 UNK        -0.0398 
    125 S125       -4.2718  -17.8163  -52.8018 S.3       23 UNK        -0.2404 
    126 C126       -3.7820  -17.2107  -51.1561 C.3       23 UNK        -0.0205 
    127 H127       -3.4791  -10.3819  -44.6006 H         1 UNK         0.0600 
    128 H128       -3.7530  -12.0998  -44.9026 H         1 UNK         0.0600 
    129 H129       -2.6747  -11.5951  -43.5991 H         1 UNK         0.0600 
    130 H130       -2.5857  -12.9211  -46.5972 H         1 UNK         0.3000 
    131 H131       -0.5421  -11.5207  -47.9785 H         1 UNK         0.0600 
    132 H132       -1.2000  -14.4992  -48.2555 H         1 UNK         0.0800 
    133 H133       -2.1813  -13.2390  -48.9440 H         1 UNK         0.0800 
    134 H134        1.5433  -14.9724  -50.7772 H         1 UNK         0.0800 
    135 H135        1.1502  -15.1554  -49.0867 H         1 UNK         0.0800 
    136 H136       -2.0545  -15.2092  -50.5927 H         1 UNK         0.1150 
    137 H137       -2.2010  -19.4254  -51.2440 H         1 UNK         0.1150 
    138 H138        1.5401  -17.5489  -50.3404 H         1 UNK         0.1150 
    139 H139        1.4169  -19.8380  -51.4115 H         1 UNK         0.0800 
    140 H140       -0.1203  -20.6465  -51.5720 H         1 UNK         0.0800 
    141 H141       -1.6251  -21.2302  -49.6395 H         1 UNK         0.0800 
    142 H142       -1.4161  -20.0432  -48.3724 H         1 UNK         0.0800 
    143 H143       -0.6007  -22.9729  -48.0800 H         1 UNK         0.0600 
    144 H144       -0.2615  -20.7517  -46.3267 H         1 UNK         0.3000 
    145 H145        0.2990  -22.7546  -43.3779 H         1 UNK         0.0600 
    146 H146        2.2764  -21.2376  -43.4226 H         1 UNK         0.0600 
    147 H147        2.4311  -22.5089  -44.6274 H         1 UNK         0.0600 
    148 H148        1.9855  -20.8822  -45.1235 H         1 UNK         0.0600 
    149 H149        0.1296  -19.9393  -43.6738 H         1 UNK         0.3000 
    150 H150       -3.3806  -19.5934  -43.0316 H         1 UNK         0.0600 
    151 H151       -0.8630  -18.9551  -41.4041 H         1 UNK         0.0600 
    152 H152       -2.2758  -19.8239  -40.8229 H         1 UNK         0.0600 
    153 H153       -2.4149  -18.1291  -41.2644 H         1 UNK         0.0600 
    154 H154       -1.2107  -17.7625  -43.5701 H         1 UNK         0.3000 
    155 H155       -1.9153  -17.4033  -47.0638 H         1 UNK         0.0600 
    156 H156       -2.3015  -15.5916  -44.6132 H         1 UNK         0.0600 
    157 H157       -3.5420  -15.9764  -45.8019 H         1 UNK         0.0600 
    158 H158       -2.1286  -15.0532  -46.2762 H         1 UNK         0.0600 
    159 H159        0.0229  -16.0691  -45.5711 H         1 UNK         0.3000 
    160 H160        2.6060  -18.5524  -45.5002 H         1 UNK         0.0600 
    161 H161        2.2429  -15.9784  -47.1017 H         1 UNK         0.0600 
    162 H162        2.8296  -17.5164  -47.7043 H         1 UNK         0.0600 
    163 H163        3.8025  -16.6061  -46.5564 H         1 UNK         0.0600 
    164 H164        2.6010  -15.9156  -44.4947 H         1 UNK         0.3000 
    165 H165        1.2606  -15.5436  -42.1113 H         1 UNK         0.0600 
    166 H166        2.0405  -16.3078  -39.8488 H         1 UNK         0.0600 
    167 H167        2.4987  -17.8640  -40.5417 H         1 UNK         0.0600 
    168 H168        0.8153  -17.3619  -40.5340 H         1 UNK         0.0600 
    169 H169        3.2577  -14.6798  -42.4279 H         1 UNK         0.3000 
    170 H170        6.5377  -15.4980  -41.6965 H         1 UNK         0.0600 
    171 H171        6.5021  -16.3800  -44.0185 H         1 UNK         0.0600 
    172 H172        5.3915  -15.1109  -44.5173 H         1 UNK         0.0600 
    173 H173        7.0316  -14.7048  -44.0133 H         1 UNK         0.0600 
    174 H174        4.8274  -13.3662  -42.8613 H         1 UNK         0.3000 
    175 H175        4.6258  -11.5723  -39.8077 H         1 UNK         0.0600 
    176 H176        6.1832  -10.8387  -42.3461 H         1 UNK         0.0600 
    177 H177        5.5249   -9.7026  -41.1678 H         1 UNK         0.0600 
    178 H178        6.8219  -10.7935  -40.7073 H         1 UNK         0.0600 
    179 H179        3.7266  -11.0389  -42.4857 H         1 UNK         0.3000 
    180 H180        0.7754  -12.9477  -42.4140 H         1 UNK         0.0600 
    181 H181        0.9140   -9.9156  -41.9954 H         1 UNK         0.0600 
    182 H182        0.0421  -11.0415  -40.9612 H         1 UNK         0.0600 
    183 H183       -0.4620  -10.8183  -42.6271 H         1 UNK         0.0600 
    184 H184        1.3389  -10.9999  -44.2617 H         1 UNK         0.3000 
    185 H185        3.2444  -11.1585  -45.9681 H         1 UNK         0.0600 
    186 H186        3.4065  -14.1046  -46.7703 H         1 UNK         0.0600 
    187 H187        3.9190  -12.7464  -47.7649 H         1 UNK         0.0600 
    188 H188        4.7498  -13.0991  -46.2568 H         1 UNK         0.0600 
    189 H189        1.3531  -11.1294  -47.1081 H         1 UNK         0.3000 
    190 H190       -2.9333  -21.2735  -45.9761 H         1 UNK         0.3000 
    191 H191       -5.2661  -22.5465  -47.0786 H         1 UNK         0.0600 
    192 H192       -6.3407  -21.8311  -44.9470 H         1 UNK         0.0600 
    193 H193       -5.4544  -20.5154  -45.6996 H         1 UNK         0.0600 
    194 H194       -4.7765  -21.3508  -44.3041 H         1 UNK         0.0600 
    195 H195       -3.0765  -23.3729  -44.3504 H         1 UNK         0.3000 
    196 H196       -4.3816  -25.7751  -43.5800 H         1 UNK         0.0600 
    197 H197       -1.4660  -24.9005  -43.2207 H         1 UNK         0.0600 
    198 H198       -2.7960  -24.5602  -42.1174 H         1 UNK         0.0600 
    199 H199       -2.2509  -26.2145  -42.3526 H         1 UNK         0.0600 
    200 H200       -1.6841  -25.1968  -45.8681 H         1 UNK         0.3000 
    201 H201       -1.3114  -27.9660  -46.5721 H         1 UNK         0.0600 
    202 H202       -0.4432  -25.3897  -47.9905 H         1 UNK         0.0600 
    203 H203        0.1937  -26.9989  -48.3041 H         1 UNK         0.0600 
    204 H204        0.4780  -26.2356  -46.7483 H         1 UNK         0.0600 
    205 H205       -3.7251  -25.7382  -47.4689 H         1 UNK         0.3000 
    206 H206       -5.3824  -25.6277  -48.8939 H         1 UNK         0.0600 
    207 H207       -5.7554  -28.0699  -48.4488 H         1 UNK         0.0600 
    208 H208       -6.2719  -27.5881  -50.0558 H         1 UNK         0.0600 
    209 H209       -4.7665  -28.4677  -49.8544 H         1 UNK         0.0600 
    210 H210       -2.5365  -25.0083  -49.6693 H         1 UNK         0.3000 
    211 H211       -2.3985  -25.0629  -52.5703 H         1 UNK         0.0600 
    212 H212       -0.4620  -23.5371  -52.2068 H         1 UNK         0.0600 
    213 H213       -0.3480  -24.9486  -51.1701 H         1 UNK         0.0600 
    214 H214       -0.8618  -23.4040  -50.4999 H         1 UNK         0.0600 
    215 H215       -3.6736  -22.8796  -50.0778 H         1 UNK         0.3000 
    216 H216       -4.2524  -20.6558  -51.8222 H         1 UNK         0.0600 
    217 H217       -5.4853  -21.4514  -49.1330 H         1 UNK         0.0600 
    218 H218       -5.6874  -19.8974  -49.9284 H         1 UNK         0.0600 
    219 H219       -4.0992  -20.3836  -49.3593 H         1 UNK         0.0600 
    220 H220       -6.0534  -23.5737  -50.8506 H         1 UNK         0.3000 
    221 H221       -8.5124  -22.9100  -52.2022 H         1 UNK         0.0600 
    222 H222       -8.4213  -24.5238  -50.3066 H         1 UNK         0.0600 
    223 H223       -7.4312  -25.6223  -51.2667 H         1 UNK         0.0600 
    224 H224       -9.0855  -25.2787  -51.7467 H         1 UNK         0.0600 
    225 H225       -5.5326  -24.6131  -53.1220 H         1 UNK         0.3000 
    226 H226       -6.3996  -25.3702  -55.7722 H         1 UNK         0.0600 
    227 H227       -3.5739  -25.1142  -54.6208 H         1 UNK         0.0600 
    228 H228       -4.5907  -26.5478  -54.4716 H         1 UNK         0.0600 
    229 H229       -4.0430  -26.0147  -56.0534 H         1 UNK         0.0600 
    230 H230       -5.7829  -22.3402  -54.5071 H         1 UNK         0.3000 
    231 H231       -5.5557  -20.3038  -55.2701 H         1 UNK         0.0600 
    232 H232       -6.0526  -21.3789  -58.0925 H         1 UNK         0.0600 
    233 H233       -6.2402  -19.7184  -57.5501 H         1 UNK         0.0600 
    234 H234       -7.3089  -20.9637  -56.9265 H         1 UNK         0.0600 
    235 H235       -3.1936  -21.6764  -54.7358 H         1 UNK         0.3000 
    236 H236       -1.1510  -20.9781  -56.6684 H         1 UNK         0.0600 
    237 H237       -0.9571  -22.8566  -54.9948 H         1 UNK         0.0600 
    238 H238        0.3804  -21.7216  -54.8934 H         1 UNK         0.0600 
    239 H239       -0.9052  -21.6626  -53.6969 H         1 UNK         0.0600 
    240 H240       -3.0482  -18.9674  -54.8739 H         1 UNK         0.3000 
    241 H241       -1.3239  -17.1725  -53.6030 H         1 UNK         0.0600 
    242 H242       -1.0328  -15.8329  -57.4280 H         1 UNK         0.3800 
    243 H243       -1.7441  -17.3871  -57.0767 H         1 UNK         0.3800 
    244 H244       -4.0640  -16.4485  -54.7445 H         1 UNK         0.0800 
    245 H245       -3.2620  -15.7009  -53.3912 H         1 UNK         0.0800 
    246 H246       -4.1359  -16.1859  -51.0341 H         1 UNK         0.0800 
    247 H247       -4.2906  -17.8030  -50.3950 H         1 UNK         0.0800 
@<TRIPOS>BOND
     1    1    2 1    
     2    1  127 1    
     3    1  128 1    
     4    1  129 1    
     5    2    3 2    
     6    2    4 am   BACKBONE|DICT|INTERRES
     7    4    5 1    
     8    4  130 1    
     9    5    6 1    
    10    5   65 1    
    11    5  131 1    
    12    6    7 1    
    13    6  132 1    
    14    6  133 1    
    15    7    8 1    
    16    8    9 1    
    17    8  134 1    
    18    8  135 1    
    19    9   10 ar   
    20    9   14 ar   
    21   10   11 ar   
    22   10  136 1    
    23   11   12 ar   
    24   11  126 1    
    25   12   13 ar   
    26   12  137 1    
    27   13   14 ar   
    28   13   15 1    
    29   14  138 1    
    30   15   16 1    
    31   15  139 1    
    32   15  140 1    
    33   16   17 1    
    34   17   18 1    
    35   17  141 1    
    36   17  142 1    
    37   18   19 1    
    38   18   67 1    
    39   18  143 1    
    40   19   20 am   BACKBONE|DICT|INTERRES
    41   19  144 1    
    42   20   21 2    
    43   20   22 1    
    44   22   23 1    
    45   22   24 1    
    46   22  145 1    
    47   23  146 1    
    48   23  147 1    
    49   23  148 1    
    50   24   25 am   BACKBONE|DICT|INTERRES
    51   24  149 1    
    52   25   26 2    
    53   25   27 1    
    54   27   28 1    
    55   27   29 1    
    56   27  150 1    
    57   28  151 1    
    58   28  152 1    
    59   28  153 1    
    60   29   30 am   BACKBONE|DICT|INTERRES
    61   29  154 1    
    62   30   31 2    
    63   30   32 1    
    64   32   33 1    
    65   32   34 1    
    66   32  155 1    
    67   33  156 1    
    68   33  157 1    
    69   33  158 1    
    70   34   35 am   BACKBONE|DICT|INTERRES
    71   34  159 1    
    72   35   36 2    
    73   35   37 1    
    74   37   38 1    
    75   37   39 1    
    76   37  160 1    
    77   38  161 1    
    78   38  162 1    
    79   38  163 1    
    80   39   40 am   BACKBONE|DICT|INTERRES
    81   39  164 1    
    82   40   41 2    
    83   40   42 1    
    84   42   43 1    
    85   42   44 1    
    86   42  165 1    
    87   43  166 1    
    88   43  167 1    
    89   43  168 1    
    90   44   45 am   BACKBONE|DICT|INTERRES
    91   44  169 1    
    92   45   46 2    
    93   45   47 1    
    94   47   48 1    
    95   47   49 1    
    96   47  170 1    
    97   48  171 1    
    98   48  172 1    
    99   48  173 1    
   100   49   50 am   BACKBONE|DICT|INTERRES
   101   49  174 1    
   102   50   51 2    
   103   50   52 1    
   104   52   53 1    
   105   52   54 1    
   106   52  175 1    
   107   53  176 1    
   108   53  177 1    
   109   53  178 1    
   110   54   55 am   BACKBONE|DICT|INTERRES
   111   54  179 1    
   112   55   56 2    
   113   55   57 1    
   114   57   58 1    
   115   57   59 1    
   116   57  180 1    
   117   58  181 1    
   118   58  182 1    
   119   58  183 1    
   120   59   60 am   BACKBONE|DICT|INTERRES
   121   59  184 1    
   122   60   61 2    
   123   60   62 1    
   124   62   63 1    
   125   62   64 1    
   126   62  185 1    
   127   63  186 1    
   128   63  187 1    
   129   63  188 1    
   130   64   65 am   BACKBONE|DICT|INTERRES
   131   64  189 1    
   132   65   66 2    
   133   67   68 2    
   134   67   69 am   BACKBONE|DICT|INTERRES
   135   69   70 1    
   136   69  190 1    
   137   70   71 1    
   138   70   72 1    
   139   70  191 1    
   140   71  192 1    
   141   71  193 1    
   142   71  194 1    
   143   72   73 2    
   144   72   74 am   BACKBONE|DICT|INTERRES
   145   74   75 1    
   146   74  195 1    
   147   75   76 1    
   148   75   77 1    
   149   75  196 1    
   150   76  197 1    
   151   76  198 1    
   152   76  199 1    
   153   77   78 2    
   154   77   79 am   BACKBONE|DICT|INTERRES
   155   79   80 1    
   156   79  200 1    
   157   80   81 1    
   158   80   82 1    
   159   80  201 1    
   160   81  202 1    
   161   81  203 1    
   162   81  204 1    
   163   82   83 2    
   164   82   84 am   BACKBONE|DICT|INTERRES
   165   84   85 1    
   166   84  205 1    
   167   85   86 1    
   168   85   87 1    
   169   85  206 1    
   170   86  207 1    
   171   86  208 1    
   172   86  209 1    
   173   87   88 2    
   174   87   89 am   BACKBONE|DICT|INTERRES
   175   89   90 1    
   176   89  210 1    
   177   90   91 1    
   178   90   92 1    
   179   90  211 1    
   180   91  212 1    
   181   91  213 1    
   182   91  214 1    
   183   92   93 2    
   184   92   94 am   BACKBONE|DICT|INTERRES
   185   94   95 1    
   186   94  215 1    
   187   95   96 1    
   188   95   97 1    
   189   95  216 1    
   190   96  217 1    
   191   96  218 1    
   192   96  219 1    
   193   97   98 2    
   194   97   99 am   BACKBONE|DICT|INTERRES
   195   99  100 1    
   196   99  220 1    
   197  100  101 1    
   198  100  102 1    
   199  100  221 1    
   200  101  222 1    
   201  101  223 1    
   202  101  224 1    
   203  102  103 2    
   204  102  104 am   BACKBONE|DICT|INTERRES
   205  104  105 1    
   206  104  225 1    
   207  105  106 1    
   208  105  107 1    
   209  105  226 1    
   210  106  227 1    
   211  106  228 1    
   212  106  229 1    
   213  107  108 2    
   214  107  109 am   BACKBONE|DICT|INTERRES
   215  109  110 1    
   216  109  230 1    
   217  110  111 1    
   218  110  112 1    
   219  110  231 1    
   220  111  232 1    
   221  111  233 1    
   222  111  234 1    
   223  112  113 2    
   224  112  114 am   BACKBONE|DICT|INTERRES
   225  114  115 1    
   226  114  235 1    
   227  115  116 1    
   228  115  117 1    
   229  115  236 1    
   230  116  237 1    
   231  116  238 1    
   232  116  239 1    
   233  117  118 2    
   234  117  119 am   BACKBONE|DICT|INTERRES
   235  119  120 1    
   236  119  240 1    
   237  120  121 1    
   238  120  124 1    
   239  120  241 1    
   240  121  122 am   BACKBONE|DICT|INTERRES
   241  121  123 2    
   242  122  242 1    
   243  122  243 1    
   244  124  125 1    
   245  124  244 1    
   246  124  245 1    
   247  125  126 1    
   248  126  246 1    
   249  126  247 1    
@<TRIPOS>SUBSTRUCTURE
     1 UNK         1 GROUP             0       ****    0 ROOT    
