@<TRIPOS>MOLECULE
3R540
247   249    1
SMALL
USER_CHARGES


@<TRIPOS>ATOM
      1 CA         -4.2634  -14.2293  -49.6733 C.3       0 UNK        -0.1800 
      2 C          -3.0474  -14.5545  -48.8176 C.2       0 UNK         0.5000 
      3 O          -2.9018  -15.6954  -48.3896 O.2       0 UNK        -0.5000 
      4 N          -2.2075  -13.5455  -48.5464 N.am      1 UNK        -0.5000 
      5 CA         -0.9158  -13.5436  -47.8318 C.3       1 UNK         0.1400 
      6 C6          0.2792  -14.0645  -48.6755 C.3       23 UNK        -0.0398 
      7 S7          0.3772  -15.8669  -48.9550 S.3       23 UNK        -0.2404 
      8 C8          2.0713  -15.9583  -49.6101 C.3       23 UNK        -0.0205 
      9 C9          2.3648  -17.2945  -50.2737 C.ar      23 UNK        -0.0193 
     10 C10         1.9349  -17.5333  -51.5827 C.ar      23 UNK        -0.1150 
     11 C11         2.2526  -18.7315  -52.2297 C.ar      23 UNK        -0.0193 
     12 C12         3.0068  -19.6944  -51.5549 C.ar      23 UNK        -0.1150 
     13 C13         3.4284  -19.4749  -50.2406 C.ar      23 UNK        -0.0193 
     14 C14         3.1047  -18.2728  -49.6033 C.ar      23 UNK        -0.1150 
     15 C15         4.2502  -20.5346  -49.5245 C.3       23 UNK        -0.0205 
     16 S16         3.2262  -21.9464  -49.0101 S.3       23 UNK        -0.2404 
     17 C17         2.3614  -21.2427  -47.5692 C.3       23 UNK        -0.0398 
     18 CA          1.1242  -22.0794  -47.1670 C.3       11 UNK         0.1400 
     19 N           0.8537  -21.9965  -45.7310 N.am      11 UNK        -0.5000 
     20 C          -0.0051  -22.7869  -45.0731 C.2       10 UNK         0.5000 
     21 O          -0.6315  -23.7066  -45.6012 O.2       10 UNK        -0.5000 
     22 CA         -0.2378  -22.4608  -43.5860 C.3       10 UNK         0.1400 
     23 CB          0.8839  -23.0430  -42.7133 C.3       10 UNK        -0.1800 
     24 N          -0.3529  -21.0218  -43.3431 N.am      10 UNK        -0.5000 
     25 C          -1.3283  -20.2501  -43.8419 C.2       9 UNK         0.5000 
     26 O          -2.2682  -20.6841  -44.5060 O.2       9 UNK        -0.5000 
     27 CA         -1.2139  -18.7355  -43.6056 C.3       9 UNK         0.1400 
     28 CB         -1.7140  -18.3606  -42.2034 C.3       9 UNK        -0.1800 
     29 N           0.1436  -18.2248  -43.8086 N.am      9 UNK        -0.5000 
     30 C           0.8054  -18.2660  -44.9749 C.2       8 UNK         0.5000 
     31 O           0.3262  -18.7055  -46.0158 O.2       8 UNK        -0.5000 
     32 CA          2.2728  -17.8090  -44.9677 C.3       8 UNK         0.1400 
     33 CB          2.3844  -16.2838  -45.1132 C.3       8 UNK        -0.1800 
     34 N           2.9701  -18.2582  -43.7631 N.am      8 UNK        -0.5000 
     35 C           3.2508  -19.5423  -43.4942 C.2       7 UNK         0.5000 
     36 O           2.9989  -20.4717  -44.2611 O.2       7 UNK        -0.5000 
     37 CA          3.8674  -19.8399  -42.1154 C.3       7 UNK         0.1400 
     38 CB          5.3822  -19.5870  -42.1315 C.3       7 UNK        -0.1800 
     39 N           3.2524  -19.0449  -41.0516 N.am      7 UNK        -0.5000 
     40 C           1.9786  -19.1703  -40.6513 C.2       6 UNK         0.5000 
     41 O           1.2090  -20.0246  -41.0891 O.2       6 UNK        -0.5000 
     42 CA          1.4669  -18.1338  -39.6309 C.3       6 UNK         0.1400 
     43 CB          1.7007  -18.6286  -38.1961 C.3       6 UNK        -0.1800 
     44 N           2.0846  -16.8142  -39.7983 N.am      6 UNK        -0.5000 
     45 C           1.9445  -16.0460  -40.8865 C.2       5 UNK         0.5000 
     46 O           1.2441  -16.3516  -41.8544 O.2       5 UNK        -0.5000 
     47 CA          2.7985  -14.7740  -40.9349 C.3       5 UNK         0.1400 
     48 CB          4.2483  -15.1418  -41.3180 C.3       5 UNK        -0.1800 
     49 N           2.2319  -13.8490  -41.9130 N.am      5 UNK        -0.5000 
     50 C           2.6202  -12.5818  -42.1004 C.2       4 UNK         0.5000 
     51 O           3.4803  -12.0204  -41.4201 O.2       4 UNK        -0.5000 
     52 CA          1.9404  -11.8045  -43.2409 C.3       4 UNK         0.1400 
     53 CB          2.6098  -12.1307  -44.5853 C.3       4 UNK        -0.1800 
     54 N           0.5004  -12.0523  -43.3328 N.am      4 UNK        -0.5000 
     55 C          -0.3998  -11.5696  -42.4610 C.2       3 UNK         0.5000 
     56 O          -0.0920  -10.9093  -41.4677 O.2       3 UNK        -0.5000 
     57 CA         -1.8955  -11.8268  -42.7443 C.3       3 UNK         0.1400 
     58 CB         -2.5610  -10.5573  -43.2986 C.3       3 UNK        -0.1800 
     59 N          -2.1360  -12.9243  -43.6791 N.am      3 UNK        -0.5000 
     60 C          -1.9736  -14.2207  -43.3891 C.2       2 UNK         0.5000 
     61 O          -1.6816  -14.6306  -42.2666 O.2       2 UNK        -0.5000 
     62 CA         -2.1457  -15.2256  -44.5465 C.3       2 UNK         0.1400 
     63 CB         -3.5142  -15.9191  -44.4620 C.3       2 UNK        -0.1800 
     64 N          -1.9912  -14.6610  -45.8905 N.am      2 UNK        -0.5000 
     65 C          -0.8969  -14.0605  -46.3727 C.2       1 UNK         0.5000 
     66 O           0.0982  -13.8437  -45.6815 O.2       1 UNK        -0.5000 
     67 C          -0.1211  -21.7239  -48.0083 C.2       11 UNK         0.5000 
     68 O          -0.4449  -22.4506  -48.9454 O.2       11 UNK        -0.5000 
     69 N          -0.8321  -20.6536  -47.6261 N.am      12 UNK        -0.5000 
     70 CA         -2.0896  -20.2205  -48.2345 C.3       12 UNK         0.1400 
     71 CB         -2.5162  -18.8705  -47.6433 C.3       12 UNK        -0.1800 
     72 C          -3.2133  -21.2587  -48.0783 C.2       12 UNK         0.5000 
     73 O          -3.9476  -21.5012  -49.0356 O.2       12 UNK        -0.5000 
     74 N          -3.3097  -21.8825  -46.8954 N.am      13 UNK        -0.5000 
     75 CA         -4.2334  -22.9809  -46.6127 C.3       13 UNK         0.1400 
     76 CB         -4.1706  -23.3576  -45.1252 C.3       13 UNK        -0.1800 
     77 C          -3.9751  -24.2037  -47.5106 C.2       13 UNK         0.5000 
     78 O          -4.9197  -24.7276  -48.1048 O.2       13 UNK        -0.5000 
     79 N          -2.6958  -24.5883  -47.6380 N.am      14 UNK        -0.5000 
     80 CA         -2.2246  -25.6445  -48.5366 C.3       14 UNK         0.1400 
     81 CB         -0.7381  -25.9236  -48.2692 C.3       14 UNK        -0.1800 
     82 C          -2.4680  -25.3252  -50.0250 C.2       14 UNK         0.5000 
     83 O          -2.7977  -26.2304  -50.7917 O.2       14 UNK        -0.5000 
     84 N          -2.3751  -24.0419  -50.3993 N.am      15 UNK        -0.5000 
     85 CA         -2.6869  -23.4871  -51.7201 C.3       15 UNK         0.1400 
     86 CB         -1.9777  -22.1319  -51.8689 C.3       15 UNK        -0.1800 
     87 C          -4.2046  -23.3802  -52.0023 C.2       15 UNK         0.5000 
     88 O          -4.6570  -22.3850  -52.5773 O.2       15 UNK        -0.5000 
     89 N          -4.9471  -24.4276  -51.6195 N.am      16 UNK        -0.5000 
     90 CA         -6.3841  -24.6376  -51.7882 C.3       16 UNK         0.1400 
     91 CB         -6.7237  -24.8538  -53.2769 C.3       16 UNK        -0.1800 
     92 C          -7.2372  -23.5475  -51.1110 C.2       16 UNK         0.5000 
     93 O          -8.1199  -22.9723  -51.7476 O.2       16 UNK        -0.5000 
     94 N          -6.9592  -23.2954  -49.8227 N.am      17 UNK        -0.5000 
     95 CA         -7.6751  -22.3622  -48.9429 C.3       17 UNK         0.1400 
     96 CB         -9.1050  -22.8695  -48.6601 C.3       17 UNK        -0.1800 
     97 C          -7.6365  -20.9061  -49.4527 C.2       17 UNK         0.5000 
     98 O          -8.6780  -20.2609  -49.5864 O.2       17 UNK        -0.5000 
     99 N          -6.4167  -20.4289  -49.7331 N.am      18 UNK        -0.5000 
    100 CA        -6.0643  -19.0912  -50.2173 C.3       18 UNK         0.1400 
    101 CB        -6.4363  -18.0055  -49.1859 C.3       18 UNK        -0.1800 
    102 C         -6.5775  -18.7814  -51.6392 C.2       18 UNK         0.5000 
    103 O         -6.6991  -17.6106  -52.0028 O.2       18 UNK        -0.5000 
    104 N         -6.8195  -19.8278  -52.4426 N.am      19 UNK        -0.5000 
    105 CA        -7.1382  -19.7203  -53.8703 C.3       19 UNK         0.1400 
    106 CB        -7.8599  -20.9957  -54.3248 C.3       19 UNK        -0.1800 
    107 C         -5.8896  -19.4679  -54.7407 C.2       19 UNK         0.5000 
    108 O         -6.0340  -19.1608  -55.9245 O.2       19 UNK        -0.5000 
    109 N         -4.6986  -19.6013  -54.1380 N.am      20 UNK        -0.5000 
    110 CA        -3.3702  -19.4121  -54.7212 C.3       20 UNK         0.1400 
    111 CB        -3.1759  -17.9774  -55.2548 C.3       20 UNK        -0.1800 
    112 C         -3.0144  -20.5047  -55.7465 C.2       20 UNK         0.5000 
    113 O         -2.3648  -20.2246  -56.7564 O.2       20 UNK        -0.5000 
    114 N         -3.3856  -21.7573  -55.4330 N.am      21 UNK        -0.5000 
    115 CA        -3.0138  -22.9574  -56.1986 C.3       21 UNK         0.1400 
    116 CB        -3.7937  -24.1662  -55.6608 C.3       21 UNK        -0.1800 
    117 C         -1.4933  -23.2429  -56.2132 C.2       21 UNK         0.5000 
    118 O         -1.0266  -24.0305  -57.0364 O.2       21 UNK        -0.5000 
    119 N         -0.7535  -22.5688  -55.3246 N.am      22 UNK        -0.5000 
    120 CA         0.7075  -22.4213  -55.3219 C.3       22 UNK         0.1400 
    121 C          1.2990  -21.6990  -56.5719 C.2       22 UNK         0.5000 
    122 N          0.5204  -20.9483  -57.3447 N.am      22 UNK        -0.7600 
    123 O          2.4887  -21.8294  -56.8459 O.2       22 UNK        -0.5000 
    124 C124        1.1811  -21.7403  -54.0091 C.3       23 UNK        -0.0398 
    125 S125        0.3755  -20.1186  -53.7096 S.3       23 UNK        -0.2404 
    126 C126        1.7905  -18.9772  -53.6583 C.3       23 UNK        -0.0205 
    127 H127       -4.2642  -13.1899  -50.0023 H         1 UNK         0.0600 
    128 H128       -5.1780  -14.4092  -49.1083 H         1 UNK         0.0600 
    129 H129       -4.2790  -14.8661  -50.5579 H         1 UNK         0.0600 
    130 H130       -2.4581  -12.6383  -48.9144 H         1 UNK         0.3000 
    131 H131       -0.7239  -12.4766  -47.7071 H         1 UNK         0.0600 
    132 H132        0.2676  -13.5773  -49.6513 H         1 UNK         0.0800 
    133 H133        1.2127  -13.7473  -48.2065 H         1 UNK         0.0800 
    134 H134        2.2227  -15.1607  -50.3392 H         1 UNK         0.0800 
    135 H135        2.7777  -15.7705  -48.7999 H         1 UNK         0.0800 
    136 H136        1.3595  -16.7783  -52.1000 H         1 UNK         0.1150 
    137 H137        3.2594  -20.6222  -52.0476 H         1 UNK         0.1150 
    138 H138        3.4391  -18.0924  -48.5914 H         1 UNK         0.1150 
    139 H139        5.0330  -20.8936  -50.1943 H         1 UNK         0.0800 
    140 H140        4.7609  -20.1150  -48.6563 H         1 UNK         0.0800 
    141 H141        2.0943  -20.2001  -47.7489 H         1 UNK         0.0800 
    142 H142        3.0889  -21.2295  -46.7575 H         1 UNK         0.0800 
    143 H143        1.3502  -23.1301  -47.3632 H         1 UNK         0.0600 
    144 H144        1.3578  -21.2856  -45.2121 H         1 UNK         0.3000 
    145 H145       -1.1786  -22.9272  -43.2865 H         1 UNK         0.0600 
    146 H146        0.6864  -22.8737  -41.6547 H         1 UNK         0.0600 
    147 H147        0.9736  -24.1200  -42.8603 H         1 UNK         0.0600 
    148 H148        1.8509  -22.5971  -42.9471 H         1 UNK         0.0600 
    149 H149        0.3520  -20.5979  -42.7469 H         1 UNK         0.3000 
    150 H150       -1.8585  -18.2503  -44.3385 H         1 UNK         0.0600 
    151 H151       -2.7696  -18.6096  -42.0902 H         1 UNK         0.0600 
    152 H152       -1.6082  -17.2930  -42.0145 H         1 UNK         0.0600 
    153 H153       -1.1702  -18.8916  -41.4234 H         1 UNK         0.0600 
    154 H154        0.5960  -17.7897  -43.0102 H         1 UNK         0.3000 
    155 H155        2.7662  -18.2625  -45.8302 H         1 UNK         0.0600 
    156 H156        1.8632  -15.7557  -44.3155 H         1 UNK         0.0600 
    157 H157        3.4245  -15.9584  -45.1091 H         1 UNK         0.0600 
    158 H158        1.9453  -15.9551  -46.0561 H         1 UNK         0.0600 
    159 H159        3.1563  -17.5607  -43.0594 H         1 UNK         0.3000 
    160 H160        3.6979  -20.8959  -41.8943 H         1 UNK         0.0600 
    161 H161        5.6159  -18.5386  -42.3218 H         1 UNK         0.0600 
    162 H162        5.8676  -20.1782  -42.9091 H         1 UNK         0.0600 
    163 H163        5.8380  -19.8655  -41.1812 H         1 UNK         0.0600 
    164 H164        3.8215  -18.3272  -40.6290 H         1 UNK         0.3000 
    165 H165        0.3916  -18.0219  -39.7822 H         1 UNK         0.0600 
    166 H166        1.2728  -17.9404  -37.4670 H         1 UNK         0.0600 
    167 H167        1.2315  -19.6006  -38.0377 H         1 UNK         0.0600 
    168 H168        2.7631  -18.7366  -37.9742 H         1 UNK         0.0600 
    169 H169        2.6822  -16.4992  -39.0473 H         1 UNK         0.3000 
    170 H170        2.7799  -14.3033  -39.9500 H         1 UNK         0.0600 
    171 H171        4.3029  -15.5602  -42.3238 H         1 UNK         0.0600 
    172 H172        4.9069  -14.2743  -41.2844 H         1 UNK         0.0600 
    173 H173        4.6668  -15.8787  -40.6316 H         1 UNK         0.0600 
    174 H174        1.4864  -14.2393  -42.4766 H         1 UNK         0.3000 
    175 H175        2.0866  -10.7392  -43.0489 H         1 UNK         0.0600 
    176 H176        2.1517  -11.5728  -45.4021 H         1 UNK         0.0600 
    177 H177        2.5410  -13.1924  -44.8243 H         1 UNK         0.0600 
    178 H178        3.6686  -11.8699  -44.5657 H         1 UNK         0.0600 
    179 H179        0.1880  -12.6141  -44.1188 H         1 UNK         0.3000 
    180 H180       -2.3711  -12.0732  -41.7925 H         1 UNK         0.0600 
    181 H181       -2.1318  -10.2641  -44.2576 H         1 UNK         0.0600 
    182 H182       -2.4360   -9.7182  -42.6129 H         1 UNK         0.0600 
    183 H183       -3.6323  -10.7022  -43.4393 H         1 UNK         0.0600 
    184 H184       -2.3802  -12.6742  -44.6257 H         1 UNK         0.3000 
    185 H185       -1.3618  -15.9725  -44.4266 H         1 UNK         0.0600 
    186 H186       -4.3305  -15.2108  -44.6082 H         1 UNK         0.0600 
    187 H187       -3.6093  -16.6993  -45.2178 H         1 UNK         0.0600 
    188 H188       -3.6584  -16.3892  -43.4885 H         1 UNK         0.0600 
    189 H189       -2.7192  -14.8769  -46.5615 H         1 UNK         0.3000 
    190 H190       -0.4679  -20.0608  -46.8821 H         1 UNK         0.3000 
    191 H191       -1.9071  -20.0776  -49.3006 H         1 UNK         0.0600 
    192 H192       -1.7457  -18.1142  -47.7955 H         1 UNK         0.0600 
    193 H193       -3.4264  -18.5046  -48.1193 H         1 UNK         0.0600 
    194 H194       -2.7093  -18.9379  -46.5731 H         1 UNK         0.0600 
    195 H195       -2.7160  -21.5761  -46.1290 H         1 UNK         0.3000 
    196 H196       -5.2406  -22.6205  -46.8189 H         1 UNK         0.0600 
    197 H197       -4.8726  -24.1603  -44.8965 H         1 UNK         0.0600 
    198 H198       -4.4312  -22.5083  -44.4935 H         1 UNK         0.0600 
    199 H199       -3.1776  -23.6976  -44.8331 H         1 UNK         0.0600 
    200 H200       -1.9870  -24.1088  -47.0918 H         1 UNK         0.3000 
    201 H201       -2.7860  -26.5507  -48.3002 H         1 UNK         0.0600 
    202 H202       -0.5720  -26.2129  -47.2313 H         1 UNK         0.0600 
    203 H203       -0.1187  -25.0507  -48.4747 H         1 UNK         0.0600 
    204 H204       -0.3751  -26.7383  -48.8969 H         1 UNK         0.0600 
    205 H205       -2.0442  -23.3740  -49.7101 H         1 UNK         0.3000 
    206 H206       -2.2712  -24.1596  -52.4726 H         1 UNK         0.0600 
    207 H207       -0.9137  -22.2140  -51.6495 H         1 UNK         0.0600 
    208 H208       -2.0724  -21.7501  -52.8830 H         1 UNK         0.0600 
    209 H209       -2.3985  -21.3819  -51.2013 H         1 UNK         0.0600 
    210 H210       -4.4461  -25.1915  -51.1785 H         1 UNK         0.3000 
    211 H211       -6.6189  -25.5660  -51.2657 H         1 UNK         0.0600 
    212 H212       -6.4870  -23.9777  -53.8775 H         1 UNK         0.0600 
    213 H213       -7.7842  -25.0692  -53.4120 H         1 UNK         0.0600 
    214 H214       -6.1672  -25.6963  -53.6873 H         1 UNK         0.0600 
    215 H215       -6.1960  -23.8069  -49.3890 H         1 UNK         0.3000 
    216 H216       -7.1443  -22.3633  -47.9923 H         1 UNK         0.0600 
    217 H217       -9.6027  -22.2398  -47.9217 H         1 UNK         0.0600 
    218 H218       -9.0911  -23.8844  -48.2630 H         1 UNK         0.0600 
    219 H219       -9.7233  -22.8692  -49.5582 H         1 UNK         0.0600 
    220 H220       -5.6150  -21.0395  -49.5799 H         1 UNK         0.3000 
    221 H221       -4.9764  -19.0927  -50.2980 H         1 UNK         0.0600 
    222 H222       -7.5156  -17.8765  -49.1033 H         1 UNK         0.0600 
    223 H223       -6.0494  -18.2518  -48.1971 H         1 UNK         0.0600 
    224 H224       -6.0124  -17.0399  -49.4647 H         1 UNK         0.0600 
    225 H225       -6.7080  -20.7634  -52.0734 H         1 UNK         0.3000 
    226 H226       -7.8168  -18.8778  -54.0183 H         1 UNK         0.0600 
    227 H227       -8.7663  -21.1656  -53.7436 H         1 UNK         0.0600 
    228 H228       -8.1535  -20.9302  -55.3731 H         1 UNK         0.0600 
    229 H229       -7.2205  -21.8703  -54.2171 H         1 UNK         0.0600 
    230 H230       -4.7127  -19.9283  -53.1818 H         1 UNK         0.3000 
    231 H231       -2.6682  -19.5387  -53.8964 H         1 UNK         0.0600 
    232 H232       -3.7782  -17.7861  -56.1431 H         1 UNK         0.0600 
    233 H233       -2.1338  -17.8033  -55.5257 H         1 UNK         0.0600 
    234 H234       -3.4422  -17.2367  -54.5008 H         1 UNK         0.0600 
    235 H235       -3.9287  -21.9044  -54.5897 H         1 UNK         0.3000 
    236 H236       -3.3179  -22.7934  -57.2344 H         1 UNK         0.0600 
    237 H237       -4.8679  -23.9842  -55.6846 H         1 UNK         0.0600 
    238 H238       -3.6035  -25.0527  -56.2670 H         1 UNK         0.0600 
    239 H239       -3.5121  -24.4077  -54.6371 H         1 UNK         0.0600 
    240 H240       -1.2373  -21.9392  -54.7044 H         1 UNK         0.3000 
    241 H241        1.1231  -23.4304  -55.3365 H         1 UNK         0.0600 
    242 H242       -0.4572  -20.7978  -57.1198 H         1 UNK         0.3800 
    243 H243        0.9187  -20.4926  -58.1499 H         1 UNK         0.3800 
    244 H244        0.9517  -22.3876  -53.1622 H         1 UNK         0.0800 
    245 H245        2.2669  -21.6367  -54.0024 H         1 UNK         0.0800 
    246 H246        2.6152  -19.3546  -54.2643 H         1 UNK         0.0800 
    247 H247        1.4875  -18.0366  -54.1205 H         1 UNK         0.0800 
@<TRIPOS>BOND
     1    1    2 1    
     2    1  127 1    
     3    1  128 1    
     4    1  129 1    
     5    2    3 2    
     6    2    4 am   BACKBONE|DICT|INTERRES
     7    4    5 1    
     8    4  130 1    
     9    5    6 1    
    10    5   65 1    
    11    5  131 1    
    12    6    7 1    
    13    6  132 1    
    14    6  133 1    
    15    7    8 1    
    16    8    9 1    
    17    8  134 1    
    18    8  135 1    
    19    9   10 ar   
    20    9   14 ar   
    21   10   11 ar   
    22   10  136 1    
    23   11   12 ar   
    24   11  126 1    
    25   12   13 ar   
    26   12  137 1    
    27   13   14 ar   
    28   13   15 1    
    29   14  138 1    
    30   15   16 1    
    31   15  139 1    
    32   15  140 1    
    33   16   17 1    
    34   17   18 1    
    35   17  141 1    
    36   17  142 1    
    37   18   19 1    
    38   18   67 1    
    39   18  143 1    
    40   19   20 am   BACKBONE|DICT|INTERRES
    41   19  144 1    
    42   20   21 2    
    43   20   22 1    
    44   22   23 1    
    45   22   24 1    
    46   22  145 1    
    47   23  146 1    
    48   23  147 1    
    49   23  148 1    
    50   24   25 am   BACKBONE|DICT|INTERRES
    51   24  149 1    
    52   25   26 2    
    53   25   27 1    
    54   27   28 1    
    55   27   29 1    
    56   27  150 1    
    57   28  151 1    
    58   28  152 1    
    59   28  153 1    
    60   29   30 am   BACKBONE|DICT|INTERRES
    61   29  154 1    
    62   30   31 2    
    63   30   32 1    
    64   32   33 1    
    65   32   34 1    
    66   32  155 1    
    67   33  156 1    
    68   33  157 1    
    69   33  158 1    
    70   34   35 am   BACKBONE|DICT|INTERRES
    71   34  159 1    
    72   35   36 2    
    73   35   37 1    
    74   37   38 1    
    75   37   39 1    
    76   37  160 1    
    77   38  161 1    
    78   38  162 1    
    79   38  163 1    
    80   39   40 am   BACKBONE|DICT|INTERRES
    81   39  164 1    
    82   40   41 2    
    83   40   42 1    
    84   42   43 1    
    85   42   44 1    
    86   42  165 1    
    87   43  166 1    
    88   43  167 1    
    89   43  168 1    
    90   44   45 am   BACKBONE|DICT|INTERRES
    91   44  169 1    
    92   45   46 2    
    93   45   47 1    
    94   47   48 1    
    95   47   49 1    
    96   47  170 1    
    97   48  171 1    
    98   48  172 1    
    99   48  173 1    
   100   49   50 am   BACKBONE|DICT|INTERRES
   101   49  174 1    
   102   50   51 2    
   103   50   52 1    
   104   52   53 1    
   105   52   54 1    
   106   52  175 1    
   107   53  176 1    
   108   53  177 1    
   109   53  178 1    
   110   54   55 am   BACKBONE|DICT|INTERRES
   111   54  179 1    
   112   55   56 2    
   113   55   57 1    
   114   57   58 1    
   115   57   59 1    
   116   57  180 1    
   117   58  181 1    
   118   58  182 1    
   119   58  183 1    
   120   59   60 am   BACKBONE|DICT|INTERRES
   121   59  184 1    
   122   60   61 2    
   123   60   62 1    
   124   62   63 1    
   125   62   64 1    
   126   62  185 1    
   127   63  186 1    
   128   63  187 1    
   129   63  188 1    
   130   64   65 am   BACKBONE|DICT|INTERRES
   131   64  189 1    
   132   65   66 2    
   133   67   68 2    
   134   67   69 am   BACKBONE|DICT|INTERRES
   135   69   70 1    
   136   69  190 1    
   137   70   71 1    
   138   70   72 1    
   139   70  191 1    
   140   71  192 1    
   141   71  193 1    
   142   71  194 1    
   143   72   73 2    
   144   72   74 am   BACKBONE|DICT|INTERRES
   145   74   75 1    
   146   74  195 1    
   147   75   76 1    
   148   75   77 1    
   149   75  196 1    
   150   76  197 1    
   151   76  198 1    
   152   76  199 1    
   153   77   78 2    
   154   77   79 am   BACKBONE|DICT|INTERRES
   155   79   80 1    
   156   79  200 1    
   157   80   81 1    
   158   80   82 1    
   159   80  201 1    
   160   81  202 1    
   161   81  203 1    
   162   81  204 1    
   163   82   83 2    
   164   82   84 am   BACKBONE|DICT|INTERRES
   165   84   85 1    
   166   84  205 1    
   167   85   86 1    
   168   85   87 1    
   169   85  206 1    
   170   86  207 1    
   171   86  208 1    
   172   86  209 1    
   173   87   88 2    
   174   87   89 am   BACKBONE|DICT|INTERRES
   175   89   90 1    
   176   89  210 1    
   177   90   91 1    
   178   90   92 1    
   179   90  211 1    
   180   91  212 1    
   181   91  213 1    
   182   91  214 1    
   183   92   93 2    
   184   92   94 am   BACKBONE|DICT|INTERRES
   185   94   95 1    
   186   94  215 1    
   187   95   96 1    
   188   95   97 1    
   189   95  216 1    
   190   96  217 1    
   191   96  218 1    
   192   96  219 1    
   193   97   98 2    
   194   97   99 am   BACKBONE|DICT|INTERRES
   195   99  100 1    
   196   99  220 1    
   197  100  101 1    
   198  100  102 1    
   199  100  221 1    
   200  101  222 1    
   201  101  223 1    
   202  101  224 1    
   203  102  103 2    
   204  102  104 am   BACKBONE|DICT|INTERRES
   205  104  105 1    
   206  104  225 1    
   207  105  106 1    
   208  105  107 1    
   209  105  226 1    
   210  106  227 1    
   211  106  228 1    
   212  106  229 1    
   213  107  108 2    
   214  107  109 am   BACKBONE|DICT|INTERRES
   215  109  110 1    
   216  109  230 1    
   217  110  111 1    
   218  110  112 1    
   219  110  231 1    
   220  111  232 1    
   221  111  233 1    
   222  111  234 1    
   223  112  113 2    
   224  112  114 am   BACKBONE|DICT|INTERRES
   225  114  115 1    
   226  114  235 1    
   227  115  116 1    
   228  115  117 1    
   229  115  236 1    
   230  116  237 1    
   231  116  238 1    
   232  116  239 1    
   233  117  118 2    
   234  117  119 am   BACKBONE|DICT|INTERRES
   235  119  120 1    
   236  119  240 1    
   237  120  121 1    
   238  120  124 1    
   239  120  241 1    
   240  121  122 am   BACKBONE|DICT|INTERRES
   241  121  123 2    
   242  122  242 1    
   243  122  243 1    
   244  124  125 1    
   245  124  244 1    
   246  124  245 1    
   247  125  126 1    
   248  126  246 1    
   249  126  247 1    
@<TRIPOS>SUBSTRUCTURE
     1 UNK         1 GROUP             0       ****    0 ROOT    
