@<TRIPOS>MOLECULE
3R540
247   249    1
SMALL
USER_CHARGES


@<TRIPOS>ATOM
      1 CA         -3.0666  -16.4704  -45.6786 C.3       0 UNK        -0.1800 
      2 C          -2.9288  -14.9820  -45.9547 C.2       0 UNK         0.5000 
      3 O          -3.1617  -14.1736  -45.0570 O.2       0 UNK        -0.5000 
      4 N          -2.5375  -14.6236  -47.1855 N.am      1 UNK        -0.5000 
      5 CA         -2.4863  -13.2541  -47.7231 C.3       1 UNK         0.1400 
      6 C6         -2.0165  -13.2316  -49.1982 C.3       23 UNK        -0.0398 
      7 S7         -3.0465  -14.2667  -50.2913 S.3       23 UNK        -0.2404 
      8 C8         -1.9152  -14.5516  -51.6908 C.3       23 UNK        -0.0205 
      9 C9         -1.2649  -15.9307  -51.6656 C.ar      23 UNK        -0.0193 
     10 C10        -1.6193  -16.8871  -52.6239 C.ar      23 UNK        -0.1150 
     11 C11        -0.9761  -18.1277  -52.6707 C.ar      23 UNK        -0.0193 
     12 C12         0.0493  -18.3896  -51.7618 C.ar      23 UNK        -0.1150 
     13 C13         0.3528  -17.4889  -50.7371 C.ar      23 UNK        -0.0193 
     14 C14        -0.2913  -16.2478  -50.7120 C.ar      23 UNK        -0.1150 
     15 C15         1.3614  -17.8480  -49.6464 C.3       23 UNK        -0.0205 
     16 S16         1.3399  -19.6114  -49.1461 S.3       23 UNK        -0.2404 
     17 C17        -0.4331  -19.8901  -48.8084 C.3       23 UNK        -0.0398 
     18 CA         -0.7307  -21.2876  -48.2133 C.3       11 UNK         0.1400 
     19 N           0.0076  -21.5480  -46.9725 N.am      11 UNK        -0.5000 
     20 C           0.0750  -22.7336  -46.3502 C.2       10 UNK         0.5000 
     21 O          -0.4545  -23.7583  -46.7744 O.2       10 UNK        -0.5000 
     22 CA          0.8071  -22.7684  -44.9961 C.3       10 UNK         0.1400 
     23 CB          2.3231  -22.9003  -45.2018 C.3       10 UNK        -0.1800 
     24 N           0.5190  -21.5843  -44.1857 N.am      10 UNK        -0.5000 
     25 C          -0.6866  -21.3115  -43.6599 C.2       9 UNK         0.5000 
     26 O          -1.6448  -22.0802  -43.7300 O.2       9 UNK        -0.5000 
     27 CA         -0.8794  -19.9274  -43.0033 C.3       9 UNK         0.1400 
     28 CB         -0.6134  -19.9990  -41.4932 C.3       9 UNK        -0.1800 
     29 N          -0.0305  -18.8910  -43.5913 N.am      9 UNK        -0.5000 
     30 C          -0.0433  -18.5293  -44.8816 C.2       8 UNK         0.5000 
     31 O          -0.8881  -18.9286  -45.6810 O.2       8 UNK        -0.5000 
     32 CA          1.1107  -17.6367  -45.3783 C.3       8 UNK         0.1400 
     33 CB          0.6024  -16.2447  -45.7768 C.3       8 UNK        -0.1800 
     34 N           2.2031  -17.5127  -44.4062 N.am      8 UNK        -0.5000 
     35 C           3.0568  -18.5034  -44.0987 C.2       7 UNK         0.5000 
     36 O           2.9681  -19.6312  -44.5864 O.2       7 UNK        -0.5000 
     37 CA          4.1340  -18.2222  -43.0288 C.3       7 UNK         0.1400 
     38 CB          5.4434  -18.9961  -43.2865 C.3       7 UNK        -0.1800 
     39 N           4.3908  -16.7963  -42.8037 N.am      7 UNK        -0.5000 
     40 C           4.9175  -15.9088  -43.6618 C.2       6 UNK         0.5000 
     41 O           5.3310  -16.2061  -44.7830 O.2       6 UNK        -0.5000 
     42 CA          4.9598  -14.4342  -43.2117 C.3       6 UNK         0.1400 
     43 CB          4.3086  -13.5344  -44.2697 C.3       6 UNK        -0.1800 
     44 N           4.2544  -14.2276  -41.9457 N.am      6 UNK        -0.5000 
     45 C           4.8389  -14.0800  -40.7496 C.2       5 UNK         0.5000 
     46 O           6.0581  -14.0398  -40.5820 O.2       5 UNK        -0.5000 
     47 CA          3.9034  -13.9926  -39.5258 C.3       5 UNK         0.1400 
     48 CB          3.5826  -12.5258  -39.2013 C.3       5 UNK        -0.1800 
     49 N           2.6460  -14.7269  -39.6929 N.am      5 UNK        -0.5000 
     50 C           2.5380  -16.0500  -39.8818 C.2       4 UNK         0.5000 
     51 O           3.4999  -16.8168  -39.9020 O.2       4 UNK        -0.5000 
     52 CA          1.1278  -16.6077  -40.1541 C.3       4 UNK         0.1400 
     53 CB          0.5106  -17.1569  -38.8595 C.3       4 UNK        -0.1800 
     54 N           0.2079  -15.6333  -40.7486 N.am      4 UNK        -0.5000 
     55 C           0.3688  -15.0355  -41.9375 C.2       3 UNK         0.5000 
     56 O           1.3293  -15.2636  -42.6796 O.2       3 UNK        -0.5000 
     57 CA         -0.7426  -14.0381  -42.3365 C.3       3 UNK         0.1400 
     58 CB         -0.9774  -12.9721  -41.2439 C.3       3 UNK        -0.1800 
     59 N          -0.5446  -13.3951  -43.6403 N.am      3 UNK        -0.5000 
     60 C           0.4422  -12.5637  -44.0131 C.2       2 UNK         0.5000 
     61 O           1.3498  -12.1978  -43.2650 O.2       2 UNK        -0.5000 
     62 CA          0.3935  -12.0296  -45.4608 C.3       2 UNK         0.1400 
     63 CB          1.7700  -12.0456  -46.1467 C.3       2 UNK        -0.1800 
     64 N          -0.5453  -12.7830  -46.2950 N.am      2 UNK        -0.5000 
     65 C          -1.6262  -12.2728  -46.8969 C.2       1 UNK         0.5000 
     66 O          -1.9597  -11.0891  -46.8259 O.2       1 UNK        -0.5000 
     67 C          -2.2486  -21.4532  -48.0035 C.2       11 UNK         0.5000 
     68 O          -2.9292  -22.0343  -48.8536 O.2       11 UNK        -0.5000 
     69 N          -2.7382  -20.9547  -46.8580 N.am      12 UNK        -0.5000 
     70 CA         -4.1214  -21.0904  -46.4083 C.3       12 UNK         0.1400 
     71 CB         -4.3518  -20.2387  -45.1525 C.3       12 UNK        -0.1800 
     72 C          -4.5185  -22.5573  -46.1704 C.2       12 UNK         0.5000 
     73 O          -5.5723  -22.9834  -46.6429 O.2       12 UNK        -0.5000 
     74 N          -3.6497  -23.3113  -45.4838 N.am      13 UNK        -0.5000 
     75 CA         -3.8139  -24.7444  -45.2412 C.3       13 UNK         0.1400 
     76 CB         -2.7477  -25.2181  -44.2418 C.3       13 UNK        -0.1800 
     77 C          -3.7619  -25.5842  -46.5318 C.2       13 UNK         0.5000 
     78 O          -4.5210  -26.5461  -46.6558 O.2       13 UNK        -0.5000 
     79 N          -2.8735  -25.2079  -47.4619 N.am      14 UNK        -0.5000 
     80 CA         -2.6788  -25.8767  -48.7450 C.3       14 UNK         0.1400 
     81 CB         -1.3801  -25.3839  -49.3995 C.3       14 UNK        -0.1800 
     82 C          -3.8707  -25.7111  -49.7016 C.2       14 UNK         0.5000 
     83 O          -4.4068  -26.7194  -50.1650 O.2       14 UNK        -0.5000 
     84 N          -4.2569  -24.4609  -49.9962 N.am      15 UNK        -0.5000 
     85 CA         -5.2655  -24.1585  -51.0152 C.3       15 UNK         0.1400 
     86 CB         -4.6685  -24.3342  -52.4254 C.3       15 UNK        -0.1800 
     87 C          -5.9020  -22.7740  -50.8148 C.2       15 UNK         0.5000 
     88 O          -6.0934  -22.0385  -51.7864 O.2       15 UNK        -0.5000 
     89 N          -6.2126  -22.4303  -49.5551 N.am      16 UNK        -0.5000 
     90 CA         -6.9385  -21.2241  -49.1229 C.3       16 UNK         0.1400 
     91 CB         -8.3913  -21.2635  -49.6421 C.3       16 UNK        -0.1800 
     92 C          -6.2459  -19.8867  -49.4686 C.2       16 UNK         0.5000 
     93 O          -6.8802  -18.8365  -49.3621 O.2       16 UNK        -0.5000 
     94 N          -4.9680  -19.9501  -49.8760 N.am      17 UNK        -0.5000 
     95 CA         -4.1564  -18.8624  -50.4254 C.3       17 UNK         0.1400 
     96 CB         -3.7714  -17.8694  -49.3110 C.3       17 UNK        -0.1800 
     97 C          -4.8190  -18.1974  -51.6563 C.2       17 UNK         0.5000 
     98 O          -4.7690  -16.9757  -51.8000 O.2       17 UNK        -0.5000 
     99 N          -5.4706  -19.0066  -52.5055 N.am      18 UNK        -0.5000 
    100 CA        -6.3115  -18.5303  -53.6036 C.3       18 UNK         0.1400 
    101 CB        -7.6924  -18.1150  -53.0533 C.3       18 UNK        -0.1800 
    102 C         -6.4053  -19.5702  -54.7336 C.2       18 UNK         0.5000 
    103 O         -7.4964  -19.8232  -55.2489 O.2       18 UNK        -0.5000 
    104 N         -5.2651  -20.1568  -55.1124 N.am      19 UNK        -0.5000 
    105 CA        -5.1487  -21.1372  -56.1903 C.3       19 UNK         0.1400 
    106 CB        -5.5690  -22.5252  -55.6687 C.3       19 UNK        -0.1800 
    107 C         -3.7021  -21.1633  -56.7065 C.2       19 UNK         0.5000 
    108 O         -2.8435  -20.4597  -56.1753 O.2       19 UNK        -0.5000 
    109 N         -3.4367  -22.0140  -57.7046 N.am      20 UNK        -0.5000 
    110 CA        -2.0765  -22.3814  -58.1154 C.3       20 UNK         0.1400 
    111 CB        -2.1168  -22.8888  -59.5653 C.3       20 UNK        -0.1800 
    112 C         -1.4579  -23.4515  -57.1874 C.2       20 UNK         0.5000 
    113 O         -0.2423  -23.6442  -57.1993 O.2       20 UNK        -0.5000 
    114 N         -2.3086  -24.1358  -56.4106 N.am      21 UNK        -0.5000 
    115 CA        -1.9847  -25.2850  -55.5661 C.3       21 UNK         0.1400 
    116 CB        -3.2245  -26.1962  -55.5126 C.3       21 UNK        -0.1800 
    117 C         -1.4930  -24.9185  -54.1489 C.2       21 UNK         0.5000 
    118 O         -1.4348  -25.8053  -53.2962 O.2       21 UNK        -0.5000 
    119 N         -1.1531  -23.6447  -53.9004 N.am      22 UNK        -0.5000 
    120 CA        -0.6518  -23.1572  -52.5997 C.3       22 UNK         0.1400 
    121 C          0.7074  -23.7671  -52.1338 C.2       22 UNK         0.5000 
    122 N          1.4957  -24.3881  -53.0030 N.am      22 UNK        -0.7600 
    123 O          1.0574  -23.6606  -50.9627 O.2       22 UNK        -0.5000 
    124 C124       -0.5493  -21.6132  -52.5321 C.3       23 UNK        -0.0398 
    125 S125       -2.0683  -20.7025  -52.9705 S.3       23 UNK        -0.2404 
    126 C126       -1.3788  -19.1717  -53.7078 C.3       23 UNK        -0.0205 
    127 H127       -4.1176  -16.7283  -45.5511 H         1 UNK         0.0600 
    128 H128       -2.5368  -16.7362  -44.7642 H         1 UNK         0.0600 
    129 H129       -2.6643  -17.0718  -46.4933 H         1 UNK         0.0600 
    130 H130       -2.3805  -15.3459  -47.8736 H         1 UNK         0.3000 
    131 H131       -3.5092  -12.8731  -47.6919 H         1 UNK         0.0600 
    132 H132       -0.9777  -13.5563  -49.2677 H         1 UNK         0.0800 
    133 H133       -2.0442  -12.2137  -49.5920 H         1 UNK         0.0800 
    134 H134       -2.4868  -14.4263  -52.6117 H         1 UNK         0.0800 
    135 H135       -1.1411  -13.7836  -51.7170 H         1 UNK         0.0800 
    136 H136       -2.3943  -16.6592  -53.3423 H         1 UNK         0.1150 
    137 H137        0.5879  -19.3206  -51.8182 H         1 UNK         0.1150 
    138 H138       -0.0316  -15.5280  -49.9503 H         1 UNK         0.1150 
    139 H139        2.3622  -17.5947  -49.9978 H         1 UNK         0.0800 
    140 H140        1.1817  -17.2413  -48.7580 H         1 UNK         0.0800 
    141 H141       -0.7897  -19.0910  -48.1597 H         1 UNK         0.0800 
    142 H142       -0.9856  -19.7771  -49.7408 H         1 UNK         0.0800 
    143 H143       -0.4190  -22.0382  -48.9428 H         1 UNK         0.0600 
    144 H144        0.4419  -20.7466  -46.5400 H         1 UNK         0.3000 
    145 H145        0.4608  -23.6476  -44.4488 H         1 UNK         0.0600 
    146 H146        2.8494  -22.9445  -44.2482 H         1 UNK         0.0600 
    147 H147        2.5626  -23.8127  -45.7493 H         1 UNK         0.0600 
    148 H148        2.7285  -22.0624  -45.7701 H         1 UNK         0.0600 
    149 H149        1.2606  -20.8980  -44.1125 H         1 UNK         0.3000 
    150 H150       -1.9187  -19.6305  -43.1548 H         1 UNK         0.0600 
    151 H151       -1.2314  -20.7655  -41.0237 H         1 UNK         0.0600 
    152 H152       -0.8513  -19.0522  -41.0094 H         1 UNK         0.0600 
    153 H153        0.4286  -20.2380  -41.2767 H         1 UNK         0.0600 
    154 H154        0.6947  -18.5082  -43.0056 H         1 UNK         0.3000 
    155 H155        1.5170  -18.1100  -46.2745 H         1 UNK         0.0600 
    156 H156       -0.0793  -16.3138  -46.6249 H         1 UNK         0.0600 
    157 H157        1.4237  -15.5909  -46.0705 H         1 UNK         0.0600 
    158 H158        0.0634  -15.7680  -44.9601 H         1 UNK         0.0600 
    159 H159        2.2695  -16.6283  -43.9132 H         1 UNK         0.3000 
    160 H160        3.7192  -18.5969  -42.0923 H         1 UNK         0.0600 
    161 H161        6.1854  -18.7832  -42.5170 H         1 UNK         0.0600 
    162 H162        5.8802  -18.7474  -44.2539 H         1 UNK         0.0600 
    163 H163        5.2694  -20.0727  -43.2774 H         1 UNK         0.0600 
    164 H164        4.1118  -16.4553  -41.8915 H         1 UNK         0.3000 
    165 H165        6.0094  -14.1493  -43.1178 H         1 UNK         0.0600 
    166 H166        3.2776  -13.8382  -44.4487 H         1 UNK         0.0600 
    167 H167        4.3030  -12.4908  -43.9547 H         1 UNK         0.0600 
    168 H168        4.8400  -13.5858  -45.2207 H         1 UNK         0.0600 
    169 H169        3.2426  -14.2568  -41.9972 H         1 UNK         0.3000 
    170 H170        4.4328  -14.4264  -38.6750 H         1 UNK         0.0600 
    171 H171        4.4966  -11.9505  -39.0471 H         1 UNK         0.0600 
    172 H172        3.0263  -12.0483  -40.0093 H         1 UNK         0.0600 
    173 H173        2.9905  -12.4428  -38.2898 H         1 UNK         0.0600 
    174 H174        1.8007  -14.1757  -39.7009 H         1 UNK         0.3000 
    175 H175        1.2366  -17.4338  -40.8593 H         1 UNK         0.0600 
    176 H176        0.3750  -16.3720  -38.1143 H         1 UNK         0.0600 
    177 H177       -0.4613  -17.6140  -39.0444 H         1 UNK         0.0600 
    178 H178        1.1489  -17.9229  -38.4168 H         1 UNK         0.0600 
    179 H179       -0.6077  -15.4044  -40.1989 H         1 UNK         0.3000 
    180 H180       -1.6578  -14.6234  -42.4364 H         1 UNK         0.0600 
    181 H181       -0.0649  -12.4239  -41.0069 H         1 UNK         0.0600 
    182 H182       -1.3392  -13.4188  -40.3177 H         1 UNK         0.0600 
    183 H183       -1.7282  -12.2471  -41.5587 H         1 UNK         0.0600 
    184 H184       -1.2737  -13.5868  -44.3176 H         1 UNK         0.3000 
    185 H185        0.0793  -10.9875  -45.3772 H         1 UNK         0.0600 
    186 H186        2.5167  -11.5135  -45.5564 H         1 UNK         0.0600 
    187 H187        2.1278  -13.0624  -46.3069 H         1 UNK         0.0600 
    188 H188        1.7243  -11.5561  -47.1196 H         1 UNK         0.0600 
    189 H189       -0.3566  -13.7683  -46.4052 H         1 UNK         0.3000 
    190 H190       -2.1068  -20.4426  -46.2506 H         1 UNK         0.3000 
    191 H191       -4.7584  -20.6925  -47.1947 H         1 UNK         0.0600 
    192 H192       -4.0529  -19.2042  -45.3170 H         1 UNK         0.0600 
    193 H193       -5.4069  -20.2339  -44.8769 H         1 UNK         0.0600 
    194 H194       -3.7948  -20.6167  -44.2965 H         1 UNK         0.0600 
    195 H195       -2.8276  -22.8727  -45.0796 H         1 UNK         0.3000 
    196 H196       -4.7953  -24.8958  -44.7869 H         1 UNK         0.0600 
    197 H197       -2.8593  -26.2811  -44.0249 H         1 UNK         0.0600 
    198 H198       -2.8289  -24.6824  -43.2958 H         1 UNK         0.0600 
    199 H199       -1.7391  -25.0646  -44.6267 H         1 UNK         0.0600 
    200 H200       -2.2316  -24.4515  -47.2459 H         1 UNK         0.3000 
    201 H201       -2.5621  -26.9446  -48.5489 H         1 UNK         0.0600 
    202 H202       -0.5106  -25.6464  -48.7971 H         1 UNK         0.0600 
    203 H203       -1.3793  -24.3017  -49.5281 H         1 UNK         0.0600 
    204 H204       -1.2392  -25.8328  -50.3838 H         1 UNK         0.0600 
    205 H205       -3.7829  -23.6694  -49.5678 H         1 UNK         0.3000 
    206 H206       -6.0861  -24.8709  -50.9085 H         1 UNK         0.0600 
    207 H207       -3.9065  -23.5822  -52.6333 H         1 UNK         0.0600 
    208 H208       -4.2157  -25.3167  -52.5548 H         1 UNK         0.0600 
    209 H209       -5.4473  -24.2443  -53.1821 H         1 UNK         0.0600 
    210 H210       -5.9731  -23.0693  -48.8053 H         1 UNK         0.3000 
    211 H211       -6.9867  -21.2640  -48.0350 H         1 UNK         0.0600 
    212 H212       -8.4376  -21.1469  -50.7254 H         1 UNK         0.0600 
    213 H213       -8.9880  -20.4630  -49.2034 H         1 UNK         0.0600 
    214 H214       -8.8772  -22.2044  -49.3841 H         1 UNK         0.0600 
    215 H215       -4.5338  -20.8645  -49.8931 H         1 UNK         0.3000 
    216 H216       -3.2334  -19.3187  -50.7781 H         1 UNK         0.0600 
    217 H217       -3.3576  -18.3883  -48.4469 H         1 UNK         0.0600 
    218 H218       -4.6271  -17.2834  -48.9746 H         1 UNK         0.0600 
    219 H219       -3.0119  -17.1730  -49.6633 H         1 UNK         0.0600 
    220 H220       -5.4960  -20.0058  -52.3259 H         1 UNK         0.3000 
    221 H221       -5.8460  -17.6503  -54.0523 H         1 UNK         0.0600 
    222 H222       -8.2063  -18.9597  -52.5927 H         1 UNK         0.0600 
    223 H223       -7.6022  -17.3311  -52.3012 H         1 UNK         0.0600 
    224 H224       -8.3340  -17.7264  -53.8450 H         1 UNK         0.0600 
    225 H225       -4.3845  -19.8887  -54.6900 H         1 UNK         0.3000 
    226 H226       -5.7947  -20.8423  -57.0198 H         1 UNK         0.0600 
    227 H227       -6.5553  -22.5011  -55.2050 H         1 UNK         0.0600 
    228 H228       -5.6135  -23.2601  -56.4727 H         1 UNK         0.0600 
    229 H229       -4.8609  -22.8883  -54.9248 H         1 UNK         0.0600 
    230 H230       -4.1927  -22.5295  -58.1327 H         1 UNK         0.3000 
    231 H231       -1.4335  -21.4992  -58.0814 H         1 UNK         0.0600 
    232 H232       -1.1169  -23.1461  -59.9173 H         1 UNK         0.0600 
    233 H233       -2.5104  -22.1269  -60.2384 H         1 UNK         0.0600 
    234 H234       -2.7389  -23.7792  -59.6643 H         1 UNK         0.0600 
    235 H235       -3.2841  -23.8868  -56.4552 H         1 UNK         0.3000 
    236 H236       -1.1780  -25.8496  -56.0381 H         1 UNK         0.0600 
    237 H237       -3.5247  -26.5102  -56.5125 H         1 UNK         0.0600 
    238 H238       -4.0745  -25.6923  -55.0518 H         1 UNK         0.0600 
    239 H239       -3.0289  -27.1033  -54.9394 H         1 UNK         0.0600 
    240 H240       -1.2347  -22.9623  -54.6393 H         1 UNK         0.3000 
    241 H241       -1.3892  -23.4624  -51.8550 H         1 UNK         0.0600 
    242 H242        1.2267  -24.4784  -53.9695 H         1 UNK         0.3800 
    243 H243        2.3707  -24.7755  -52.6871 H         1 UNK         0.3800 
    244 H244        0.2640  -21.2739  -53.1758 H         1 UNK         0.0800 
    245 H245       -0.2847  -21.3197  -51.5160 H         1 UNK         0.0800 
    246 H246       -0.5275  -19.4088  -54.3467 H         1 UNK         0.0800 
    247 H247       -2.1363  -18.7487  -54.3679 H         1 UNK         0.0800 
@<TRIPOS>BOND
     1    1    2 1    
     2    1  127 1    
     3    1  128 1    
     4    1  129 1    
     5    2    3 2    
     6    2    4 am   BACKBONE|DICT|INTERRES
     7    4    5 1    
     8    4  130 1    
     9    5    6 1    
    10    5   65 1    
    11    5  131 1    
    12    6    7 1    
    13    6  132 1    
    14    6  133 1    
    15    7    8 1    
    16    8    9 1    
    17    8  134 1    
    18    8  135 1    
    19    9   10 ar   
    20    9   14 ar   
    21   10   11 ar   
    22   10  136 1    
    23   11   12 ar   
    24   11  126 1    
    25   12   13 ar   
    26   12  137 1    
    27   13   14 ar   
    28   13   15 1    
    29   14  138 1    
    30   15   16 1    
    31   15  139 1    
    32   15  140 1    
    33   16   17 1    
    34   17   18 1    
    35   17  141 1    
    36   17  142 1    
    37   18   19 1    
    38   18   67 1    
    39   18  143 1    
    40   19   20 am   BACKBONE|DICT|INTERRES
    41   19  144 1    
    42   20   21 2    
    43   20   22 1    
    44   22   23 1    
    45   22   24 1    
    46   22  145 1    
    47   23  146 1    
    48   23  147 1    
    49   23  148 1    
    50   24   25 am   BACKBONE|DICT|INTERRES
    51   24  149 1    
    52   25   26 2    
    53   25   27 1    
    54   27   28 1    
    55   27   29 1    
    56   27  150 1    
    57   28  151 1    
    58   28  152 1    
    59   28  153 1    
    60   29   30 am   BACKBONE|DICT|INTERRES
    61   29  154 1    
    62   30   31 2    
    63   30   32 1    
    64   32   33 1    
    65   32   34 1    
    66   32  155 1    
    67   33  156 1    
    68   33  157 1    
    69   33  158 1    
    70   34   35 am   BACKBONE|DICT|INTERRES
    71   34  159 1    
    72   35   36 2    
    73   35   37 1    
    74   37   38 1    
    75   37   39 1    
    76   37  160 1    
    77   38  161 1    
    78   38  162 1    
    79   38  163 1    
    80   39   40 am   BACKBONE|DICT|INTERRES
    81   39  164 1    
    82   40   41 2    
    83   40   42 1    
    84   42   43 1    
    85   42   44 1    
    86   42  165 1    
    87   43  166 1    
    88   43  167 1    
    89   43  168 1    
    90   44   45 am   BACKBONE|DICT|INTERRES
    91   44  169 1    
    92   45   46 2    
    93   45   47 1    
    94   47   48 1    
    95   47   49 1    
    96   47  170 1    
    97   48  171 1    
    98   48  172 1    
    99   48  173 1    
   100   49   50 am   BACKBONE|DICT|INTERRES
   101   49  174 1    
   102   50   51 2    
   103   50   52 1    
   104   52   53 1    
   105   52   54 1    
   106   52  175 1    
   107   53  176 1    
   108   53  177 1    
   109   53  178 1    
   110   54   55 am   BACKBONE|DICT|INTERRES
   111   54  179 1    
   112   55   56 2    
   113   55   57 1    
   114   57   58 1    
   115   57   59 1    
   116   57  180 1    
   117   58  181 1    
   118   58  182 1    
   119   58  183 1    
   120   59   60 am   BACKBONE|DICT|INTERRES
   121   59  184 1    
   122   60   61 2    
   123   60   62 1    
   124   62   63 1    
   125   62   64 1    
   126   62  185 1    
   127   63  186 1    
   128   63  187 1    
   129   63  188 1    
   130   64   65 am   BACKBONE|DICT|INTERRES
   131   64  189 1    
   132   65   66 2    
   133   67   68 2    
   134   67   69 am   BACKBONE|DICT|INTERRES
   135   69   70 1    
   136   69  190 1    
   137   70   71 1    
   138   70   72 1    
   139   70  191 1    
   140   71  192 1    
   141   71  193 1    
   142   71  194 1    
   143   72   73 2    
   144   72   74 am   BACKBONE|DICT|INTERRES
   145   74   75 1    
   146   74  195 1    
   147   75   76 1    
   148   75   77 1    
   149   75  196 1    
   150   76  197 1    
   151   76  198 1    
   152   76  199 1    
   153   77   78 2    
   154   77   79 am   BACKBONE|DICT|INTERRES
   155   79   80 1    
   156   79  200 1    
   157   80   81 1    
   158   80   82 1    
   159   80  201 1    
   160   81  202 1    
   161   81  203 1    
   162   81  204 1    
   163   82   83 2    
   164   82   84 am   BACKBONE|DICT|INTERRES
   165   84   85 1    
   166   84  205 1    
   167   85   86 1    
   168   85   87 1    
   169   85  206 1    
   170   86  207 1    
   171   86  208 1    
   172   86  209 1    
   173   87   88 2    
   174   87   89 am   BACKBONE|DICT|INTERRES
   175   89   90 1    
   176   89  210 1    
   177   90   91 1    
   178   90   92 1    
   179   90  211 1    
   180   91  212 1    
   181   91  213 1    
   182   91  214 1    
   183   92   93 2    
   184   92   94 am   BACKBONE|DICT|INTERRES
   185   94   95 1    
   186   94  215 1    
   187   95   96 1    
   188   95   97 1    
   189   95  216 1    
   190   96  217 1    
   191   96  218 1    
   192   96  219 1    
   193   97   98 2    
   194   97   99 am   BACKBONE|DICT|INTERRES
   195   99  100 1    
   196   99  220 1    
   197  100  101 1    
   198  100  102 1    
   199  100  221 1    
   200  101  222 1    
   201  101  223 1    
   202  101  224 1    
   203  102  103 2    
   204  102  104 am   BACKBONE|DICT|INTERRES
   205  104  105 1    
   206  104  225 1    
   207  105  106 1    
   208  105  107 1    
   209  105  226 1    
   210  106  227 1    
   211  106  228 1    
   212  106  229 1    
   213  107  108 2    
   214  107  109 am   BACKBONE|DICT|INTERRES
   215  109  110 1    
   216  109  230 1    
   217  110  111 1    
   218  110  112 1    
   219  110  231 1    
   220  111  232 1    
   221  111  233 1    
   222  111  234 1    
   223  112  113 2    
   224  112  114 am   BACKBONE|DICT|INTERRES
   225  114  115 1    
   226  114  235 1    
   227  115  116 1    
   228  115  117 1    
   229  115  236 1    
   230  116  237 1    
   231  116  238 1    
   232  116  239 1    
   233  117  118 2    
   234  117  119 am   BACKBONE|DICT|INTERRES
   235  119  120 1    
   236  119  240 1    
   237  120  121 1    
   238  120  124 1    
   239  120  241 1    
   240  121  122 am   BACKBONE|DICT|INTERRES
   241  121  123 2    
   242  122  242 1    
   243  122  243 1    
   244  124  125 1    
   245  124  244 1    
   246  124  245 1    
   247  125  126 1    
   248  126  246 1    
   249  126  247 1    
@<TRIPOS>SUBSTRUCTURE
     1 UNK         1 GROUP             0       ****    0 ROOT    
