@<TRIPOS>MOLECULE
3R540
247   249    1
SMALL
USER_CHARGES


@<TRIPOS>ATOM
      1 CA         -3.7162  -18.4662  -43.9388 C.3       0 UNK        -0.1800 
      2 C          -3.7311  -17.2431  -44.8453 C.2       0 UNK         0.5000 
      3 O          -4.6740  -16.4523  -44.7949 O.2       0 UNK        -0.5000 
      4 N          -2.6915  -17.0887  -45.6745 N.am      1 UNK        -0.5000 
      5 CA         -2.4677  -15.9132  -46.5251 C.3       1 UNK         0.1400 
      6 C6         -1.4999  -16.2267  -47.6982 C.3       23 UNK        -0.0398 
      7 S7          0.2243  -16.5597  -47.1969 S.3       23 UNK        -0.2404 
      8 C8          1.0289  -16.8225  -48.8063 C.3       23 UNK        -0.0205 
      9 C9          0.7832  -18.2304  -49.3219 C.ar      23 UNK        -0.0193 
     10 C10        -0.2361  -18.4823  -50.2427 C.ar      23 UNK        -0.1150 
     11 C11        -0.4772  -19.7826  -50.6946 C.ar      23 UNK        -0.0193 
     12 C12         0.3148  -20.8348  -50.2223 C.ar      23 UNK        -0.1150 
     13 C13         1.3379  -20.5953  -49.2990 C.ar      23 UNK        -0.0193 
     14 C14         1.5723  -19.2875  -48.8633 C.ar      23 UNK        -0.1150 
     15 C15         2.2004  -21.7405  -48.7834 C.3       23 UNK        -0.0205 
     16 S16         2.1896  -21.8468  -46.9598 S.3       23 UNK        -0.2404 
     17 C17         1.5514  -23.5322  -46.6427 C.3       23 UNK        -0.0398 
     18 CA          0.0913  -23.5786  -46.1298 C.3       11 UNK         0.1400 
     19 N          -0.0845  -22.8424  -44.8739 N.am      11 UNK        -0.5000 
     20 C          -1.2144  -22.7898  -44.1517 C.2       10 UNK         0.5000 
     21 O          -2.2193  -23.4515  -44.4164 O.2       10 UNK        -0.5000 
     22 CA         -1.2591  -21.7854  -42.9812 C.3       10 UNK         0.1400 
     23 CB         -1.0696  -22.5132  -41.6425 C.3       10 UNK        -0.1800 
     24 N          -0.2714  -20.7065  -43.0787 N.am      10 UNK        -0.5000 
     25 C          -0.1622  -19.8259  -44.0834 C.2       9 UNK         0.5000 
     26 O          -0.9396  -19.7841  -45.0379 O.2       9 UNK        -0.5000 
     27 CA          1.0122  -18.8325  -44.0340 C.3       9 UNK         0.1400 
     28 CB          0.4934  -17.4215  -43.7486 C.3       9 UNK        -0.1800 
     29 N           2.0615  -19.1142  -43.0523 N.am      9 UNK        -0.5000 
     30 C           2.8583  -20.1862  -42.9828 C.2       8 UNK         0.5000 
     31 O           2.7072  -21.1992  -43.6659 O.2       8 UNK        -0.5000 
     32 CA          4.0417  -20.0636  -41.9971 C.3       8 UNK         0.1400 
     33 CB          4.8890  -21.3464  -41.9248 C.3       8 UNK        -0.1800 
     34 N           4.9096  -18.9414  -42.3686 N.am      8 UNK        -0.5000 
     35 C           4.6515  -17.6467  -42.1405 C.2       7 UNK         0.5000 
     36 O           3.6808  -17.2488  -41.4905 O.2       7 UNK        -0.5000 
     37 CA          5.5779  -16.6443  -42.8464 C.3       7 UNK         0.1400 
     38 CB          5.1554  -16.4997  -44.3173 C.3       7 UNK        -0.1800 
     39 N           5.5332  -15.3247  -42.2175 N.am      7 UNK        -0.5000 
     40 C           6.3062  -14.9562  -41.1888 C.2       6 UNK         0.5000 
     41 O           7.1125  -15.7126  -40.6446 O.2       6 UNK        -0.5000 
     42 CA          6.1963  -13.5053  -40.6908 C.3       6 UNK         0.1400 
     43 CB          7.1074  -12.5775  -41.5127 C.3       6 UNK        -0.1800 
     44 N           4.8267  -12.9873  -40.7088 N.am      6 UNK        -0.5000 
     45 C           4.3248  -12.1627  -39.7765 C.2       5 UNK         0.5000 
     46 O           4.9697  -11.7616  -38.8061 O.2       5 UNK        -0.5000 
     47 CA          2.8643  -11.6863  -39.9383 C.3       5 UNK         0.1400 
     48 CB          2.8272  -10.2555  -40.4974 C.3       5 UNK        -0.1800 
     49 N           2.0524  -12.5439  -40.7993 N.am      5 UNK        -0.5000 
     50 C           1.7150  -13.8113  -40.5311 C.2       4 UNK         0.5000 
     51 O           1.9527  -14.3627  -39.4559 O.2       4 UNK        -0.5000 
     52 CA          1.0070  -14.6058  -41.6479 C.3       4 UNK         0.1400 
     53 CB         -0.4840  -14.7610  -41.3055 C.3       4 UNK        -0.1800 
     54 N           1.1196  -14.0587  -43.0091 N.am      4 UNK        -0.5000 
     55 C           2.2423  -13.7300  -43.6698 C.2       3 UNK         0.5000 
     56 O           3.3667  -13.8020  -43.1709 O.2       3 UNK        -0.5000 
     57 CA          2.1063  -13.2238  -45.1230 C.3       3 UNK         0.1400 
     58 CB          2.8804  -14.1323  -46.0904 C.3       3 UNK        -0.1800 
     59 N           0.7230  -13.1052  -45.5911 N.am      3 UNK        -0.5000 
     60 C          -0.1375  -12.1431  -45.2291 C.2       2 UNK         0.5000 
     61 O           0.1612  -11.2246  -44.4651 O.2       2 UNK        -0.5000 
     62 CA         -1.5749  -12.2184  -45.7920 C.3       2 UNK         0.1400 
     63 CB         -1.7917  -11.1249  -46.8498 C.3       2 UNK        -0.1800 
     64 N          -1.9539  -13.5132  -46.3727 N.am      2 UNK        -0.5000 
     65 C          -2.0301  -14.6728  -45.7040 C.2       1 UNK         0.5000 
     66 O          -1.7354  -14.7763  -44.5106 O.2       1 UNK        -0.5000 
     67 C          -0.9071  -23.1651  -47.2340 C.2       11 UNK         0.5000 
     68 O          -1.1968  -23.9814  -48.1057 O.2       11 UNK        -0.5000 
     69 N          -1.4545  -21.9427  -47.1615 N.am      12 UNK        -0.5000 
     70 CA         -2.4782  -21.4305  -48.0704 C.3       12 UNK         0.1400 
     71 CB         -2.7014  -19.9441  -47.7667 C.3       12 UNK        -0.1800 
     72 C          -3.8033  -22.2125  -48.0121 C.2       12 UNK         0.5000 
     73 O          -4.4722  -22.3503  -49.0388 O.2       12 UNK        -0.5000 
     74 N          -4.1420  -22.7415  -46.8278 N.am      13 UNK        -0.5000 
     75 CA         -5.3064  -23.6014  -46.6231 C.3       13 UNK         0.1400 
     76 CB         -5.6534  -23.6473  -45.1275 C.3       13 UNK        -0.1800 
     77 C          -5.0737  -25.0186  -47.1760 C.2       13 UNK         0.5000 
     78 O          -5.9969  -25.6092  -47.7361 O.2       13 UNK        -0.5000 
     79 N          -3.8411  -25.5260  -47.0306 N.am      14 UNK        -0.5000 
     80 CA         -3.4140  -26.8318  -47.5363 C.3       14 UNK         0.1400 
     81 CB         -2.0913  -27.2324  -46.8645 C.3       14 UNK        -0.1800 
     82 C          -3.2784  -26.8488  -49.0699 C.2       14 UNK         0.5000 
     83 O          -3.6933  -27.8167  -49.7081 O.2       14 UNK        -0.5000 
     84 N          -2.7184  -25.7684  -49.6308 N.am      15 UNK        -0.5000 
     85 CA         -2.5541  -25.5526  -51.0687 C.3       15 UNK         0.1400 
     86 CB         -1.5930  -24.3724  -51.2899 C.3       15 UNK        -0.1800 
     87 C          -3.8812  -25.2880  -51.8023 C.2       15 UNK         0.5000 
     88 O          -3.9532  -25.5387  -53.0045 O.2       15 UNK        -0.5000 
     89 N          -4.8845  -24.7807  -51.0686 N.am      16 UNK        -0.5000 
     90 CA         -6.1760  -24.2805  -51.5433 C.3       16 UNK         0.1400 
     91 CB         -7.0009  -25.3817  -52.2423 C.3       16 UNK        -0.1800 
     92 C          -5.9678  -23.0306  -52.4152 C.2       16 UNK         0.5000 
     93 O          -6.1082  -23.0879  -53.6371 O.2       16 UNK        -0.5000 
     94 N          -5.5962  -21.9294  -51.7499 N.am      17 UNK        -0.5000 
     95 CA         -5.1865  -20.6329  -52.3011 C.3       17 UNK         0.1400 
     96 CB         -5.1417  -19.6223  -51.1472 C.3       17 UNK        -0.1800 
     97 C          -6.0261  -20.0604  -53.4586 C.2       17 UNK         0.5000 
     98 O          -5.4597  -19.4201  -54.3461 O.2       17 UNK        -0.5000 
     99 N          -7.3434  -20.2984  -53.4367 N.am      18 UNK        -0.5000 
    100 CA        -8.2776  -19.8715  -54.4796 C.3       18 UNK         0.1400 
    101 CB        -9.7114  -19.9693  -53.9367 C.3       18 UNK        -0.1800 
    102 C         -8.1417  -20.6769  -55.7872 C.2       18 UNK         0.5000 
    103 O         -8.3789  -20.1248  -56.8619 O.2       18 UNK        -0.5000 
    104 N         -7.7642  -21.9572  -55.6768 N.am      19 UNK        -0.5000 
    105 CA        -7.5426  -22.8630  -56.8040 C.3       19 UNK         0.1400 
    106 CB        -7.9298  -24.2917  -56.3902 C.3       19 UNK        -0.1800 
    107 C         -6.0802  -22.8122  -57.2746 C.2       19 UNK         0.5000 
    108 O         -5.8263  -22.8403  -58.4792 O.2       19 UNK        -0.5000 
    109 N         -5.1474  -22.7148  -56.3169 N.am      20 UNK        -0.5000 
    110 CA        -3.7072  -22.5897  -56.5531 C.3       20 UNK         0.1400 
    111 CB        -2.9664  -22.8879  -55.2421 C.3       20 UNK        -0.1800 
    112 C         -3.2909  -21.2143  -57.1129 C.2       20 UNK         0.5000 
    113 O         -2.2046  -21.0994  -57.6801 O.2       20 UNK        -0.5000 
    114 N         -4.1568  -20.2060  -56.9351 N.am      21 UNK        -0.5000 
    115 CA        -4.0460  -18.8108  -57.3773 C.3       21 UNK         0.1400 
    116 CB        -3.8489  -18.7127  -58.9042 C.3       21 UNK        -0.1800 
    117 C         -3.0187  -17.9671  -56.5936 C.2       21 UNK         0.5000 
    118 O         -2.8218  -16.7980  -56.9296 O.2       21 UNK        -0.5000 
    119 N         -2.4151  -18.5401  -55.5450 N.am      22 UNK        -0.5000 
    120 CA        -1.5763  -17.8322  -54.5645 C.3       22 UNK         0.1400 
    121 C         -2.3794  -17.0167  -53.5086 C.2       22 UNK         0.5000 
    122 N         -3.6987  -17.1438  -53.4248 N.am      22 UNK        -0.7600 
    123 O         -1.7951  -16.2369  -52.7622 O.2       22 UNK        -0.5000 
    124 C124       -0.5071  -18.7547  -53.9147 C.3       23 UNK        -0.0398 
    125 S125       -1.1147  -20.3840  -53.3507 S.3       23 UNK        -0.2404 
    126 C126       -1.6359  -20.0553  -51.6409 C.3       23 UNK        -0.0205 
    127 H127       -3.6619  -19.3840  -44.5232 H         1 UNK         0.0600 
    128 H128       -4.6187  -18.5077  -43.3287 H         1 UNK         0.0600 
    129 H129       -2.8568  -18.4305  -43.2692 H         1 UNK         0.0600 
    130 H130       -1.9440  -17.7715  -45.6605 H         1 UNK         0.3000 
    131 H131       -3.4301  -15.6568  -46.9731 H         1 UNK         0.0600 
    132 H132       -1.4946  -15.4033  -48.4137 H         1 UNK         0.0800 
    133 H133       -1.8730  -17.0859  -48.2549 H         1 UNK         0.0800 
    134 H134        0.6826  -16.0783  -49.5252 H         1 UNK         0.0800 
    135 H135        2.1015  -16.6594  -48.6921 H         1 UNK         0.0800 
    136 H136       -0.8536  -17.6672  -50.5934 H         1 UNK         0.1150 
    137 H137        0.1213  -21.8419  -50.5643 H         1 UNK         0.1150 
    138 H138        2.3596  -19.0946  -48.1480 H         1 UNK         0.1150 
    139 H139        1.8802  -22.6846  -49.2251 H         1 UNK         0.0800 
    140 H140        3.2266  -21.5821  -49.1171 H         1 UNK         0.0800 
    141 H141        1.6667  -24.1568  -47.5298 H         1 UNK         0.0800 
    142 H142        2.2023  -23.9843  -45.8933 H         1 UNK         0.0800 
    143 H143       -0.1327  -24.6223  -45.9005 H         1 UNK         0.0600 
    144 H144        0.6923  -22.2561  -44.5945 H         1 UNK         0.3000 
    145 H145       -2.2496  -21.3263  -42.9881 H         1 UNK         0.0600 
    146 H146       -1.1902  -21.8306  -40.8011 H         1 UNK         0.0600 
    147 H147       -1.8064  -23.3086  -41.5217 H         1 UNK         0.0600 
    148 H148       -0.0805  -22.9673  -41.5692 H         1 UNK         0.0600 
    149 H149        0.4246  -20.6673  -42.3493 H         1 UNK         0.3000 
    150 H150        1.4720  -18.8398  -45.0245 H         1 UNK         0.0600 
    151 H151        1.2813  -16.6841  -43.8954 H         1 UNK         0.0600 
    152 H152        0.1245  -17.3385  -42.7269 H         1 UNK         0.0600 
    153 H153       -0.3259  -17.1506  -44.4094 H         1 UNK         0.0600 
    154 H154        2.3051  -18.3418  -42.4402 H         1 UNK         0.3000 
    155 H155        3.6260  -19.8810  -41.0038 H         1 UNK         0.0600 
    156 H156        4.2804  -22.2002  -41.6242 H         1 UNK         0.0600 
    157 H157        5.6914  -21.2477  -41.1934 H         1 UNK         0.0600 
    158 H158        5.3406  -21.5872  -42.8880 H         1 UNK         0.0600 
    159 H159        5.7032  -19.1781  -42.9466 H         1 UNK         0.3000 
    160 H160        6.6005  -17.0268  -42.8168 H         1 UNK         0.0600 
    161 H161        4.1072  -16.2133  -44.4041 H         1 UNK         0.0600 
    162 H162        5.2801  -17.4390  -44.8573 H         1 UNK         0.0600 
    163 H163        5.7548  -15.7482  -44.8313 H         1 UNK         0.0600 
    164 H164        4.8384  -14.6837  -42.5914 H         1 UNK         0.3000 
    165 H165        6.5653  -13.5151  -39.6628 H         1 UNK         0.0600 
    166 H166        6.7706  -12.5006  -42.5473 H         1 UNK         0.0600 
    167 H167        7.1292  -11.5722  -41.0918 H         1 UNK         0.0600 
    168 H168        8.1339  -12.9461  -41.5259 H         1 UNK         0.0600 
    169 H169        4.2320  -13.2785  -41.4780 H         1 UNK         0.3000 
    170 H170        2.4104  -11.6791  -38.9453 H         1 UNK         0.0600 
    171 H171        3.3956   -9.5728  -39.8644 H         1 UNK         0.0600 
    172 H172        3.2534  -10.2053  -41.5002 H         1 UNK         0.0600 
    173 H173        1.8061   -9.8765  -40.5463 H         1 UNK         0.0600 
    174 H174        1.8117  -12.1753  -41.7078 H         1 UNK         0.3000 
    175 H175        1.4660  -15.5950  -41.6590 H         1 UNK         0.0600 
    176 H176       -0.9956  -13.7977  -41.3078 H         1 UNK         0.0600 
    177 H177       -0.9953  -15.4082  -42.0167 H         1 UNK         0.0600 
    178 H178       -0.6179  -15.2026  -40.3171 H         1 UNK         0.0600 
    179 H179        0.2476  -13.9872  -43.5178 H         1 UNK         0.3000 
    180 H180        2.5622  -12.2323  -45.1584 H         1 UNK         0.0600 
    181 H181        2.5396  -15.1658  -46.0316 H         1 UNK         0.0600 
    182 H182        3.9465  -14.1257  -45.8613 H         1 UNK         0.0600 
    183 H183        2.7718  -13.7998  -47.1229 H         1 UNK         0.0600 
    184 H184        0.3918  -13.8355  -46.2047 H         1 UNK         0.3000 
    185 H185       -2.2514  -12.0229  -44.9575 H         1 UNK         0.0600 
    186 H186       -2.8289  -11.0982  -47.1845 H         1 UNK         0.0600 
    187 H187       -1.5579  -10.1379  -46.4483 H         1 UNK         0.0600 
    188 H188       -1.1589  -11.2814  -47.7244 H         1 UNK         0.0600 
    189 H189       -2.2010  -13.4964  -47.3514 H         1 UNK         0.3000 
    190 H190       -1.1583  -21.3152  -46.4209 H         1 UNK         0.3000 
    191 H191       -2.0951  -21.5294  -49.0836 H         1 UNK         0.0600 
    192 H192       -3.3719  -19.4787  -48.4863 H         1 UNK         0.0600 
    193 H193       -1.7588  -19.3977  -47.7979 H         1 UNK         0.0600 
    194 H194       -3.1355  -19.8025  -46.7781 H         1 UNK         0.0600 
    195 H195       -3.5170  -22.6248  -46.0399 H         1 UNK         0.3000 
    196 H196       -6.1573  -23.1685  -47.1539 H         1 UNK         0.0600 
    197 H197       -6.5512  -24.2422  -44.9551 H         1 UNK         0.0600 
    198 H198       -5.8451  -22.6481  -44.7361 H         1 UNK         0.0600 
    199 H199       -4.8499  -24.0899  -44.5381 H         1 UNK         0.0600 
    200 H200       -3.1407  -24.9636  -46.5694 H         1 UNK         0.3000 
    201 H201       -4.1706  -27.5689  -47.2589 H         1 UNK         0.0600 
    202 H202       -2.1908  -27.2564  -45.7792 H         1 UNK         0.0600 
    203 H203       -1.2846  -26.5424  -47.1127 H         1 UNK         0.0600 
    204 H204       -1.7795  -28.2274  -47.1845 H         1 UNK         0.0600 
    205 H205       -2.3257  -25.0516  -49.0232 H         1 UNK         0.3000 
    206 H206       -2.1061  -26.4493  -51.5016 H         1 UNK         0.0600 
    207 H207       -0.6181  -24.5669  -50.8425 H         1 UNK         0.0600 
    208 H208       -1.4326  -24.1881  -52.3531 H         1 UNK         0.0600 
    209 H209       -1.9837  -23.4523  -50.8536 H         1 UNK         0.0600 
    210 H210       -4.6871  -24.5978  -50.0944 H         1 UNK         0.3000 
    211 H211       -6.7322  -23.9696  -50.6575 H         1 UNK         0.0600 
    212 H212       -6.5400  -25.7221  -53.1696 H         1 UNK         0.0600 
    213 H213       -7.9961  -25.0147  -52.4950 H         1 UNK         0.0600 
    214 H214       -7.1274  -26.2484  -51.5935 H         1 UNK         0.0600 
    215 H215       -5.4439  -22.0296  -50.7503 H         1 UNK         0.3000 
    216 H216       -4.1766  -20.7642  -52.6886 H         1 UNK         0.0600 
    217 H217       -4.8284  -18.6355  -51.4849 H         1 UNK         0.0600 
    218 H218       -4.4364  -19.9409  -50.3839 H         1 UNK         0.0600 
    219 H219       -6.1176  -19.5111  -50.6732 H         1 UNK         0.0600 
    220 H220       -7.7242  -20.8326  -52.6698 H         1 UNK         0.3000 
    221 H221       -8.0739  -18.8244  -54.7142 H         1 UNK         0.0600 
    222 H222      -10.4346  -19.6339  -54.6813 H         1 UNK         0.0600 
    223 H223       -9.9704  -20.9935  -53.6653 H         1 UNK         0.0600 
    224 H224       -9.8423  -19.3437  -53.0536 H         1 UNK         0.0600 
    225 H225       -7.5016  -22.3129  -54.7634 H         1 UNK         0.3000 
    226 H226       -8.1790  -22.5714  -57.6423 H         1 UNK         0.0600 
    227 H227       -8.9761  -24.3438  -56.0892 H         1 UNK         0.0600 
    228 H228       -7.7943  -24.9875  -57.2192 H         1 UNK         0.0600 
    229 H229       -7.3242  -24.6518  -55.5576 H         1 UNK         0.0600 
    230 H230       -5.4476  -22.7623  -55.3459 H         1 UNK         0.3000 
    231 H231       -3.4134  -23.3412  -57.2887 H         1 UNK         0.0600 
    232 H232       -1.8887  -22.7658  -55.3580 H         1 UNK         0.0600 
    233 H233       -3.1415  -23.9141  -54.9223 H         1 UNK         0.0600 
    234 H234       -3.2911  -22.2285  -54.4375 H         1 UNK         0.0600 
    235 H235       -4.9835  -20.4051  -56.3872 H         1 UNK         0.3000 
    236 H236       -5.0161  -18.3659  -57.1508 H         1 UNK         0.0600 
    237 H237       -2.8594  -19.0526  -59.2104 H         1 UNK         0.0600 
    238 H238       -4.5902  -19.3084  -59.4369 H         1 UNK         0.0600 
    239 H239       -3.9561  -17.6826  -59.2457 H         1 UNK         0.0600 
    240 H240       -2.6351  -19.5005  -55.3274 H         1 UNK         0.3000 
    241 H241       -1.0155  -17.0742  -55.1147 H         1 UNK         0.0600 
    242 H242       -4.2005  -17.8043  -54.0056 H         1 UNK         0.3800 
    243 H243       -4.2014  -16.5829  -52.7567 H         1 UNK         0.3800 
    244 H244        0.0166  -18.2497  -53.1018 H         1 UNK         0.0800 
    245 H245        0.2640  -18.9592  -54.6582 H         1 UNK         0.0800 
    246 H246       -2.1897  -20.9244  -51.2868 H         1 UNK         0.0800 
    247 H247       -2.3395  -19.2237  -51.6294 H         1 UNK         0.0800 
@<TRIPOS>BOND
     1    1    2 1    
     2    1  127 1    
     3    1  128 1    
     4    1  129 1    
     5    2    3 2    
     6    2    4 am   BACKBONE|DICT|INTERRES
     7    4    5 1    
     8    4  130 1    
     9    5    6 1    
    10    5   65 1    
    11    5  131 1    
    12    6    7 1    
    13    6  132 1    
    14    6  133 1    
    15    7    8 1    
    16    8    9 1    
    17    8  134 1    
    18    8  135 1    
    19    9   10 ar   
    20    9   14 ar   
    21   10   11 ar   
    22   10  136 1    
    23   11   12 ar   
    24   11  126 1    
    25   12   13 ar   
    26   12  137 1    
    27   13   14 ar   
    28   13   15 1    
    29   14  138 1    
    30   15   16 1    
    31   15  139 1    
    32   15  140 1    
    33   16   17 1    
    34   17   18 1    
    35   17  141 1    
    36   17  142 1    
    37   18   19 1    
    38   18   67 1    
    39   18  143 1    
    40   19   20 am   BACKBONE|DICT|INTERRES
    41   19  144 1    
    42   20   21 2    
    43   20   22 1    
    44   22   23 1    
    45   22   24 1    
    46   22  145 1    
    47   23  146 1    
    48   23  147 1    
    49   23  148 1    
    50   24   25 am   BACKBONE|DICT|INTERRES
    51   24  149 1    
    52   25   26 2    
    53   25   27 1    
    54   27   28 1    
    55   27   29 1    
    56   27  150 1    
    57   28  151 1    
    58   28  152 1    
    59   28  153 1    
    60   29   30 am   BACKBONE|DICT|INTERRES
    61   29  154 1    
    62   30   31 2    
    63   30   32 1    
    64   32   33 1    
    65   32   34 1    
    66   32  155 1    
    67   33  156 1    
    68   33  157 1    
    69   33  158 1    
    70   34   35 am   BACKBONE|DICT|INTERRES
    71   34  159 1    
    72   35   36 2    
    73   35   37 1    
    74   37   38 1    
    75   37   39 1    
    76   37  160 1    
    77   38  161 1    
    78   38  162 1    
    79   38  163 1    
    80   39   40 am   BACKBONE|DICT|INTERRES
    81   39  164 1    
    82   40   41 2    
    83   40   42 1    
    84   42   43 1    
    85   42   44 1    
    86   42  165 1    
    87   43  166 1    
    88   43  167 1    
    89   43  168 1    
    90   44   45 am   BACKBONE|DICT|INTERRES
    91   44  169 1    
    92   45   46 2    
    93   45   47 1    
    94   47   48 1    
    95   47   49 1    
    96   47  170 1    
    97   48  171 1    
    98   48  172 1    
    99   48  173 1    
   100   49   50 am   BACKBONE|DICT|INTERRES
   101   49  174 1    
   102   50   51 2    
   103   50   52 1    
   104   52   53 1    
   105   52   54 1    
   106   52  175 1    
   107   53  176 1    
   108   53  177 1    
   109   53  178 1    
   110   54   55 am   BACKBONE|DICT|INTERRES
   111   54  179 1    
   112   55   56 2    
   113   55   57 1    
   114   57   58 1    
   115   57   59 1    
   116   57  180 1    
   117   58  181 1    
   118   58  182 1    
   119   58  183 1    
   120   59   60 am   BACKBONE|DICT|INTERRES
   121   59  184 1    
   122   60   61 2    
   123   60   62 1    
   124   62   63 1    
   125   62   64 1    
   126   62  185 1    
   127   63  186 1    
   128   63  187 1    
   129   63  188 1    
   130   64   65 am   BACKBONE|DICT|INTERRES
   131   64  189 1    
   132   65   66 2    
   133   67   68 2    
   134   67   69 am   BACKBONE|DICT|INTERRES
   135   69   70 1    
   136   69  190 1    
   137   70   71 1    
   138   70   72 1    
   139   70  191 1    
   140   71  192 1    
   141   71  193 1    
   142   71  194 1    
   143   72   73 2    
   144   72   74 am   BACKBONE|DICT|INTERRES
   145   74   75 1    
   146   74  195 1    
   147   75   76 1    
   148   75   77 1    
   149   75  196 1    
   150   76  197 1    
   151   76  198 1    
   152   76  199 1    
   153   77   78 2    
   154   77   79 am   BACKBONE|DICT|INTERRES
   155   79   80 1    
   156   79  200 1    
   157   80   81 1    
   158   80   82 1    
   159   80  201 1    
   160   81  202 1    
   161   81  203 1    
   162   81  204 1    
   163   82   83 2    
   164   82   84 am   BACKBONE|DICT|INTERRES
   165   84   85 1    
   166   84  205 1    
   167   85   86 1    
   168   85   87 1    
   169   85  206 1    
   170   86  207 1    
   171   86  208 1    
   172   86  209 1    
   173   87   88 2    
   174   87   89 am   BACKBONE|DICT|INTERRES
   175   89   90 1    
   176   89  210 1    
   177   90   91 1    
   178   90   92 1    
   179   90  211 1    
   180   91  212 1    
   181   91  213 1    
   182   91  214 1    
   183   92   93 2    
   184   92   94 am   BACKBONE|DICT|INTERRES
   185   94   95 1    
   186   94  215 1    
   187   95   96 1    
   188   95   97 1    
   189   95  216 1    
   190   96  217 1    
   191   96  218 1    
   192   96  219 1    
   193   97   98 2    
   194   97   99 am   BACKBONE|DICT|INTERRES
   195   99  100 1    
   196   99  220 1    
   197  100  101 1    
   198  100  102 1    
   199  100  221 1    
   200  101  222 1    
   201  101  223 1    
   202  101  224 1    
   203  102  103 2    
   204  102  104 am   BACKBONE|DICT|INTERRES
   205  104  105 1    
   206  104  225 1    
   207  105  106 1    
   208  105  107 1    
   209  105  226 1    
   210  106  227 1    
   211  106  228 1    
   212  106  229 1    
   213  107  108 2    
   214  107  109 am   BACKBONE|DICT|INTERRES
   215  109  110 1    
   216  109  230 1    
   217  110  111 1    
   218  110  112 1    
   219  110  231 1    
   220  111  232 1    
   221  111  233 1    
   222  111  234 1    
   223  112  113 2    
   224  112  114 am   BACKBONE|DICT|INTERRES
   225  114  115 1    
   226  114  235 1    
   227  115  116 1    
   228  115  117 1    
   229  115  236 1    
   230  116  237 1    
   231  116  238 1    
   232  116  239 1    
   233  117  118 2    
   234  117  119 am   BACKBONE|DICT|INTERRES
   235  119  120 1    
   236  119  240 1    
   237  120  121 1    
   238  120  124 1    
   239  120  241 1    
   240  121  122 am   BACKBONE|DICT|INTERRES
   241  121  123 2    
   242  122  242 1    
   243  122  243 1    
   244  124  125 1    
   245  124  244 1    
   246  124  245 1    
   247  125  126 1    
   248  126  246 1    
   249  126  247 1    
@<TRIPOS>SUBSTRUCTURE
     1 UNK         1 GROUP             0       ****    0 ROOT    
