@<TRIPOS>MOLECULE
3R540
247   249    1
SMALL
USER_CHARGES


@<TRIPOS>ATOM
      1 CA         -3.2451  -10.3047  -49.0017 C.3       0 UNK        -0.1800 
      2 C          -1.9895  -10.8878  -48.3703 C.2       0 UNK         0.5000 
      3 O          -1.5260  -10.3833  -47.3478 O.2       0 UNK        -0.5000 
      4 N          -1.4434  -11.9561  -48.9674 N.am      1 UNK        -0.5000 
      5 CA         -0.2149  -12.6409  -48.5341 C.3       1 UNK         0.1400 
      6 C6          0.2268  -13.7394  -49.5302 C.3       23 UNK        -0.0398 
      7 S7          0.4546  -13.1123  -51.2320 S.3       23 UNK        -0.2404 
      8 C8         -0.6649  -14.1872  -52.1907 C.3       23 UNK        -0.0205 
      9 C9         -0.2236  -15.6428  -52.1447 C.ar      23 UNK        -0.0193 
     10 C10         0.9367  -16.0448  -52.8103 C.ar      23 UNK        -0.1150 
     11 C11         1.3920  -17.3638  -52.7284 C.ar      23 UNK        -0.0193 
     12 C12         0.6564  -18.2902  -51.9757 C.ar      23 UNK        -0.1150 
     13 C13        -0.5167  -17.9041  -51.3185 C.ar      23 UNK        -0.0193 
     14 C14        -0.9543  -16.5809  -51.4125 C.ar      23 UNK        -0.1150 
     15 C15        -1.3116  -18.9023  -50.4910 C.3       23 UNK        -0.0205 
     16 S16        -0.8360  -18.8051  -48.7448 S.3       23 UNK        -0.2404 
     17 C17        -2.0143  -19.9614  -47.9698 C.3       23 UNK        -0.0398 
     18 CA         -1.4458  -21.3929  -47.8245 C.3       11 UNK         0.1400 
     19 N          -0.2189  -21.4544  -47.0272 N.am      11 UNK        -0.5000 
     20 C           0.5610  -22.5386  -46.9152 C.2       10 UNK         0.5000 
     21 O           0.3551  -23.5925  -47.5176 O.2       10 UNK        -0.5000 
     22 CA          1.7412  -22.4479  -45.9305 C.3       10 UNK         0.1400 
     23 CB          2.9452  -21.7436  -46.5739 C.3       10 UNK        -0.1800 
     24 N           1.3806  -21.7766  -44.6798 N.am      10 UNK        -0.5000 
     25 C           0.5041  -22.2637  -43.7895 C.2       9 UNK         0.5000 
     26 O          -0.0686  -23.3454  -43.9181 O.2       9 UNK        -0.5000 
     27 CA          0.1808  -21.3830  -42.5687 C.3       9 UNK         0.1400 
     28 CB          1.2831  -21.4989  -41.5056 C.3       9 UNK        -0.1800 
     29 N          -0.0174  -19.9765  -42.9149 N.am      9 UNK        -0.5000 
     30 C          -0.9796  -19.5171  -43.7277 C.2       8 UNK         0.5000 
     31 O          -1.8377  -20.2269  -44.2509 O.2       8 UNK        -0.5000 
     32 CA         -0.9393  -18.0157  -44.0610 C.3       8 UNK         0.1400 
     33 CB         -1.5206  -17.1993  -42.8982 C.3       8 UNK        -0.1800 
     34 N           0.4075  -17.5365  -44.3843 N.am      8 UNK        -0.5000 
     35 C           1.1922  -18.0526  -45.3434 C.2       7 UNK         0.5000 
     36 O           0.8675  -18.9956  -46.0592 O.2       7 UNK        -0.5000 
     37 CA          2.6058  -17.4710  -45.4793 C.3       7 UNK         0.1400 
     38 CB          2.5785  -16.1116  -46.1900 C.3       7 UNK        -0.1800 
     39 N           3.2501  -17.3478  -44.1744 N.am      7 UNK        -0.5000 
     40 C           3.6542  -18.3929  -43.4375 C.2       6 UNK         0.5000 
     41 O           3.5896  -19.5642  -43.8128 O.2       6 UNK        -0.5000 
     42 CA          4.1786  -18.0731  -42.0262 C.3       6 UNK         0.1400 
     43 CB          5.6636  -17.6835  -42.0734 C.3       6 UNK        -0.1800 
     44 N           3.4161  -17.0058  -41.3753 N.am      6 UNK        -0.5000 
     45 C           2.1323  -17.1139  -41.0050 C.2       5 UNK         0.5000 
     46 O           1.4644  -18.1383  -41.1463 O.2       5 UNK        -0.5000 
     47 CA          1.4752  -15.8539  -40.4119 C.3       5 UNK         0.1400 
     48 CB          1.7149  -15.7839  -38.8965 C.3       5 UNK        -0.1800 
     49 N           1.9276  -14.6051  -41.0340 N.am      5 UNK        -0.5000 
     50 C           1.7215  -14.2798  -42.3165 C.2       4 UNK         0.5000 
     51 O           1.1880  -15.0322  -43.1351 O.2       4 UNK        -0.5000 
     52 CA          2.2019  -12.8913  -42.7666 C.3       4 UNK         0.1400 
     53 CB          3.3561  -13.0080  -43.7736 C.3       4 UNK        -0.1800 
     54 N           1.0854  -12.1894  -43.3906 N.am      4 UNK        -0.5000 
     55 C           0.2034  -11.4291  -42.7245 C.2       3 UNK         0.5000 
     56 O           0.3430  -11.0941  -41.5474 O.2       3 UNK        -0.5000 
     57 CA         -1.0678  -10.9959  -43.4865 C.3       3 UNK         0.1400 
     58 CB         -0.8648   -9.6200  -44.1373 C.3       3 UNK        -0.1800 
     59 N          -1.4630  -11.9627  -44.5125 N.am      3 UNK        -0.5000 
     60 C          -1.8434  -13.2236  -44.2563 C.2       2 UNK         0.5000 
     61 O          -2.1150  -13.6194  -43.1227 O.2       2 UNK        -0.5000 
     62 CA         -1.9075  -14.2195  -45.4373 C.3       2 UNK         0.1400 
     63 CB         -3.2949  -14.8722  -45.5466 C.3       2 UNK        -0.1800 
     64 N          -1.5499  -13.6544  -46.7404 N.am      2 UNK        -0.5000 
     65 C          -0.3315  -13.2369  -47.1145 C.2       1 UNK         0.5000 
     66 O           0.6538  -13.2601  -46.3772 O.2       1 UNK        -0.5000 
     67 C          -2.5168  -22.3549  -47.2762 C.2       11 UNK         0.5000 
     68 O          -3.0875  -23.1197  -48.0543 O.2       11 UNK        -0.5000 
     69 N          -2.7440  -22.3337  -45.9544 N.am      12 UNK        -0.5000 
     70 CA         -3.6930  -23.2007  -45.2497 C.3       12 UNK         0.1400 
     71 CB         -3.8111  -22.7537  -43.7857 C.3       12 UNK        -0.1800 
     72 C          -3.3450  -24.6954  -45.3347 C.2       12 UNK         0.5000 
     73 O          -4.2555  -25.5186  -45.4329 O.2       12 UNK        -0.5000 
     74 N          -2.0440  -25.0181  -45.3352 N.am      13 UNK        -0.5000 
     75 CA         -1.5288  -26.3705  -45.5518 C.3       13 UNK         0.1400 
     76 CB         -0.0210  -26.4029  -45.2600 C.3       13 UNK        -0.1800 
     77 C          -1.8248  -26.9071  -46.9659 C.2       13 UNK         0.5000 
     78 O          -1.9980  -28.1166  -47.1225 O.2       13 UNK        -0.5000 
     79 N          -1.9003  -26.0086  -47.9591 N.am      14 UNK        -0.5000 
     80 CA         -2.3362  -26.3275  -49.3154 C.3       14 UNK         0.1400 
     81 CB         -1.7852  -25.2945  -50.3095 C.3       14 UNK        -0.1800 
     82 C          -3.8691  -26.4484  -49.3917 C.2       14 UNK         0.5000 
     83 O          -4.3568  -27.5088  -49.7836 O.2       14 UNK        -0.5000 
     84 N          -4.5888  -25.3891  -48.9846 N.am      15 UNK        -0.5000 
     85 CA         -6.0579  -25.3280  -48.8963 C.3       15 UNK         0.1400 
     86 CB         -6.7339  -25.6713  -50.2460 C.3       15 UNK        -0.1800 
     87 C          -6.5839  -23.9521  -48.4461 C.2       15 UNK         0.5000 
     88 O          -7.7001  -23.8815  -47.9322 O.2       15 UNK        -0.5000 
     89 N          -5.8175  -22.8824  -48.7101 N.am      16 UNK        -0.5000 
     90 CA         -6.1827  -21.4608  -48.5910 C.3       16 UNK         0.1400 
     91 CB         -6.4421  -21.0470  -47.1272 C.3       16 UNK        -0.1800 
     92 C          -7.3096  -21.0173  -49.5524 C.2       16 UNK         0.5000 
     93 O          -7.9089  -19.9579  -49.3583 O.2       16 UNK        -0.5000 
     94 N          -7.5513  -21.8102  -50.6047 N.am      17 UNK        -0.5000 
     95 CA         -8.4387  -21.5048  -51.7242 C.3       17 UNK         0.1400 
     96 CB         -8.8394  -22.8260  -52.4047 C.3       17 UNK        -0.1800 
     97 C          -7.7306  -20.5316  -52.6858 C.2       17 UNK         0.5000 
     98 O          -7.2196  -20.9515  -53.7256 O.2       17 UNK        -0.5000 
     99 N          -7.6508  -19.2611  -52.2664 N.am      18 UNK        -0.5000 
    100 CA        -6.8260  -18.1931  -52.8382 C.3       18 UNK         0.1400 
    101 CB        -7.2852  -17.8281  -54.2684 C.3       18 UNK        -0.1800 
    102 C         -5.3282  -18.5454  -52.7112 C.2       18 UNK         0.5000 
    103 O         -4.9119  -19.0202  -51.6506 O.2       18 UNK        -0.5000 
    104 N         -4.5407  -18.3404  -53.7750 N.am      19 UNK        -0.5000 
    105 CA        -3.1086  -18.6445  -53.8430 C.3       19 UNK         0.1400 
    106 CB        -2.4629  -17.7923  -54.9496 C.3       19 UNK        -0.1800 
    107 C         -2.8211  -20.1547  -54.0057 C.2       19 UNK         0.5000 
    108 O         -2.0552  -20.5463  -54.8864 O.2       19 UNK        -0.5000 
    109 N         -3.4460  -20.9835  -53.1593 N.am      20 UNK        -0.5000 
    110 CA        -3.4805  -22.4480  -53.2400 C.3       20 UNK         0.1400 
    111 CB        -4.3264  -22.9876  -52.0767 C.3       20 UNK        -0.1800 
    112 C         -2.1027  -23.1351  -53.2537 C.2       20 UNK         0.5000 
    113 O         -1.9449  -24.1671  -53.9060 O.2       20 UNK        -0.5000 
    114 N         -1.1367  -22.5493  -52.5365 N.am      21 UNK        -0.5000 
    115 CA         0.2351  -23.0471  -52.4397 C.3       21 UNK         0.1400 
    116 CB         0.8491  -22.5525  -51.1193 C.3       21 UNK        -0.1800 
    117 C          1.1230  -22.6546  -53.6380 C.2       21 UNK         0.5000 
    118 O          2.1997  -23.2355  -53.7844 O.2       21 UNK        -0.5000 
    119 N          0.6861  -21.6839  -54.4531 N.am      22 UNK        -0.5000 
    120 CA         1.4671  -21.1096  -55.5640 C.3       22 UNK         0.1400 
    121 C          0.7850  -21.2515  -56.9524 C.2       22 UNK         0.5000 
    122 N         -0.5301  -21.3917  -57.0460 N.am      22 UNK        -0.7600 
    123 O          1.4699  -21.2532  -57.9719 O.2       22 UNK        -0.5000 
    124 C124        1.8459  -19.6325  -55.2878 C.3       23 UNK        -0.0398 
    125 S125        2.9463  -19.4702  -53.8415 S.3       23 UNK        -0.2404 
    126 C126        2.7174  -17.7146  -53.4060 C.3       23 UNK        -0.0205 
    127 H127       -3.0752   -9.2651  -49.2817 H         1 UNK         0.0600 
    128 H128       -3.5426  -10.8537  -49.8954 H         1 UNK         0.0600 
    129 H129       -4.0711  -10.3369  -48.2913 H         1 UNK         0.0600 
    130 H130       -1.8590  -12.3093  -49.8171 H         1 UNK         0.3000 
    131 H131        0.5739  -11.8865  -48.4959 H         1 UNK         0.0600 
    132 H132       -0.4976  -14.5546  -49.5310 H         1 UNK         0.0800 
    133 H133        1.1743  -14.1804  -49.2144 H         1 UNK         0.0800 
    134 H134       -1.6846  -14.0758  -51.8190 H         1 UNK         0.0800 
    135 H135       -0.6785  -13.8498  -53.2280 H         1 UNK         0.0800 
    136 H136        1.5070  -15.3133  -53.3660 H         1 UNK         0.1150 
    137 H137        1.0045  -19.3071  -51.8796 H         1 UNK         0.1150 
    138 H138       -1.8527  -16.2787  -50.8928 H         1 UNK         0.1150 
    139 H139       -2.3790  -18.6971  -50.5827 H         1 UNK         0.0800 
    140 H140       -1.1522  -19.9164  -50.8566 H         1 UNK         0.0800 
    141 H141       -2.9368  -19.9670  -48.5531 H         1 UNK         0.0800 
    142 H142       -2.2776  -19.5576  -46.9906 H         1 UNK         0.0800 
    143 H143       -1.1945  -21.7444  -48.8266 H         1 UNK         0.0600 
    144 H144        0.0598  -20.5984  -46.5510 H         1 UNK         0.3000 
    145 H145        2.0426  -23.4681  -45.6837 H         1 UNK         0.0600 
    146 H146        3.7990  -21.7249  -45.8964 H         1 UNK         0.0600 
    147 H147        3.2590  -22.2615  -47.4810 H         1 UNK         0.0600 
    148 H148        2.7152  -20.7144  -46.8488 H         1 UNK         0.0600 
    149 H149        1.8025  -20.8720  -44.5099 H         1 UNK         0.3000 
    150 H150       -0.7507  -21.7503  -42.1335 H         1 UNK         0.0600 
    151 H151        1.4449  -22.5393  -41.2211 H         1 UNK         0.0600 
    152 H152        1.0163  -20.9517  -40.6012 H         1 UNK         0.0600 
    153 H153        2.2335  -21.1035  -41.8659 H         1 UNK         0.0600 
    154 H154        0.6226  -19.3098  -42.4931 H         1 UNK         0.3000 
    155 H155       -1.5608  -17.8488  -44.9431 H         1 UNK         0.0600 
    156 H156       -1.0001  -17.3987  -41.9622 H         1 UNK         0.0600 
    157 H157       -2.5733  -17.4386  -42.7438 H         1 UNK         0.0600 
    158 H158       -1.4533  -16.1310  -43.0890 H         1 UNK         0.0600 
    159 H159        0.7494  -16.7409  -43.8512 H         1 UNK         0.3000 
    160 H160        3.1965  -18.1576  -46.0897 H         1 UNK         0.0600 
    161 H161        3.5818  -15.7016  -46.3048 H         1 UNK         0.0600 
    162 H162        1.9787  -15.3876  -45.6413 H         1 UNK         0.0600 
    163 H163        2.1451  -16.2024  -47.1868 H         1 UNK         0.0600 
    164 H164        3.2862  -16.4244  -43.7698 H         1 UNK         0.3000 
    165 H165        4.0808  -18.9779  -41.4223 H         1 UNK         0.0600 
    166 H166        6.0624  -17.5285  -41.0707 H         1 UNK         0.0600 
    167 H167        6.2579  -18.4701  -42.5404 H         1 UNK         0.0600 
    168 H168        5.8237  -16.7681  -42.6443 H         1 UNK         0.0600 
    169 H169        3.8913  -16.1290  -41.2204 H         1 UNK         0.3000 
    170 H170        0.3996  -15.9353  -40.5803 H         1 UNK         0.0600 
    171 H171        1.3677  -16.6934  -38.4042 H         1 UNK         0.0600 
    172 H172        2.7731  -15.6660  -38.6601 H         1 UNK         0.0600 
    173 H173        1.1751  -14.9487  -38.4498 H         1 UNK         0.0600 
    174 H174        2.3715  -13.9345  -40.4231 H         1 UNK         0.3000 
    175 H175        2.5624  -12.3315  -41.9009 H         1 UNK         0.0600 
    176 H176        3.0456  -13.5098  -44.6900 H         1 UNK         0.0600 
    177 H177        3.7349  -12.0237  -44.0489 H         1 UNK         0.0600 
    178 H178        4.1894  -13.5720  -43.3530 H         1 UNK         0.0600 
    179 H179        0.8683  -12.4674  -44.3412 H         1 UNK         0.3000 
    180 H180       -1.8809  -10.9172  -42.7620 H         1 UNK         0.0600 
    181 H181       -0.0744   -9.6440  -44.8888 H         1 UNK         0.0600 
    182 H182       -0.5900   -8.8715  -43.3931 H         1 UNK         0.0600 
    183 H183       -1.7778   -9.2756  -44.6237 H         1 UNK         0.0600 
    184 H184       -1.2985  -11.6904  -45.4734 H         1 UNK         0.3000 
    185 H185       -1.1819  -15.0050  -45.2166 H         1 UNK         0.0600 
    186 H186       -3.5775  -15.3575  -44.6115 H         1 UNK         0.0600 
    187 H187       -4.0659  -14.1375  -45.7818 H         1 UNK         0.0600 
    188 H188       -3.3101  -15.6384  -46.3221 H         1 UNK         0.0600 
    189 H189       -2.3048  -13.5523  -47.4029 H         1 UNK         0.3000 
    190 H190       -2.2504  -21.6539  -45.3795 H         1 UNK         0.3000 
    191 H191       -4.6696  -23.0827  -45.7199 H         1 UNK         0.0600 
    192 H192       -2.8522  -22.8138  -43.2700 H         1 UNK         0.0600 
    193 H193       -4.5192  -23.3786  -43.2400 H         1 UNK         0.0600 
    194 H194       -4.1652  -21.7250  -43.7162 H         1 UNK         0.0600 
    195 H195       -1.3569  -24.2895  -45.1700 H         1 UNK         0.3000 
    196 H196       -2.0243  -27.0334  -44.8395 H         1 UNK         0.0600 
    197 H197        0.5324  -25.7361  -45.9210 H         1 UNK         0.0600 
    198 H198        0.3817  -27.4074  -45.3954 H         1 UNK         0.0600 
    199 H199        0.1881  -26.1056  -44.2324 H         1 UNK         0.0600 
    200 H200       -1.7395  -25.0325  -47.7470 H         1 UNK         0.3000 
    201 H201       -1.9134  -27.2949  -49.5958 H         1 UNK         0.0600 
    202 H202       -2.1521  -24.2882  -50.1158 H         1 UNK         0.0600 
    203 H203       -2.0677  -25.5548  -51.3300 H         1 UNK         0.0600 
    204 H204       -0.6965  -25.2630  -50.2725 H         1 UNK         0.0600 
    205 H205       -4.0809  -24.5955  -48.6011 H         1 UNK         0.3000 
    206 H206       -6.3755  -26.0542  -48.1458 H         1 UNK         0.0600 
    207 H207       -7.8045  -25.4615  -50.2209 H         1 UNK         0.0600 
    208 H208       -6.3103  -25.0943  -51.0675 H         1 UNK         0.0600 
    209 H209       -6.6411  -26.7273  -50.4948 H         1 UNK         0.0600 
    210 H210       -4.8807  -23.0467  -49.0551 H         1 UNK         0.3000 
    211 H211       -5.3044  -20.9060  -48.9236 H         1 UNK         0.0600 
    212 H212       -7.2606  -21.6085  -46.6779 H         1 UNK         0.0600 
    213 H213       -6.6970  -19.9892  -47.0540 H         1 UNK         0.0600 
    214 H214       -5.5534  -21.1900  -46.5163 H         1 UNK         0.0600 
    215 H215       -7.0050  -22.6527  -50.6889 H         1 UNK         0.3000 
    216 H216       -9.3464  -21.0246  -51.3523 H         1 UNK         0.0600 
    217 H217       -9.4969  -22.6420  -53.2552 H         1 UNK         0.0600 
    218 H218       -9.3761  -23.4765  -51.7137 H         1 UNK         0.0600 
    219 H219       -7.9711  -23.3746  -52.7724 H         1 UNK         0.0600 
    220 H220       -8.0221  -19.0673  -51.3434 H         1 UNK         0.3000 
    221 H221       -6.9835  -17.3168  -52.2080 H         1 UNK         0.0600 
    222 H222       -7.0900  -18.6274  -54.9840 H         1 UNK         0.0600 
    223 H223       -8.3551  -17.6205  -54.2914 H         1 UNK         0.0600 
    224 H224       -6.7807  -16.9302  -54.6270 H         1 UNK         0.0600 
    225 H225       -4.9631  -17.9918  -54.6233 H         1 UNK         0.3000 
    226 H226       -2.6599  -18.3377  -52.9020 H         1 UNK         0.0600 
    227 H227       -2.6376  -16.7295  -54.7808 H         1 UNK         0.0600 
    228 H228       -1.3820  -17.9376  -54.9740 H         1 UNK         0.0600 
    229 H229       -2.8538  -18.0474  -55.9352 H         1 UNK         0.0600 
    230 H230       -4.0544  -20.5515  -52.4707 H         1 UNK         0.3000 
    231 H231       -3.9798  -22.7086  -54.1753 H         1 UNK         0.0600 
    232 H232       -5.3563  -22.6437  -52.1560 H         1 UNK         0.0600 
    233 H233       -3.9330  -22.6670  -51.1115 H         1 UNK         0.0600 
    234 H234       -4.3471  -24.0782  -52.0790 H         1 UNK         0.0600 
    235 H235       -1.3546  -21.6990  -52.0426 H         1 UNK         0.3000 
    236 H236        0.2120  -24.1384  -52.4059 H         1 UNK         0.0600 
    237 H237        1.8755  -22.9041  -51.0075 H         1 UNK         0.0600 
    238 H238        0.8686  -21.4651  -51.0597 H         1 UNK         0.0600 
    239 H239        0.2902  -22.9268  -50.2625 H         1 UNK         0.0600 
    240 H240       -0.2398  -21.2983  -54.3156 H         1 UNK         0.3000 
    241 H241        2.4043  -21.6597  -55.6670 H         1 UNK         0.0600 
    242 H242       -0.9498  -21.4956  -57.9556 H         1 UNK         0.3800 
    243 H243       -1.1279  -21.2670  -56.2317 H         1 UNK         0.3800 
    244 H244        2.3621  -19.1956  -56.1446 H         1 UNK         0.0800 
    245 H245        0.9463  -19.0354  -55.1295 H         1 UNK         0.0800 
    246 H246        3.5240  -17.4260  -52.7311 H         1 UNK         0.0800 
    247 H247        2.8459  -17.1166  -54.3098 H         1 UNK         0.0800 
@<TRIPOS>BOND
     1    1    2 1    
     2    1  127 1    
     3    1  128 1    
     4    1  129 1    
     5    2    3 2    
     6    2    4 am   BACKBONE|DICT|INTERRES
     7    4    5 1    
     8    4  130 1    
     9    5    6 1    
    10    5   65 1    
    11    5  131 1    
    12    6    7 1    
    13    6  132 1    
    14    6  133 1    
    15    7    8 1    
    16    8    9 1    
    17    8  134 1    
    18    8  135 1    
    19    9   10 ar   
    20    9   14 ar   
    21   10   11 ar   
    22   10  136 1    
    23   11   12 ar   
    24   11  126 1    
    25   12   13 ar   
    26   12  137 1    
    27   13   14 ar   
    28   13   15 1    
    29   14  138 1    
    30   15   16 1    
    31   15  139 1    
    32   15  140 1    
    33   16   17 1    
    34   17   18 1    
    35   17  141 1    
    36   17  142 1    
    37   18   19 1    
    38   18   67 1    
    39   18  143 1    
    40   19   20 am   BACKBONE|DICT|INTERRES
    41   19  144 1    
    42   20   21 2    
    43   20   22 1    
    44   22   23 1    
    45   22   24 1    
    46   22  145 1    
    47   23  146 1    
    48   23  147 1    
    49   23  148 1    
    50   24   25 am   BACKBONE|DICT|INTERRES
    51   24  149 1    
    52   25   26 2    
    53   25   27 1    
    54   27   28 1    
    55   27   29 1    
    56   27  150 1    
    57   28  151 1    
    58   28  152 1    
    59   28  153 1    
    60   29   30 am   BACKBONE|DICT|INTERRES
    61   29  154 1    
    62   30   31 2    
    63   30   32 1    
    64   32   33 1    
    65   32   34 1    
    66   32  155 1    
    67   33  156 1    
    68   33  157 1    
    69   33  158 1    
    70   34   35 am   BACKBONE|DICT|INTERRES
    71   34  159 1    
    72   35   36 2    
    73   35   37 1    
    74   37   38 1    
    75   37   39 1    
    76   37  160 1    
    77   38  161 1    
    78   38  162 1    
    79   38  163 1    
    80   39   40 am   BACKBONE|DICT|INTERRES
    81   39  164 1    
    82   40   41 2    
    83   40   42 1    
    84   42   43 1    
    85   42   44 1    
    86   42  165 1    
    87   43  166 1    
    88   43  167 1    
    89   43  168 1    
    90   44   45 am   BACKBONE|DICT|INTERRES
    91   44  169 1    
    92   45   46 2    
    93   45   47 1    
    94   47   48 1    
    95   47   49 1    
    96   47  170 1    
    97   48  171 1    
    98   48  172 1    
    99   48  173 1    
   100   49   50 am   BACKBONE|DICT|INTERRES
   101   49  174 1    
   102   50   51 2    
   103   50   52 1    
   104   52   53 1    
   105   52   54 1    
   106   52  175 1    
   107   53  176 1    
   108   53  177 1    
   109   53  178 1    
   110   54   55 am   BACKBONE|DICT|INTERRES
   111   54  179 1    
   112   55   56 2    
   113   55   57 1    
   114   57   58 1    
   115   57   59 1    
   116   57  180 1    
   117   58  181 1    
   118   58  182 1    
   119   58  183 1    
   120   59   60 am   BACKBONE|DICT|INTERRES
   121   59  184 1    
   122   60   61 2    
   123   60   62 1    
   124   62   63 1    
   125   62   64 1    
   126   62  185 1    
   127   63  186 1    
   128   63  187 1    
   129   63  188 1    
   130   64   65 am   BACKBONE|DICT|INTERRES
   131   64  189 1    
   132   65   66 2    
   133   67   68 2    
   134   67   69 am   BACKBONE|DICT|INTERRES
   135   69   70 1    
   136   69  190 1    
   137   70   71 1    
   138   70   72 1    
   139   70  191 1    
   140   71  192 1    
   141   71  193 1    
   142   71  194 1    
   143   72   73 2    
   144   72   74 am   BACKBONE|DICT|INTERRES
   145   74   75 1    
   146   74  195 1    
   147   75   76 1    
   148   75   77 1    
   149   75  196 1    
   150   76  197 1    
   151   76  198 1    
   152   76  199 1    
   153   77   78 2    
   154   77   79 am   BACKBONE|DICT|INTERRES
   155   79   80 1    
   156   79  200 1    
   157   80   81 1    
   158   80   82 1    
   159   80  201 1    
   160   81  202 1    
   161   81  203 1    
   162   81  204 1    
   163   82   83 2    
   164   82   84 am   BACKBONE|DICT|INTERRES
   165   84   85 1    
   166   84  205 1    
   167   85   86 1    
   168   85   87 1    
   169   85  206 1    
   170   86  207 1    
   171   86  208 1    
   172   86  209 1    
   173   87   88 2    
   174   87   89 am   BACKBONE|DICT|INTERRES
   175   89   90 1    
   176   89  210 1    
   177   90   91 1    
   178   90   92 1    
   179   90  211 1    
   180   91  212 1    
   181   91  213 1    
   182   91  214 1    
   183   92   93 2    
   184   92   94 am   BACKBONE|DICT|INTERRES
   185   94   95 1    
   186   94  215 1    
   187   95   96 1    
   188   95   97 1    
   189   95  216 1    
   190   96  217 1    
   191   96  218 1    
   192   96  219 1    
   193   97   98 2    
   194   97   99 am   BACKBONE|DICT|INTERRES
   195   99  100 1    
   196   99  220 1    
   197  100  101 1    
   198  100  102 1    
   199  100  221 1    
   200  101  222 1    
   201  101  223 1    
   202  101  224 1    
   203  102  103 2    
   204  102  104 am   BACKBONE|DICT|INTERRES
   205  104  105 1    
   206  104  225 1    
   207  105  106 1    
   208  105  107 1    
   209  105  226 1    
   210  106  227 1    
   211  106  228 1    
   212  106  229 1    
   213  107  108 2    
   214  107  109 am   BACKBONE|DICT|INTERRES
   215  109  110 1    
   216  109  230 1    
   217  110  111 1    
   218  110  112 1    
   219  110  231 1    
   220  111  232 1    
   221  111  233 1    
   222  111  234 1    
   223  112  113 2    
   224  112  114 am   BACKBONE|DICT|INTERRES
   225  114  115 1    
   226  114  235 1    
   227  115  116 1    
   228  115  117 1    
   229  115  236 1    
   230  116  237 1    
   231  116  238 1    
   232  116  239 1    
   233  117  118 2    
   234  117  119 am   BACKBONE|DICT|INTERRES
   235  119  120 1    
   236  119  240 1    
   237  120  121 1    
   238  120  124 1    
   239  120  241 1    
   240  121  122 am   BACKBONE|DICT|INTERRES
   241  121  123 2    
   242  122  242 1    
   243  122  243 1    
   244  124  125 1    
   245  124  244 1    
   246  124  245 1    
   247  125  126 1    
   248  126  246 1    
   249  126  247 1    
@<TRIPOS>SUBSTRUCTURE
     1 UNK         1 GROUP             0       ****    0 ROOT    
