@<TRIPOS>MOLECULE
3R540
247   249    1
SMALL
USER_CHARGES


@<TRIPOS>ATOM
      1 CA          0.0160  -12.4434  -46.7598 C.3       0 UNK        -0.1800 
      2 C           0.9767  -13.0817  -47.7522 C.2       0 UNK         0.5000 
      3 O           2.1904  -13.0211  -47.5577 O.2       0 UNK        -0.5000 
      4 N           0.4379  -13.7155  -48.8027 N.am      1 UNK        -0.5000 
      5 CA          1.1811  -14.3732  -49.8894 C.3       1 UNK         0.1400 
      6 C6          0.2417  -14.8309  -51.0327 C.3       23 UNK        -0.0398 
      7 S7         -0.5727  -13.4471  -51.9112 S.3       23 UNK        -0.2404 
      8 C8         -2.1434  -13.1887  -51.0160 C.3       23 UNK        -0.0205 
      9 C9         -2.9869  -14.4508  -50.9179 C.ar      23 UNK        -0.0193 
     10 C10        -3.7474  -14.8871  -52.0071 C.ar      23 UNK        -0.1150 
     11 C11        -4.5045  -16.0617  -51.9251 C.ar      23 UNK        -0.0193 
     12 C12        -4.4809  -16.8039  -50.7372 C.ar      23 UNK        -0.1150 
     13 C13        -3.7258  -16.3758  -49.6436 C.ar      23 UNK        -0.0193 
     14 C14        -2.9979  -15.1892  -49.7329 C.ar      23 UNK        -0.1150 
     15 C15        -3.6610  -17.2015  -48.3718 C.3       23 UNK        -0.0205 
     16 S16        -2.0997  -18.1276  -48.3079 S.3       23 UNK        -0.2404 
     17 C17        -2.1109  -18.7030  -46.5830 C.3       23 UNK        -0.0398 
     18 CA         -1.4496  -20.0926  -46.4229 C.3       11 UNK         0.1400 
     19 N          -0.7992  -20.2432  -45.1193 N.am      11 UNK        -0.5000 
     20 C           0.1279  -21.1732  -44.8538 C.2       10 UNK         0.5000 
     21 O           0.5050  -22.0076  -45.6737 O.2       10 UNK        -0.5000 
     22 CA          0.7078  -21.2064  -43.4322 C.3       10 UNK         0.1400 
     23 CB          1.7889  -20.1302  -43.2612 C.3       10 UNK        -0.1800 
     24 N          -0.3029  -21.0561  -42.3875 N.am      10 UNK        -0.5000 
     25 C          -1.3018  -21.9202  -42.1596 C.2       9 UNK         0.5000 
     26 O          -1.5405  -22.8954  -42.8726 O.2       9 UNK        -0.5000 
     27 CA         -2.1859  -21.6374  -40.9364 C.3       9 UNK         0.1400 
     28 CB         -1.4441  -21.9857  -39.6361 C.3       9 UNK        -0.1800 
     29 N          -2.5865  -20.2336  -40.9038 N.am      9 UNK        -0.5000 
     30 C          -3.7085  -19.7559  -41.4578 C.2       8 UNK         0.5000 
     31 O          -4.5636  -20.4621  -41.9925 O.2       8 UNK        -0.5000 
     32 CA         -3.9046  -18.2266  -41.4276 C.3       8 UNK         0.1400 
     33 CB         -4.6855  -17.8090  -40.1725 C.3       8 UNK        -0.1800 
     34 N          -2.6520  -17.4688  -41.4864 N.am      8 UNK        -0.5000 
     35 C          -1.7905  -17.5020  -42.5121 C.2       7 UNK         0.5000 
     36 O          -1.9553  -18.1863  -43.5197 O.2       7 UNK        -0.5000 
     37 CA         -0.5007  -16.6770  -42.3691 C.3       7 UNK         0.1400 
     38 CB         -0.7296  -15.2364  -42.8492 C.3       7 UNK        -0.1800 
     39 N           0.0587  -16.6571  -41.0151 N.am      7 UNK        -0.5000 
     40 C           0.3865  -17.7257  -40.2748 C.2       6 UNK         0.5000 
     41 O           0.1355  -18.8856  -40.6083 O.2       6 UNK        -0.5000 
     42 CA          1.1411  -17.4440  -38.9585 C.3       6 UNK         0.1400 
     43 CB          1.6635  -18.7311  -38.2949 C.3       6 UNK        -0.1800 
     44 N           2.2696  -16.5371  -39.1797 N.am      6 UNK        -0.5000 
     45 C           2.1990  -15.1998  -39.2248 C.2       5 UNK         0.5000 
     46 O           1.1595  -14.5676  -39.0358 O.2       5 UNK        -0.5000 
     47 CA          3.4914  -14.4509  -39.6015 C.3       5 UNK         0.1400 
     48 CB          4.3250  -14.1472  -38.3475 C.3       5 UNK        -0.1800 
     49 N           4.3167  -15.1832  -40.5675 N.am      5 UNK        -0.5000 
     50 C           3.9655  -15.4221  -41.8386 C.2       4 UNK         0.5000 
     51 O           2.8999  -15.0526  -42.3374 O.2       4 UNK        -0.5000 
     52 CA          4.9581  -16.2539  -42.6726 C.3       4 UNK         0.1400 
     53 CB          4.6533  -17.7510  -42.5119 C.3       4 UNK        -0.1800 
     54 N           4.9090  -15.9206  -44.0954 N.am      4 UNK        -0.5000 
     55 C           5.2468  -14.7461  -44.6398 C.2       3 UNK         0.5000 
     56 O           5.7181  -13.8110  -43.9905 O.2       3 UNK        -0.5000 
     57 CA          5.0258  -14.5649  -46.1575 C.3       3 UNK         0.1400 
     58 CB          6.3314  -14.8052  -46.9396 C.3       3 UNK        -0.1800 
     59 N           3.9109  -15.3299  -46.7381 N.am      3 UNK        -0.5000 
     60 C           3.7807  -16.6570  -46.8969 C.2       2 UNK         0.5000 
     61 O           4.6129  -17.4738  -46.5030 O.2       2 UNK        -0.5000 
     62 CA          2.4935  -17.1772  -47.5706 C.3       2 UNK         0.1400 
     63 CB          1.5938  -17.8650  -46.5340 C.3       2 UNK        -0.1800 
     64 N           1.7170  -16.1367  -48.2473 N.am      2 UNK        -0.5000 
     65 C           2.0558  -15.5551  -49.4073 C.2       1 UNK         0.5000 
     66 O           3.0281  -15.8993  -50.0795 O.2       1 UNK        -0.5000 
     67 C          -2.4321  -21.2426  -46.7139 C.2       11 UNK         0.5000 
     68 O          -2.5590  -21.6485  -47.8688 O.2       11 UNK        -0.5000 
     69 N          -3.0697  -21.7827  -45.6651 N.am      12 UNK        -0.5000 
     70 CA         -3.9198  -22.9694  -45.7505 C.3       12 UNK         0.1400 
     71 CB         -4.7209  -23.1349  -44.4503 C.3       12 UNK        -0.1800 
     72 C          -3.0962  -24.2295  -46.0691 C.2       12 UNK         0.5000 
     73 O          -3.4555  -24.9738  -46.9819 O.2       12 UNK        -0.5000 
     74 N          -1.9756  -24.4108  -45.3542 N.am      13 UNK        -0.5000 
     75 CA         -1.0136  -25.4953  -45.5660 C.3       13 UNK         0.1400 
     76 CB          0.0420  -25.4631  -44.4505 C.3       13 UNK        -0.1800 
     77 C          -0.3431  -25.4473  -46.9530 C.2       13 UNK         0.5000 
     78 O          -0.1414  -26.4943  -47.5685 O.2       13 UNK        -0.5000 
     79 N          -0.0456  -24.2327  -47.4329 N.am      14 UNK        -0.5000 
     80 CA          0.5281  -23.9616  -48.7514 C.3       14 UNK         0.1400 
     81 CB          1.2663  -22.6136  -48.7058 C.3       14 UNK        -0.1800 
     82 C          -0.5016  -23.9790  -49.9004 C.2       14 UNK         0.5000 
     83 O          -0.1130  -23.7123  -51.0367 O.2       14 UNK        -0.5000 
     84 N          -1.7802  -24.2638  -49.6082 N.am      15 UNK        -0.5000 
     85 CA         -2.9023  -24.3462  -50.5504 C.3       15 UNK         0.1400 
     86 CB         -2.7321  -25.5521  -51.4981 C.3       15 UNK        -0.1800 
     87 C          -3.1361  -23.0219  -51.3045 C.2       15 UNK         0.5000 
     88 O          -3.1071  -22.9887  -52.5373 O.2       15 UNK        -0.5000 
     89 N          -3.3390  -21.9469  -50.5310 N.am      16 UNK        -0.5000 
     90 CA         -3.5163  -20.5596  -50.9689 C.3       16 UNK         0.1400 
     91 CB         -4.7620  -20.4150  -51.8677 C.3       16 UNK        -0.1800 
     92 C          -2.2368  -19.9962  -51.6133 C.2       16 UNK         0.5000 
     93 O          -2.3102  -19.3278  -52.6425 O.2       16 UNK        -0.5000 
     94 N          -1.0794  -20.3234  -51.0177 N.am      17 UNK        -0.5000 
     95 CA          0.2687  -19.9962  -51.5000 C.3       17 UNK         0.1400 
     96 CB          0.5410  -18.4837  -51.3633 C.3       17 UNK        -0.1800 
     97 C           0.5175  -20.5428  -52.9243 C.2       17 UNK         0.5000 
     98 O           0.9893  -19.8196  -53.8028 O.2       17 UNK        -0.5000 
     99 N           0.1451  -21.8164  -53.1150 N.am      18 UNK        -0.5000 
    100 CA         0.1725  -22.6103  -54.3455 C.3       18 UNK         0.1400 
    101 CB         1.6097  -22.7415  -54.8908 C.3       18 UNK        -0.1800 
    102 C         -0.8319  -22.1678  -55.4320 C.2       18 UNK         0.5000 
    103 O         -0.7726  -22.6966  -56.5436 O.2       18 UNK        -0.5000 
    104 N         -1.7511  -21.2420  -55.1176 N.am      19 UNK        -0.5000 
    105 CA        -2.7800  -20.7692  -56.0487 C.3       19 UNK         0.1400 
    106 CB        -3.2648  -19.3761  -55.6230 C.3       19 UNK        -0.1800 
    107 C         -3.9748  -21.7334  -56.1870 C.2       19 UNK         0.5000 
    108 O         -4.7402  -21.5801  -57.1381 O.2       19 UNK        -0.5000 
    109 N         -4.1179  -22.6883  -55.2520 N.am      20 UNK        -0.5000 
    110 CA        -5.1768  -23.6989  -55.1569 C.3       20 UNK         0.1400 
    111 CB        -5.1636  -24.6450  -56.3755 C.3       20 UNK        -0.1800 
    112 C         -6.5491  -23.0445  -54.9145 C.2       20 UNK         0.5000 
    113 O         -7.3403  -22.8788  -55.8455 O.2       20 UNK        -0.5000 
    114 N         -6.7709  -22.6261  -53.6590 N.am      21 UNK        -0.5000 
    115 CA        -7.9646  -21.9251  -53.1576 C.3       21 UNK         0.1400 
    116 CB        -9.1959  -22.8544  -53.1932 C.3       21 UNK        -0.1800 
    117 C         -8.2188  -20.5685  -53.8547 C.2       21 UNK         0.5000 
    118 O         -9.3662  -20.1332  -53.9634 O.2       21 UNK        -0.5000 
    119 N         -7.1325  -19.9410  -54.3248 N.am      22 UNK        -0.5000 
    120 CA        -7.1047  -18.7095  -55.1315 C.3       22 UNK         0.1400 
    121 C         -7.6916  -18.8704  -56.5691 C.2       22 UNK         0.5000 
    122 N         -7.8738  -20.0807  -57.0857 N.am      22 UNK        -0.7600 
    123 O         -7.9614  -17.8813  -57.2453 O.2       22 UNK        -0.5000 
    124 C124       -7.6608  -17.4554  -54.3943 C.3       23 UNK        -0.0398 
    125 S125       -6.9537  -17.1775  -52.7320 S.3       23 UNK        -0.2404 
    126 C126       -5.2946  -16.5369  -53.1427 C.3       23 UNK        -0.0205 
    127 H127        0.2090  -11.3731  -46.6877 H         1 UNK         0.0600 
    128 H128        0.1517  -12.8828  -45.7715 H         1 UNK         0.0600 
    129 H129       -1.0245  -12.5825  -47.0543 H         1 UNK         0.0600 
    130 H130       -0.5646  -13.7216  -48.9047 H         1 UNK         0.3000 
    131 H131        1.8702  -13.6310  -50.2980 H         1 UNK         0.0600 
    132 H132       -0.4943  -15.5486  -50.6719 H         1 UNK         0.0800 
    133 H133        0.8158  -15.3673  -51.7907 H         1 UNK         0.0800 
    134 H134       -2.7142  -12.4179  -51.5359 H         1 UNK         0.0800 
    135 H135       -1.9380  -12.7833  -50.0250 H         1 UNK         0.0800 
    136 H136       -3.7352  -14.3160  -52.9249 H         1 UNK         0.1150 
    137 H137       -5.0467  -17.7195  -50.6599 H         1 UNK         0.1150 
    138 H138       -2.4132  -14.8638  -48.8848 H         1 UNK         0.1150 
    139 H139       -3.7353  -16.5425  -47.5052 H         1 UNK         0.0800 
    140 H140       -4.5011  -17.8953  -48.3134 H         1 UNK         0.0800 
    141 H141       -3.1212  -18.6877  -46.1694 H         1 UNK         0.0800 
    142 H142       -1.5497  -17.9525  -46.0263 H         1 UNK         0.0800 
    143 H143       -0.6573  -20.1741  -47.1697 H         1 UNK         0.0600 
    144 H144       -1.0948  -19.5965  -44.3916 H         1 UNK         0.3000 
    145 H145        1.1790  -22.1815  -43.2927 H         1 UNK         0.0600 
    146 H146        2.2463  -20.1838  -42.2730 H         1 UNK         0.0600 
    147 H147        2.5854  -20.2557  -43.9957 H         1 UNK         0.0600 
    148 H148        1.3814  -19.1278  -43.3865 H         1 UNK         0.0600 
    149 H149       -0.1746  -20.2761  -41.7466 H         1 UNK         0.3000 
    150 H150       -3.0680  -22.2782  -41.0009 H         1 UNK         0.0600 
    151 H151       -1.1313  -23.0306  -39.6340 H         1 UNK         0.0600 
    152 H152       -2.0852  -21.8366  -38.7672 H         1 UNK         0.0600 
    153 H153       -0.5506  -21.3749  -39.4998 H         1 UNK         0.0600 
    154 H154       -1.9046  -19.5779  -40.5435 H         1 UNK         0.3000 
    155 H155       -4.4968  -17.9564  -42.3045 H         1 UNK         0.0600 
    156 H156       -4.1282  -18.0278  -39.2607 H         1 UNK         0.0600 
    157 H157       -5.6373  -18.3383  -40.1105 H         1 UNK         0.0600 
    158 H158       -4.9089  -16.7421  -40.1829 H         1 UNK         0.0600 
    159 H159       -2.4279  -16.8917  -40.6893 H         1 UNK         0.3000 
    160 H160        0.2491  -17.1285  -43.0200 H         1 UNK         0.0600 
    161 H161       -1.4381  -14.7069  -42.2112 H         1 UNK         0.0600 
    162 H162       -1.1249  -15.2204  -43.8659 H         1 UNK         0.0600 
    163 H163        0.2021  -14.6706  -42.8571 H         1 UNK         0.0600 
    164 H164        0.3055  -15.7470  -40.6461 H         1 UNK         0.3000 
    165 H165        0.4312  -16.9789  -38.2716 H         1 UNK         0.0600 
    166 H166        2.1753  -18.5118  -37.3577 H         1 UNK         0.0600 
    167 H167        0.8445  -19.4133  -38.0631 H         1 UNK         0.0600 
    168 H168        2.3615  -19.2635  -38.9424 H         1 UNK         0.0600 
    169 H169        3.1565  -16.9711  -39.3880 H         1 UNK         0.3000 
    170 H170        3.2018  -13.5012  -40.0565 H         1 UNK         0.0600 
    171 H171        3.7417  -13.5828  -37.6186 H         1 UNK         0.0600 
    172 H172        4.6665  -15.0603  -37.8583 H         1 UNK         0.0600 
    173 H173        5.2025  -13.5484  -38.5926 H         1 UNK         0.0600 
    174 H174        5.2073  -15.5214  -40.2321 H         1 UNK         0.3000 
    175 H175        5.9709  -16.0576  -42.3151 H         1 UNK         0.0600 
    176 H176        3.6505  -17.9904  -42.8661 H         1 UNK         0.0600 
    177 H177        5.3614  -18.3622  -43.0720 H         1 UNK         0.0600 
    178 H178        4.7147  -18.0576  -41.4670 H         1 UNK         0.0600 
    179 H179        4.5825  -16.6436  -44.7262 H         1 UNK         0.3000 
    180 H180        4.7538  -13.5176  -46.2981 H         1 UNK         0.0600 
    181 H181        6.6925  -15.8277  -46.8273 H         1 UNK         0.0600 
    182 H182        7.1224  -14.1419  -46.5877 H         1 UNK         0.0600 
    183 H183        6.1946  -14.6114  -48.0036 H         1 UNK         0.0600 
    184 H184        3.1534  -14.7445  -47.0750 H         1 UNK         0.3000 
    185 H185        2.7912  -17.9225  -48.3113 H         1 UNK         0.0600 
    186 H186        2.1186  -18.6799  -46.0340 H         1 UNK         0.0600 
    187 H187        1.2504  -17.1710  -45.7658 H         1 UNK         0.0600 
    188 H188        0.7201  -18.2947  -47.0175 H         1 UNK         0.0600 
    189 H189        0.9010  -15.7934  -47.7628 H         1 UNK         0.3000 
    190 H190       -2.8838  -21.4191  -44.7418 H         1 UNK         0.3000 
    191 H191       -4.6309  -22.8199  -46.5660 H         1 UNK         0.0600 
    192 H192       -4.0733  -23.2761  -43.5851 H         1 UNK         0.0600 
    193 H193       -5.3823  -24.0002  -44.5085 H         1 UNK         0.0600 
    194 H194       -5.3445  -22.2614  -44.2587 H         1 UNK         0.0600 
    195 H195       -1.7684  -23.7652  -44.5969 H         1 UNK         0.3000 
    196 H196       -1.5570  -26.4396  -45.4937 H         1 UNK         0.0600 
    197 H197        0.7597  -26.2761  -44.5669 H         1 UNK         0.0600 
    198 H198       -0.4189  -25.5734  -43.4687 H         1 UNK         0.0600 
    199 H199        0.6013  -24.5270  -44.4527 H         1 UNK         0.0600 
    200 H200       -0.1677  -23.4283  -46.8245 H         1 UNK         0.3000 
    201 H201        1.2644  -24.7363  -48.9741 H         1 UNK         0.0600 
    202 H202        2.0117  -22.5991  -47.9105 H         1 UNK         0.0600 
    203 H203        0.5790  -21.7846  -48.5363 H         1 UNK         0.0600 
    204 H204        1.7950  -22.4236  -49.6402 H         1 UNK         0.0600 
    205 H205       -2.0163  -24.4366  -48.6391 H         1 UNK         0.3000 
    206 H206       -3.7961  -24.5230  -49.9503 H         1 UNK         0.0600 
    207 H207       -3.6105  -25.6754  -52.1327 H         1 UNK         0.0600 
    208 H208       -2.6040  -26.4778  -50.9372 H         1 UNK         0.0600 
    209 H209       -1.8699  -25.4367  -52.1556 H         1 UNK         0.0600 
    210 H210       -3.2425  -22.0586  -49.5230 H         1 UNK         0.3000 
    211 H211       -3.6914  -19.9709  -50.0682 H         1 UNK         0.0600 
    212 H212       -5.6560  -20.7696  -51.3569 H         1 UNK         0.0600 
    213 H213       -4.6551  -20.9641  -52.8012 H         1 UNK         0.0600 
    214 H214       -4.9342  -19.3760  -52.1401 H         1 UNK         0.0600 
    215 H215       -1.1307  -20.8937  -50.1862 H         1 UNK         0.3000 
    216 H216        0.9704  -20.5136  -50.8461 H         1 UNK         0.0600 
    217 H217        1.5737  -18.2462  -51.6210 H         1 UNK         0.0600 
    218 H218        0.3772  -18.1471  -50.3396 H         1 UNK         0.0600 
    219 H219       -0.1037  -17.8945  -52.0161 H         1 UNK         0.0600 
    220 H220       -0.1912  -22.3357  -52.3070 H         1 UNK         0.3000 
    221 H221       -0.1504  -23.6080  -54.0443 H         1 UNK         0.0600 
    222 H222        1.9814  -21.7969  -55.2885 H         1 UNK         0.0600 
    223 H223        2.2975  -23.0741  -54.1133 H         1 UNK         0.0600 
    224 H224        1.6575  -23.4738  -55.6974 H         1 UNK         0.0600 
    225 H225       -1.7474  -20.8300  -54.1922 H         1 UNK         0.3000 
    226 H226       -2.3277  -20.6684  -57.0377 H         1 UNK         0.0600 
    227 H227       -2.4291  -18.6956  -55.4581 H         1 UNK         0.0600 
    228 H228       -3.8958  -18.9340  -56.3947 H         1 UNK         0.0600 
    229 H229       -3.8510  -19.4195  -54.7059 H         1 UNK         0.0600 
    230 H230       -3.4624  -22.6936  -54.4754 H         1 UNK         0.3000 
    231 H231       -4.9469  -24.3052  -54.2792 H         1 UNK         0.0600 
    232 H232       -4.1873  -25.1140  -56.4972 H         1 UNK         0.0600 
    233 H233       -5.4041  -24.1281  -57.3047 H         1 UNK         0.0600 
    234 H234       -5.8957  -25.4436  -56.2514 H         1 UNK         0.0600 
    235 H235       -6.0470  -22.7923  -52.9741 H         1 UNK         0.3000 
    236 H236       -7.7667  -21.6906  -52.1111 H         1 UNK         0.0600 
    237 H237      -10.0472  -22.3967  -52.6880 H         1 UNK         0.0600 
    238 H238       -9.5051  -23.0790  -54.2144 H         1 UNK         0.0600 
    239 H239       -8.9918  -23.7989  -52.6889 H         1 UNK         0.0600 
    240 H240       -6.2431  -20.3968  -54.1971 H         1 UNK         0.3000 
    241 H241       -6.0481  -18.5170  -55.3076 H         1 UNK         0.0600 
    242 H242       -8.2392  -20.1658  -58.0206 H         1 UNK         0.3800 
    243 H243       -7.6338  -20.9192  -56.5690 H         1 UNK         0.3800 
    244 H244       -7.4878  -16.5562  -54.9877 H         1 UNK         0.0800 
    245 H245       -8.7433  -17.5342  -54.2865 H         1 UNK         0.0800 
    246 H246       -5.4043  -15.7224  -53.8602 H         1 UNK         0.0800 
    247 H247       -4.7181  -17.3174  -53.6398 H         1 UNK         0.0800 
@<TRIPOS>BOND
     1    1    2 1    
     2    1  127 1    
     3    1  128 1    
     4    1  129 1    
     5    2    3 2    
     6    2    4 am   BACKBONE|DICT|INTERRES
     7    4    5 1    
     8    4  130 1    
     9    5    6 1    
    10    5   65 1    
    11    5  131 1    
    12    6    7 1    
    13    6  132 1    
    14    6  133 1    
    15    7    8 1    
    16    8    9 1    
    17    8  134 1    
    18    8  135 1    
    19    9   10 ar   
    20    9   14 ar   
    21   10   11 ar   
    22   10  136 1    
    23   11   12 ar   
    24   11  126 1    
    25   12   13 ar   
    26   12  137 1    
    27   13   14 ar   
    28   13   15 1    
    29   14  138 1    
    30   15   16 1    
    31   15  139 1    
    32   15  140 1    
    33   16   17 1    
    34   17   18 1    
    35   17  141 1    
    36   17  142 1    
    37   18   19 1    
    38   18   67 1    
    39   18  143 1    
    40   19   20 am   BACKBONE|DICT|INTERRES
    41   19  144 1    
    42   20   21 2    
    43   20   22 1    
    44   22   23 1    
    45   22   24 1    
    46   22  145 1    
    47   23  146 1    
    48   23  147 1    
    49   23  148 1    
    50   24   25 am   BACKBONE|DICT|INTERRES
    51   24  149 1    
    52   25   26 2    
    53   25   27 1    
    54   27   28 1    
    55   27   29 1    
    56   27  150 1    
    57   28  151 1    
    58   28  152 1    
    59   28  153 1    
    60   29   30 am   BACKBONE|DICT|INTERRES
    61   29  154 1    
    62   30   31 2    
    63   30   32 1    
    64   32   33 1    
    65   32   34 1    
    66   32  155 1    
    67   33  156 1    
    68   33  157 1    
    69   33  158 1    
    70   34   35 am   BACKBONE|DICT|INTERRES
    71   34  159 1    
    72   35   36 2    
    73   35   37 1    
    74   37   38 1    
    75   37   39 1    
    76   37  160 1    
    77   38  161 1    
    78   38  162 1    
    79   38  163 1    
    80   39   40 am   BACKBONE|DICT|INTERRES
    81   39  164 1    
    82   40   41 2    
    83   40   42 1    
    84   42   43 1    
    85   42   44 1    
    86   42  165 1    
    87   43  166 1    
    88   43  167 1    
    89   43  168 1    
    90   44   45 am   BACKBONE|DICT|INTERRES
    91   44  169 1    
    92   45   46 2    
    93   45   47 1    
    94   47   48 1    
    95   47   49 1    
    96   47  170 1    
    97   48  171 1    
    98   48  172 1    
    99   48  173 1    
   100   49   50 am   BACKBONE|DICT|INTERRES
   101   49  174 1    
   102   50   51 2    
   103   50   52 1    
   104   52   53 1    
   105   52   54 1    
   106   52  175 1    
   107   53  176 1    
   108   53  177 1    
   109   53  178 1    
   110   54   55 am   BACKBONE|DICT|INTERRES
   111   54  179 1    
   112   55   56 2    
   113   55   57 1    
   114   57   58 1    
   115   57   59 1    
   116   57  180 1    
   117   58  181 1    
   118   58  182 1    
   119   58  183 1    
   120   59   60 am   BACKBONE|DICT|INTERRES
   121   59  184 1    
   122   60   61 2    
   123   60   62 1    
   124   62   63 1    
   125   62   64 1    
   126   62  185 1    
   127   63  186 1    
   128   63  187 1    
   129   63  188 1    
   130   64   65 am   BACKBONE|DICT|INTERRES
   131   64  189 1    
   132   65   66 2    
   133   67   68 2    
   134   67   69 am   BACKBONE|DICT|INTERRES
   135   69   70 1    
   136   69  190 1    
   137   70   71 1    
   138   70   72 1    
   139   70  191 1    
   140   71  192 1    
   141   71  193 1    
   142   71  194 1    
   143   72   73 2    
   144   72   74 am   BACKBONE|DICT|INTERRES
   145   74   75 1    
   146   74  195 1    
   147   75   76 1    
   148   75   77 1    
   149   75  196 1    
   150   76  197 1    
   151   76  198 1    
   152   76  199 1    
   153   77   78 2    
   154   77   79 am   BACKBONE|DICT|INTERRES
   155   79   80 1    
   156   79  200 1    
   157   80   81 1    
   158   80   82 1    
   159   80  201 1    
   160   81  202 1    
   161   81  203 1    
   162   81  204 1    
   163   82   83 2    
   164   82   84 am   BACKBONE|DICT|INTERRES
   165   84   85 1    
   166   84  205 1    
   167   85   86 1    
   168   85   87 1    
   169   85  206 1    
   170   86  207 1    
   171   86  208 1    
   172   86  209 1    
   173   87   88 2    
   174   87   89 am   BACKBONE|DICT|INTERRES
   175   89   90 1    
   176   89  210 1    
   177   90   91 1    
   178   90   92 1    
   179   90  211 1    
   180   91  212 1    
   181   91  213 1    
   182   91  214 1    
   183   92   93 2    
   184   92   94 am   BACKBONE|DICT|INTERRES
   185   94   95 1    
   186   94  215 1    
   187   95   96 1    
   188   95   97 1    
   189   95  216 1    
   190   96  217 1    
   191   96  218 1    
   192   96  219 1    
   193   97   98 2    
   194   97   99 am   BACKBONE|DICT|INTERRES
   195   99  100 1    
   196   99  220 1    
   197  100  101 1    
   198  100  102 1    
   199  100  221 1    
   200  101  222 1    
   201  101  223 1    
   202  101  224 1    
   203  102  103 2    
   204  102  104 am   BACKBONE|DICT|INTERRES
   205  104  105 1    
   206  104  225 1    
   207  105  106 1    
   208  105  107 1    
   209  105  226 1    
   210  106  227 1    
   211  106  228 1    
   212  106  229 1    
   213  107  108 2    
   214  107  109 am   BACKBONE|DICT|INTERRES
   215  109  110 1    
   216  109  230 1    
   217  110  111 1    
   218  110  112 1    
   219  110  231 1    
   220  111  232 1    
   221  111  233 1    
   222  111  234 1    
   223  112  113 2    
   224  112  114 am   BACKBONE|DICT|INTERRES
   225  114  115 1    
   226  114  235 1    
   227  115  116 1    
   228  115  117 1    
   229  115  236 1    
   230  116  237 1    
   231  116  238 1    
   232  116  239 1    
   233  117  118 2    
   234  117  119 am   BACKBONE|DICT|INTERRES
   235  119  120 1    
   236  119  240 1    
   237  120  121 1    
   238  120  124 1    
   239  120  241 1    
   240  121  122 am   BACKBONE|DICT|INTERRES
   241  121  123 2    
   242  122  242 1    
   243  122  243 1    
   244  124  125 1    
   245  124  244 1    
   246  124  245 1    
   247  125  126 1    
   248  126  246 1    
   249  126  247 1    
@<TRIPOS>SUBSTRUCTURE
     1 UNK         1 GROUP             0       ****    0 ROOT    
