@<TRIPOS>MOLECULE
3R540
247   249    1
SMALL
USER_CHARGES


@<TRIPOS>ATOM
      1 CA          0.7325  -11.8901  -46.3496 C.3       0 UNK        -0.1800 
      2 C           0.8999  -12.7910  -47.5658 C.2       0 UNK         0.5000 
      3 O           1.9479  -12.7611  -48.2105 O.2       0 UNK        -0.5000 
      4 N          -0.1328  -13.5830  -47.8797 N.am      1 UNK        -0.5000 
      5 CA         -0.1396  -14.6132  -48.9244 C.3       1 UNK         0.1400 
      6 C6         -1.5446  -15.2411  -49.1141 C.3       23 UNK        -0.0398 
      7 S7         -2.8569  -14.0119  -49.4233 S.3       23 UNK        -0.2404 
      8 C8         -4.2154  -14.6401  -48.3854 C.3       23 UNK        -0.0205 
      9 C9         -4.8331  -15.9147  -48.9430 C.ar      23 UNK        -0.0193 
     10 C10        -5.7589  -15.8443  -49.9872 C.ar      23 UNK        -0.1150 
     11 C11        -6.3809  -16.9960  -50.4806 C.ar      23 UNK        -0.0193 
     12 C12        -6.0647  -18.2331  -49.9028 C.ar      23 UNK        -0.1150 
     13 C13        -5.1184  -18.3225  -48.8783 C.ar      23 UNK        -0.0193 
     14 C14        -4.5081  -17.1602  -48.3996 C.ar      23 UNK        -0.1150 
     15 C15        -4.7305  -19.6794  -48.3139 C.3       23 UNK        -0.0205 
     16 S16        -5.3867  -19.9431  -46.6350 S.3       23 UNK        -0.2404 
     17 C17        -4.7529  -21.6223  -46.3246 C.3       23 UNK        -0.0398 
     18 CA         -3.2759  -21.6052  -45.8527 C.3       11 UNK         0.1400 
     19 N          -3.0638  -21.1701  -44.4664 N.am      11 UNK        -0.5000 
     20 C          -3.4897  -21.7357  -43.3297 C.2       10 UNK         0.5000 
     21 O          -4.2457  -22.7070  -43.2869 O.2       10 UNK        -0.5000 
     22 CA         -2.9189  -21.1611  -42.0214 C.3       10 UNK         0.1400 
     23 CB         -1.5242  -21.7490  -41.7523 C.3       10 UNK        -0.1800 
     24 N          -2.8338  -19.7013  -42.0219 N.am      10 UNK        -0.5000 
     25 C          -3.8933  -18.8865  -41.9232 C.2       9 UNK         0.5000 
     26 O          -5.0546  -19.2823  -41.8140 O.2       9 UNK        -0.5000 
     27 CA         -3.6084  -17.3743  -41.9399 C.3       9 UNK         0.1400 
     28 CB         -3.1714  -16.8873  -40.5497 C.3       9 UNK        -0.1800 
     29 N          -2.5909  -17.0080  -42.9219 N.am      9 UNK        -0.5000 
     30 C          -2.7716  -17.0364  -44.2495 C.2       8 UNK         0.5000 
     31 O          -3.8370  -17.3214  -44.7925 O.2       8 UNK        -0.5000 
     32 CA         -1.5487  -16.6864  -45.1151 C.3       8 UNK         0.1400 
     33 CB         -1.3834  -15.1609  -45.1923 C.3       8 UNK        -0.1800 
     34 N          -0.3106  -17.2810  -44.6124 N.am      8 UNK        -0.5000 
     35 C          -0.0752  -18.5940  -44.4870 C.2       7 UNK         0.5000 
     36 O          -0.8686  -19.4718  -44.8200 O.2       7 UNK        -0.5000 
     37 CA          1.2489  -18.9956  -43.8179 C.3       7 UNK         0.1400 
     38 CB          2.3901  -19.0609  -44.8459 C.3       7 UNK        -0.1800 
     39 N           1.5999  -18.0853  -42.7275 N.am      7 UNK        -0.5000 
     40 C           0.9410  -18.0212  -41.5607 C.2       6 UNK         0.5000 
     41 O           0.0016  -18.7608  -41.2654 O.2       6 UNK        -0.5000 
     42 CA          1.3746  -16.9119  -40.5835 C.3       6 UNK         0.1400 
     43 CB          2.6283  -17.3341  -39.8031 C.3       6 UNK        -0.1800 
     44 N           1.6296  -15.6397  -41.2622 N.am      6 UNK        -0.5000 
     45 C           0.6850  -14.9038  -41.8655 C.2       5 UNK         0.5000 
     46 O          -0.5123  -15.1856  -41.8376 O.2       5 UNK        -0.5000 
     47 CA          1.1565  -13.6752  -42.6732 C.3       5 UNK         0.1400 
     48 CB          1.1132  -12.4106  -41.8037 C.3       5 UNK        -0.1800 
     49 N           2.4961  -13.8146  -43.2566 N.am      5 UNK        -0.5000 
     50 C           2.8662  -14.7806  -44.1079 C.2       4 UNK         0.5000 
     51 O           2.1097  -15.6745  -44.4898 O.2       4 UNK        -0.5000 
     52 CA          4.3384  -14.7916  -44.5391 C.3       4 UNK         0.1400 
     53 CB          5.2350  -15.1339  -43.3282 C.3       4 UNK        -0.1800 
     54 N           4.5166  -15.7824  -45.5995 N.am      4 UNK        -0.5000 
     55 C           5.6356  -15.9778  -46.3066 C.2       3 UNK         0.5000 
     56 O           6.6365  -15.2657  -46.2127 O.2       3 UNK        -0.5000 
     57 CA          5.6658  -17.1854  -47.2620 C.3       3 UNK         0.1400 
     58 CB          6.1307  -18.4442  -46.5127 C.3       3 UNK        -0.1800 
     59 N           4.3907  -17.4708  -47.9204 N.am      3 UNK        -0.5000 
     60 C           3.8500  -16.7196  -48.8882 C.2       2 UNK         0.5000 
     61 O           4.3330  -15.6520  -49.2703 O.2       2 UNK        -0.5000 
     62 CA          2.5930  -17.2675  -49.6008 C.3       2 UNK         0.1400 
     63 CB          2.0716  -18.6146  -49.0442 C.3       2 UNK        -0.1800 
     64 N           1.5274  -16.2621  -49.6655 N.am      2 UNK        -0.5000 
     65 C           0.8909  -15.7234  -48.6171 C.2       1 UNK         0.5000 
     66 O           1.0636  -16.0883  -47.4536 O.2       1 UNK        -0.5000 
     67 C          -2.5656  -22.9324  -46.1795 C.2       11 UNK         0.5000 
     68 O          -1.8233  -22.9829  -47.1573 O.2       11 UNK        -0.5000 
     69 N          -2.7555  -23.9645  -45.3469 N.am      12 UNK        -0.5000 
     70 CA         -2.1966  -25.3160  -45.4754 C.3       12 UNK         0.1400 
     71 CB         -2.7784  -26.1906  -44.3546 C.3       12 UNK        -0.1800 
     72 C          -0.6547  -25.3941  -45.4795 C.2       12 UNK         0.5000 
     73 O          -0.1033  -26.4259  -45.8628 O.2       12 UNK        -0.5000 
     74 N           0.0120  -24.3082  -45.0673 N.am      13 UNK        -0.5000 
     75 CA          1.4557  -24.1119  -45.1847 C.3       13 UNK         0.1400 
     76 CB          1.8485  -22.8883  -44.3428 C.3       13 UNK        -0.1800 
     77 C           1.9256  -23.9291  -46.6442 C.2       13 UNK         0.5000 
     78 O           3.0832  -24.2257  -46.9430 O.2       13 UNK        -0.5000 
     79 N           1.0371  -23.4382  -47.5192 N.am      14 UNK        -0.5000 
     80 CA          1.2859  -23.2508  -48.9458 C.3       14 UNK         0.1400 
     81 CB          0.4279  -22.0763  -49.4374 C.3       14 UNK        -0.1800 
     82 C           0.9631  -24.5344  -49.7335 C.2       14 UNK         0.5000 
     83 O           0.2038  -25.3835  -49.2569 O.2       14 UNK        -0.5000 
     84 N           1.5391  -24.6457  -50.9384 N.am      15 UNK        -0.5000 
     85 CA          1.3821  -25.7759  -51.8580 C.3       15 UNK         0.1400 
     86 CB          2.2332  -25.5280  -53.1130 C.3       15 UNK        -0.1800 
     87 C          -0.0909  -26.0223  -52.2343 C.2       15 UNK         0.5000 
     88 O          -0.7444  -25.1208  -52.7617 O.2       15 UNK        -0.5000 
     89 N          -0.5943  -27.2213  -51.9046 N.am      16 UNK        -0.5000 
     90 CA         -1.9861  -27.6716  -52.0644 C.3       16 UNK         0.1400 
     91 CB         -2.3329  -27.8262  -53.5602 C.3       16 UNK        -0.1800 
     92 C          -3.0185  -26.8001  -51.3092 C.2       16 UNK         0.5000 
     93 O          -4.1966  -26.7983  -51.6688 O.2       16 UNK        -0.5000 
     94 N          -2.5493  -26.0618  -50.2911 N.am      17 UNK        -0.5000 
     95 CA         -3.2581  -25.0440  -49.5117 C.3       17 UNK         0.1400 
     96 CB         -4.4146  -25.6651  -48.7011 C.3       17 UNK        -0.1800 
     97 C          -3.7022  -23.8088  -50.3299 C.2       17 UNK         0.5000 
     98 O          -4.5479  -23.0467  -49.8594 O.2       17 UNK        -0.5000 
     99 N          -3.1364  -23.6220  -51.5294 N.am      18 UNK        -0.5000 
    100 CA        -3.4380  -22.5196  -52.4360 C.3       18 UNK         0.1400 
    101 CB        -3.4941  -23.0684  -53.8699 C.3       18 UNK        -0.1800 
    102 C         -2.3492  -21.4460  -52.3163 C.2       18 UNK         0.5000 
    103 O         -1.1636  -21.7814  -52.3032 O.2       18 UNK        -0.5000 
    104 N         -2.7593  -20.1761  -52.2624 N.am      19 UNK        -0.5000 
    105 CA        -1.8723  -19.0215  -52.1997 C.3       19 UNK         0.1400 
    106 CB        -1.4815  -18.7463  -50.7379 C.3       19 UNK        -0.1800 
    107 C         -2.5922  -17.8151  -52.8126 C.2       19 UNK         0.5000 
    108 O         -3.8171  -17.7216  -52.7067 O.2       19 UNK        -0.5000 
    109 N         -1.8179  -16.9109  -53.4285 N.am      20 UNK        -0.5000 
    110 CA        -2.2647  -15.6658  -54.0634 C.3       20 UNK         0.1400 
    111 CB        -2.6160  -14.6242  -52.9780 C.3       20 UNK        -0.1800 
    112 C         -3.3891  -15.9066  -55.0967 C.2       20 UNK         0.5000 
    113 O         -3.2214  -16.7455  -55.9851 O.2       20 UNK        -0.5000 
    114 N         -4.5209  -15.2049  -54.9478 N.am      21 UNK        -0.5000 
    115 CA        -5.7141  -15.3126  -55.7923 C.3       21 UNK         0.1400 
    116 CB        -6.7111  -14.2204  -55.3749 C.3       21 UNK        -0.1800 
    117 C         -6.3941  -16.6976  -55.7634 C.2       21 UNK         0.5000 
    118 O         -7.1273  -17.0249  -56.6976 O.2       21 UNK        -0.5000 
    119 N         -6.1372  -17.4833  -54.7107 N.am      22 UNK        -0.5000 
    120 CA        -6.5942  -18.8719  -54.5688 C.3       22 UNK         0.1400 
    121 C         -5.6634  -19.8995  -55.2783 C.2       22 UNK         0.5000 
    122 N         -4.5146  -19.5121  -55.8236 N.am      22 UNK        -0.7600 
    123 O         -6.0005  -21.0774  -55.3489 O.2       22 UNK        -0.5000 
    124 C124       -6.8087  -19.2492  -53.0804 C.3       23 UNK        -0.0398 
    125 S125       -8.1792  -18.3403  -52.2825 S.3       23 UNK        -0.2404 
    126 C126       -7.3768  -16.8284  -51.6313 C.3       23 UNK        -0.0205 
    127 H127       -0.2270  -12.0477  -45.8562 H         1 UNK         0.0600 
    128 H128        0.7963  -10.8429  -46.6452 H         1 UNK         0.0600 
    129 H129        1.5216  -12.0899  -45.6247 H         1 UNK         0.0600 
    130 H130       -0.9721  -13.5358  -47.3233 H         1 UNK         0.3000 
    131 H131        0.1475  -14.1259  -49.8585 H         1 UNK         0.0600 
    132 H132       -1.8116  -15.8410  -48.2435 H         1 UNK         0.0800 
    133 H133       -1.5437  -15.9221  -49.9647 H         1 UNK         0.0800 
    134 H134       -4.9853  -13.8700  -48.3201 H         1 UNK         0.0800 
    135 H135       -3.8665  -14.7986  -47.3652 H         1 UNK         0.0800 
    136 H136       -6.0010  -14.8812  -50.4147 H         1 UNK         0.1150 
    137 H137       -6.5372  -19.1387  -50.2507 H         1 UNK         0.1150 
    138 H138       -3.7911  -17.2295  -47.5941 H         1 UNK         0.1150 
    139 H139       -5.0859  -20.4769  -48.9683 H         1 UNK         0.0800 
    140 H140       -3.6429  -19.7576  -48.3023 H         1 UNK         0.0800 
    141 H141       -4.8691  -22.1950  -47.2469 H         1 UNK         0.0800 
    142 H142       -5.3954  -22.1122  -45.5926 H         1 UNK         0.0800 
    143 H143       -2.7473  -20.8589  -46.4473 H         1 UNK         0.0600 
    144 H144       -2.3949  -20.4069  -44.3872 H         1 UNK         0.3000 
    145 H145       -3.5786  -21.4675  -41.2067 H         1 UNK         0.0600 
    146 H146       -1.1373  -21.4181  -40.7883 H         1 UNK         0.0600 
    147 H147       -1.5542  -22.8393  -41.7337 H         1 UNK         0.0600 
    148 H148       -0.8065  -21.4524  -42.5181 H         1 UNK         0.0600 
    149 H149       -1.9052  -19.2959  -42.0548 H         1 UNK         0.3000 
    150 H150       -4.5363  -16.8618  -42.2024 H         1 UNK         0.0600 
    151 H151       -3.9178  -17.1373  -39.7948 H         1 UNK         0.0600 
    152 H152       -3.0429  -15.8048  -40.5348 H         1 UNK         0.0600 
    153 H153       -2.2273  -17.3389  -40.2424 H         1 UNK         0.0600 
    154 H154       -1.7019  -16.6806  -42.5588 H         1 UNK         0.3000 
    155 H155       -1.7086  -17.0765  -46.1218 H         1 UNK         0.0600 
    156 H156       -1.5045  -14.6865  -44.2192 H         1 UNK         0.0600 
    157 H157       -2.1285  -14.7220  -45.8533 H         1 UNK         0.0600 
    158 H158       -0.3984  -14.8881  -45.5658 H         1 UNK         0.0600 
    159 H159        0.4486  -16.6405  -44.3987 H         1 UNK         0.3000 
    160 H160        1.1193  -19.9922  -43.3920 H         1 UNK         0.0600 
    161 H161        2.5472  -18.1034  -45.3414 H         1 UNK         0.0600 
    162 H162        2.1691  -19.7929  -45.6236 H         1 UNK         0.0600 
    163 H163        3.3277  -19.3578  -44.3764 H         1 UNK         0.0600 
    164 H164        2.2994  -17.3866  -42.9318 H         1 UNK         0.3000 
    165 H165        0.5621  -16.7609  -39.8693 H         1 UNK         0.0600 
    166 H166        2.8964  -16.5878  -39.0550 H         1 UNK         0.0600 
    167 H167        2.4612  -18.2749  -39.2768 H         1 UNK         0.0600 
    168 H168        3.4870  -17.4737  -40.4611 H         1 UNK         0.0600 
    169 H169        2.5893  -15.3343  -41.3216 H         1 UNK         0.3000 
    170 H170        0.4566  -13.5394  -43.4988 H         1 UNK         0.0600 
    171 H171        0.1206  -12.2651  -41.3751 H         1 UNK         0.0600 
    172 H172        1.8231  -12.4656  -40.9775 H         1 UNK         0.0600 
    173 H173        1.3455  -11.5209  -42.3894 H         1 UNK         0.0600 
    174 H174        3.1783  -13.1255  -42.9743 H         1 UNK         0.3000 
    175 H175        4.5918  -13.8038  -44.9286 H         1 UNK         0.0600 
    176 H176        5.0195  -16.1306  -42.9408 H         1 UNK         0.0600 
    177 H177        6.2933  -15.1005  -43.5851 H         1 UNK         0.0600 
    178 H178        5.0924  -14.4263  -42.5109 H         1 UNK         0.0600 
    179 H179        3.6960  -16.3490  -45.7775 H         1 UNK         0.3000 
    180 H180        6.4025  -16.9677  -48.0385 H         1 UNK         0.0600 
    181 H181        5.4243  -18.7339  -45.7341 H         1 UNK         0.0600 
    182 H182        7.0965  -18.2789  -46.0332 H         1 UNK         0.0600 
    183 H183        6.2477  -19.2886  -47.1922 H         1 UNK         0.0600 
    184 H184        3.9300  -18.3308  -47.6638 H         1 UNK         0.3000 
    185 H185        2.8976  -17.4468  -50.6329 H         1 UNK         0.0600 
    186 H186        2.8334  -19.3923  -49.1092 H         1 UNK         0.0600 
    187 H187        1.7551  -18.5446  -48.0032 H         1 UNK         0.0600 
    188 H188        1.2196  -18.9661  -49.6230 H         1 UNK         0.0600 
    189 H189        1.3569  -15.8776  -50.5836 H         1 UNK         0.3000 
    190 H190       -3.3657  -23.8025  -44.5497 H         1 UNK         0.3000 
    191 H191       -2.5315  -25.7188  -46.4319 H         1 UNK         0.0600 
    192 H192       -3.8668  -26.2263  -44.4070 H         1 UNK         0.0600 
    193 H193       -2.5017  -25.8141  -43.3690 H         1 UNK         0.0600 
    194 H194       -2.4177  -27.2174  -44.4284 H         1 UNK         0.0600 
    195 H195       -0.5293  -23.5128  -44.7655 H         1 UNK         0.3000 
    196 H196        1.9595  -24.9910  -44.7777 H         1 UNK         0.0600 
    197 H197        2.9233  -22.7080  -44.3879 H         1 UNK         0.0600 
    198 H198        1.5851  -23.0268  -43.2939 H         1 UNK         0.0600 
    199 H199        1.3481  -21.9881  -44.6996 H         1 UNK         0.0600 
    200 H200        0.0765  -23.2914  -47.2231 H         1 UNK         0.3000 
    201 H201        2.3371  -22.9967  -49.0973 H         1 UNK         0.0600 
    202 H202        0.5323  -21.2081  -48.7871 H         1 UNK         0.0600 
    203 H203       -0.6309  -22.3355  -49.4791 H         1 UNK         0.0600 
    204 H204        0.7301  -21.7696  -50.4388 H         1 UNK         0.0600 
    205 H205        2.1095  -23.8833  -51.2731 H         1 UNK         0.3000 
    206 H206        1.7719  -26.6632  -51.3551 H         1 UNK         0.0600 
    207 H207        3.2887  -25.4233  -52.8613 H         1 UNK         0.0600 
    208 H208        2.1475  -26.3603  -53.8129 H         1 UNK         0.0600 
    209 H209        1.9211  -24.6243  -53.6384 H         1 UNK         0.0600 
    210 H210        0.0176  -27.8821  -51.4455 H         1 UNK         0.3000 
    211 H211       -2.0402  -28.6614  -51.6091 H         1 UNK         0.0600 
    212 H212       -2.3744  -26.8619  -54.0677 H         1 UNK         0.0600 
    213 H213       -3.3038  -28.3052  -53.6909 H         1 UNK         0.0600 
    214 H214       -1.5971  -28.4446  -54.0741 H         1 UNK         0.0600 
    215 H215       -1.5571  -26.1224  -50.0844 H         1 UNK         0.3000 
    216 H216       -2.5178  -24.6834  -48.8026 H         1 UNK         0.0600 
    217 H217       -4.7981  -24.9573  -47.9652 H         1 UNK         0.0600 
    218 H218       -4.0881  -26.5516  -48.1579 H         1 UNK         0.0600 
    219 H219       -5.2484  -25.9529  -49.3418 H         1 UNK         0.0600 
    220 H220       -2.3877  -24.2384  -51.8286 H         1 UNK         0.3000 
    221 H221       -4.4092  -22.0798  -52.1984 H         1 UNK         0.0600 
    222 H222       -2.5600  -23.5555  -54.1528 H         1 UNK         0.0600 
    223 H223       -4.2980  -23.7962  -53.9813 H         1 UNK         0.0600 
    224 H224       -3.6742  -22.2691  -54.5884 H         1 UNK         0.0600 
    225 H225       -3.7406  -19.9411  -52.3233 H         1 UNK         0.3000 
    226 H226       -0.9729  -19.2247  -52.7852 H         1 UNK         0.0600 
    227 H227       -1.0647  -19.6335  -50.2621 H         1 UNK         0.0600 
    228 H228       -0.7250  -17.9647  -50.6835 H         1 UNK         0.0600 
    229 H229       -2.3390  -18.4240  -50.1464 H         1 UNK         0.0600 
    230 H230       -0.8282  -17.0981  -53.5019 H         1 UNK         0.3000 
    231 H231       -1.4145  -15.2811  -54.6284 H         1 UNK         0.0600 
    232 H232       -3.4575  -14.9431  -52.3609 H         1 UNK         0.0600 
    233 H233       -2.8646  -13.6569  -53.4159 H         1 UNK         0.0600 
    234 H234       -1.7677  -14.4594  -52.3138 H         1 UNK         0.0600 
    235 H235       -4.5779  -14.5564  -54.1762 H         1 UNK         0.3000 
    236 H236       -5.4086  -15.1235  -56.8234 H         1 UNK         0.0600 
    237 H237       -7.6033  -14.2440  -56.0022 H         1 UNK         0.0600 
    238 H238       -7.0343  -14.3456  -54.3406 H         1 UNK         0.0600 
    239 H239       -6.2737  -13.2267  -55.4735 H         1 UNK         0.0600 
    240 H240       -5.4765  -17.1699  -54.0094 H         1 UNK         0.3000 
    241 H241       -7.5613  -18.9668  -55.0661 H         1 UNK         0.0600 
    242 H242       -3.9417  -20.1919  -56.2964 H         1 UNK         0.3800 
    243 H243       -4.2206  -18.5424  -55.8013 H         1 UNK         0.3800 
    244 H244       -7.0558  -20.3086  -52.9915 H         1 UNK         0.0800 
    245 H245       -5.8910  -19.1151  -52.5127 H         1 UNK         0.0800 
    246 H246       -6.8827  -16.3049  -52.4488 H         1 UNK         0.0800 
    247 H247       -8.1714  -16.1636  -51.2900 H         1 UNK         0.0800 
@<TRIPOS>BOND
     1    1    2 1    
     2    1  127 1    
     3    1  128 1    
     4    1  129 1    
     5    2    3 2    
     6    2    4 am   BACKBONE|DICT|INTERRES
     7    4    5 1    
     8    4  130 1    
     9    5    6 1    
    10    5   65 1    
    11    5  131 1    
    12    6    7 1    
    13    6  132 1    
    14    6  133 1    
    15    7    8 1    
    16    8    9 1    
    17    8  134 1    
    18    8  135 1    
    19    9   10 ar   
    20    9   14 ar   
    21   10   11 ar   
    22   10  136 1    
    23   11   12 ar   
    24   11  126 1    
    25   12   13 ar   
    26   12  137 1    
    27   13   14 ar   
    28   13   15 1    
    29   14  138 1    
    30   15   16 1    
    31   15  139 1    
    32   15  140 1    
    33   16   17 1    
    34   17   18 1    
    35   17  141 1    
    36   17  142 1    
    37   18   19 1    
    38   18   67 1    
    39   18  143 1    
    40   19   20 am   BACKBONE|DICT|INTERRES
    41   19  144 1    
    42   20   21 2    
    43   20   22 1    
    44   22   23 1    
    45   22   24 1    
    46   22  145 1    
    47   23  146 1    
    48   23  147 1    
    49   23  148 1    
    50   24   25 am   BACKBONE|DICT|INTERRES
    51   24  149 1    
    52   25   26 2    
    53   25   27 1    
    54   27   28 1    
    55   27   29 1    
    56   27  150 1    
    57   28  151 1    
    58   28  152 1    
    59   28  153 1    
    60   29   30 am   BACKBONE|DICT|INTERRES
    61   29  154 1    
    62   30   31 2    
    63   30   32 1    
    64   32   33 1    
    65   32   34 1    
    66   32  155 1    
    67   33  156 1    
    68   33  157 1    
    69   33  158 1    
    70   34   35 am   BACKBONE|DICT|INTERRES
    71   34  159 1    
    72   35   36 2    
    73   35   37 1    
    74   37   38 1    
    75   37   39 1    
    76   37  160 1    
    77   38  161 1    
    78   38  162 1    
    79   38  163 1    
    80   39   40 am   BACKBONE|DICT|INTERRES
    81   39  164 1    
    82   40   41 2    
    83   40   42 1    
    84   42   43 1    
    85   42   44 1    
    86   42  165 1    
    87   43  166 1    
    88   43  167 1    
    89   43  168 1    
    90   44   45 am   BACKBONE|DICT|INTERRES
    91   44  169 1    
    92   45   46 2    
    93   45   47 1    
    94   47   48 1    
    95   47   49 1    
    96   47  170 1    
    97   48  171 1    
    98   48  172 1    
    99   48  173 1    
   100   49   50 am   BACKBONE|DICT|INTERRES
   101   49  174 1    
   102   50   51 2    
   103   50   52 1    
   104   52   53 1    
   105   52   54 1    
   106   52  175 1    
   107   53  176 1    
   108   53  177 1    
   109   53  178 1    
   110   54   55 am   BACKBONE|DICT|INTERRES
   111   54  179 1    
   112   55   56 2    
   113   55   57 1    
   114   57   58 1    
   115   57   59 1    
   116   57  180 1    
   117   58  181 1    
   118   58  182 1    
   119   58  183 1    
   120   59   60 am   BACKBONE|DICT|INTERRES
   121   59  184 1    
   122   60   61 2    
   123   60   62 1    
   124   62   63 1    
   125   62   64 1    
   126   62  185 1    
   127   63  186 1    
   128   63  187 1    
   129   63  188 1    
   130   64   65 am   BACKBONE|DICT|INTERRES
   131   64  189 1    
   132   65   66 2    
   133   67   68 2    
   134   67   69 am   BACKBONE|DICT|INTERRES
   135   69   70 1    
   136   69  190 1    
   137   70   71 1    
   138   70   72 1    
   139   70  191 1    
   140   71  192 1    
   141   71  193 1    
   142   71  194 1    
   143   72   73 2    
   144   72   74 am   BACKBONE|DICT|INTERRES
   145   74   75 1    
   146   74  195 1    
   147   75   76 1    
   148   75   77 1    
   149   75  196 1    
   150   76  197 1    
   151   76  198 1    
   152   76  199 1    
   153   77   78 2    
   154   77   79 am   BACKBONE|DICT|INTERRES
   155   79   80 1    
   156   79  200 1    
   157   80   81 1    
   158   80   82 1    
   159   80  201 1    
   160   81  202 1    
   161   81  203 1    
   162   81  204 1    
   163   82   83 2    
   164   82   84 am   BACKBONE|DICT|INTERRES
   165   84   85 1    
   166   84  205 1    
   167   85   86 1    
   168   85   87 1    
   169   85  206 1    
   170   86  207 1    
   171   86  208 1    
   172   86  209 1    
   173   87   88 2    
   174   87   89 am   BACKBONE|DICT|INTERRES
   175   89   90 1    
   176   89  210 1    
   177   90   91 1    
   178   90   92 1    
   179   90  211 1    
   180   91  212 1    
   181   91  213 1    
   182   91  214 1    
   183   92   93 2    
   184   92   94 am   BACKBONE|DICT|INTERRES
   185   94   95 1    
   186   94  215 1    
   187   95   96 1    
   188   95   97 1    
   189   95  216 1    
   190   96  217 1    
   191   96  218 1    
   192   96  219 1    
   193   97   98 2    
   194   97   99 am   BACKBONE|DICT|INTERRES
   195   99  100 1    
   196   99  220 1    
   197  100  101 1    
   198  100  102 1    
   199  100  221 1    
   200  101  222 1    
   201  101  223 1    
   202  101  224 1    
   203  102  103 2    
   204  102  104 am   BACKBONE|DICT|INTERRES
   205  104  105 1    
   206  104  225 1    
   207  105  106 1    
   208  105  107 1    
   209  105  226 1    
   210  106  227 1    
   211  106  228 1    
   212  106  229 1    
   213  107  108 2    
   214  107  109 am   BACKBONE|DICT|INTERRES
   215  109  110 1    
   216  109  230 1    
   217  110  111 1    
   218  110  112 1    
   219  110  231 1    
   220  111  232 1    
   221  111  233 1    
   222  111  234 1    
   223  112  113 2    
   224  112  114 am   BACKBONE|DICT|INTERRES
   225  114  115 1    
   226  114  235 1    
   227  115  116 1    
   228  115  117 1    
   229  115  236 1    
   230  116  237 1    
   231  116  238 1    
   232  116  239 1    
   233  117  118 2    
   234  117  119 am   BACKBONE|DICT|INTERRES
   235  119  120 1    
   236  119  240 1    
   237  120  121 1    
   238  120  124 1    
   239  120  241 1    
   240  121  122 am   BACKBONE|DICT|INTERRES
   241  121  123 2    
   242  122  242 1    
   243  122  243 1    
   244  124  125 1    
   245  124  244 1    
   246  124  245 1    
   247  125  126 1    
   248  126  246 1    
   249  126  247 1    
@<TRIPOS>SUBSTRUCTURE
     1 UNK         1 GROUP             0       ****    0 ROOT    
