@<TRIPOS>MOLECULE
3R540
247   249    1
SMALL
USER_CHARGES


@<TRIPOS>ATOM
      1 CA         -2.5979  -11.4994  -50.1905 C.3       0 UNK        -0.1800 
      2 C          -1.5016  -12.1923  -49.3943 C.2       0 UNK         0.5000 
      3 O          -1.6982  -12.4681  -48.2115 O.2       0 UNK        -0.5000 
      4 N          -0.3549  -12.4559  -50.0426 N.am      1 UNK        -0.5000 
      5 CA          0.8325  -13.1758  -49.5436 C.3       1 UNK         0.1400 
      6 C6          0.8015  -14.7138  -49.7897 C.3       23 UNK        -0.0398 
      7 S7         -0.7219  -15.5929  -49.2918 S.3       23 UNK        -0.2404 
      8 C8         -0.1169  -17.2799  -48.9360 C.3       23 UNK        -0.0205 
      9 C9          0.7778  -17.8910  -50.0110 C.ar      23 UNK        -0.0193 
     10 C10         0.5349  -17.6828  -51.3726 C.ar      23 UNK        -0.1150 
     11 C11         1.4129  -18.1854  -52.3349 C.ar      23 UNK        -0.0193 
     12 C12         2.5087  -18.9525  -51.9305 C.ar      23 UNK        -0.1150 
     13 C13         2.7515  -19.2042  -50.5768 C.ar      23 UNK        -0.0193 
     14 C14         1.8778  -18.6630  -49.6234 C.ar      23 UNK        -0.1150 
     15 C15         4.0025  -20.0084  -50.2103 C.3       23 UNK        -0.0205 
     16 S16         4.2025  -20.4435  -48.4466 S.3       23 UNK        -0.2404 
     17 C17         3.1173  -21.9028  -48.2910 C.3       23 UNK        -0.0398 
     18 CA          3.5886  -22.8350  -47.1446 C.3       11 UNK         0.1400 
     19 N           3.4250  -22.1948  -45.8327 N.am      11 UNK        -0.5000 
     20 C           4.1494  -22.4479  -44.7355 C.2       10 UNK         0.5000 
     21 O           5.1148  -23.2114  -44.7145 O.2       10 UNK        -0.5000 
     22 CA          3.6756  -21.7808  -43.4269 C.3       10 UNK         0.1400 
     23 CB          4.3221  -20.3997  -43.2425 C.3       10 UNK        -0.1800 
     24 N           2.2156  -21.6586  -43.3510 N.am      10 UNK        -0.5000 
     25 C           1.3761  -22.7011  -43.2590 C.2       9 UNK         0.5000 
     26 O           1.7528  -23.8690  -43.1632 O.2       9 UNK        -0.5000 
     27 CA         -0.1325  -22.4054  -43.3473 C.3       9 UNK         0.1400 
     28 CB         -0.6948  -22.0251  -41.9699 C.3       9 UNK        -0.1800 
     29 N          -0.4567  -21.3595  -44.3167 N.am      9 UNK        -0.5000 
     30 C          -0.2172  -21.4380  -45.6341 C.2       8 UNK         0.5000 
     31 O           0.2958  -22.4091  -46.1853 O.2       8 UNK        -0.5000 
     32 CA         -0.5350  -20.1897  -46.4707 C.3       8 UNK         0.1400 
     33 CB         -2.0421  -20.0872  -46.7300 C.3       8 UNK        -0.1800 
     34 N          -0.0541  -18.9646  -45.8343 N.am      8 UNK        -0.5000 
     35 C           1.2277  -18.7146  -45.5312 C.2       7 UNK         0.5000 
     36 O           2.1525  -19.4752  -45.8090 O.2       7 UNK        -0.5000 
     37 CA          1.5164  -17.4298  -44.7378 C.3       7 UNK         0.1400 
     38 CB          1.6269  -16.2128  -45.6631 C.3       7 UNK        -0.1800 
     39 N           0.4969  -17.1838  -43.7201 N.am      7 UNK        -0.5000 
     40 C           0.3678  -17.9088  -42.6010 C.2       6 UNK         0.5000 
     41 O           1.1440  -18.8074  -42.2741 O.2       6 UNK        -0.5000 
     42 CA         -0.8654  -17.6094  -41.7312 C.3       6 UNK         0.1400 
     43 CB         -0.5915  -16.4470  -40.7672 C.3       6 UNK        -0.1800 
     44 N          -2.0488  -17.3139  -42.5434 N.am      6 UNK        -0.5000 
     45 C          -2.7183  -18.2511  -43.2298 C.2       5 UNK         0.5000 
     46 O          -2.4076  -19.4414  -43.2264 O.2       5 UNK        -0.5000 
     47 CA         -3.9130  -17.7958  -44.0893 C.3       5 UNK         0.1400 
     48 CB         -5.2132  -17.8459  -43.2739 C.3       5 UNK        -0.1800 
     49 N          -3.7654  -16.4620  -44.6733 N.am      5 UNK        -0.5000 
     50 C          -2.7979  -16.0833  -45.5195 C.2       4 UNK         0.5000 
     51 O          -1.9080  -16.8372  -45.9085 O.2       4 UNK        -0.5000 
     52 CA         -2.8222  -14.6248  -46.0184 C.3       4 UNK         0.1400 
     53 CB         -4.1560  -13.8957  -45.7495 C.3       4 UNK        -0.1800 
     54 N          -1.7069  -13.8215  -45.5085 N.am      4 UNK        -0.5000 
     55 C          -1.3007  -13.7052  -44.2342 C.2       3 UNK         0.5000 
     56 O          -1.7832  -14.3524  -43.3026 O.2       3 UNK        -0.5000 
     57 CA         -0.1818  -12.6911  -43.9335 C.3       3 UNK         0.1400 
     58 CB          0.8429  -13.2368  -42.9228 C.3       3 UNK        -0.1800 
     59 N           0.5204  -12.2448  -45.1384 N.am      3 UNK        -0.5000 
     60 C           0.8387  -10.9754  -45.4146 C.2       2 UNK         0.5000 
     61 O           0.5020  -10.0210  -44.7121 O.2       2 UNK        -0.5000 
     62 CA          1.6861  -10.7047  -46.6747 C.3       2 UNK         0.1400 
     63 CB          3.1853  -10.9080  -46.3822 C.3       2 UNK        -0.1800 
     64 N           1.2747  -11.4329  -47.8820 N.am      2 UNK        -0.5000 
     65 C           1.3079  -12.7498  -48.1346 C.2       1 UNK         0.5000 
     66 O           1.6855  -13.5901  -47.3192 O.2       1 UNK        -0.5000 
     67 C           2.9071  -24.2257  -47.2217 C.2       11 UNK         0.5000 
     68 O           2.9681  -24.8623  -48.2745 O.2       11 UNK        -0.5000 
     69 N           2.2903  -24.6817  -46.1199 N.am      12 UNK        -0.5000 
     70 CA          1.5959  -25.9594  -45.9304 C.3       12 UNK         0.1400 
     71 CB          2.5676  -27.1477  -46.0919 C.3       12 UNK        -0.1800 
     72 C           0.3060  -26.1153  -46.7656 C.2       12 UNK         0.5000 
     73 O          -0.1079  -27.2436  -47.0399 O.2       12 UNK        -0.5000 
     74 N          -0.3299  -24.9947  -47.1279 N.am      13 UNK        -0.5000 
     75 CA         -1.6465  -24.9520  -47.7577 C.3       13 UNK         0.1400 
     76 CB         -1.6796  -23.8064  -48.7804 C.3       13 UNK        -0.1800 
     77 C          -2.7196  -24.7534  -46.6739 C.2       13 UNK         0.5000 
     78 O          -2.5222  -23.9580  -45.7536 O.2       13 UNK        -0.5000 
     79 N          -3.8370  -25.4793  -46.7955 N.am      14 UNK        -0.5000 
     80 CA         -4.9411  -25.4388  -45.8323 C.3       14 UNK         0.1400 
     81 CB         -5.7161  -26.7637  -45.9092 C.3       14 UNK        -0.1800 
     82 C          -5.8953  -24.2493  -46.0511 C.2       14 UNK         0.5000 
     83 O          -6.5352  -23.8035  -45.0975 O.2       14 UNK        -0.5000 
     84 N          -6.0003  -23.7790  -47.3002 N.am      15 UNK        -0.5000 
     85 CA         -6.8841  -22.6875  -47.7036 C.3       15 UNK         0.1400 
     86 CB         -7.1274  -22.7872  -49.2157 C.3       15 UNK        -0.1800 
     87 C          -6.2966  -21.3108  -47.3541 C.2       15 UNK         0.5000 
     88 O          -5.0763  -21.1349  -47.3900 O.2       15 UNK        -0.5000 
     89 N          -7.1813  -20.3405  -47.0870 N.am      16 UNK        -0.5000 
     90 CA         -6.8350  -18.9354  -46.8693 C.3       16 UNK         0.1400 
     91 CB         -8.0933  -18.1487  -46.4756 C.3       16 UNK        -0.1800 
     92 C          -6.1752  -18.3285  -48.1200 C.2       16 UNK         0.5000 
     93 O          -6.6999  -18.4926  -49.2244 O.2       16 UNK        -0.5000 
     94 N          -5.0033  -17.7065  -47.9255 N.am      17 UNK        -0.5000 
     95 CA         -4.1070  -17.1757  -48.9638 C.3       17 UNK         0.1400 
     96 CB         -4.7082  -15.9083  -49.6033 C.3       17 UNK        -0.1800 
     97 C          -3.6799  -18.2320  -50.0108 C.2       17 UNK         0.5000 
     98 O          -3.4238  -17.8929  -51.1674 O.2       17 UNK        -0.5000 
     99 N          -3.6659  -19.5086  -49.5901 N.am      18 UNK        -0.5000 
    100 CA        -3.4078  -20.7111  -50.3858 C.3       18 UNK         0.1400 
    101 CB        -1.9230  -20.7729  -50.7931 C.3       18 UNK        -0.1800 
    102 C         -4.3710  -20.8600  -51.5834 C.2       18 UNK         0.5000 
    103 O         -3.9810  -21.4036  -52.6189 O.2       18 UNK        -0.5000 
    104 N         -5.5914  -20.3114  -51.4393 N.am      19 UNK        -0.5000 
    105 CA        -6.6582  -20.1860  -52.4428 C.3       19 UNK         0.1400 
    106 CB        -7.2009  -21.5794  -52.8255 C.3       19 UNK        -0.1800 
    107 C         -6.2589  -19.3748  -53.6975 C.2       19 UNK         0.5000 
    108 O         -6.9619  -19.4436  -54.7064 O.2       19 UNK        -0.5000 
    109 N         -5.1133  -18.6749  -53.6393 N.am      20 UNK        -0.5000 
    110 CA        -4.3529  -18.1135  -54.7629 C.3       20 UNK         0.1400 
    111 CB        -5.1318  -16.9722  -55.4483 C.3       20 UNK        -0.1800 
    112 C         -3.8493  -19.1806  -55.7680 C.2       20 UNK         0.5000 
    113 O         -3.4203  -18.8246  -56.8668 O.2       20 UNK        -0.5000 
    114 N         -3.8963  -20.4634  -55.3791 N.am      21 UNK        -0.5000 
    115 CA        -3.3884  -21.6017  -56.1406 C.3       21 UNK         0.1400 
    116 CB        -4.2352  -22.8432  -55.8199 C.3       21 UNK        -0.1800 
    117 C         -1.9074  -21.8513  -55.8165 C.2       21 UNK         0.5000 
    118 O         -1.1451  -22.2085  -56.7153 O.2       21 UNK        -0.5000 
    119 N         -1.5275  -21.6176  -54.5509 N.am      22 UNK        -0.5000 
    120 CA        -0.1371  -21.5761  -54.0584 C.3       22 UNK         0.1400 
    121 C          0.5951  -22.9525  -54.0319 C.2       22 UNK         0.5000 
    122 N         -0.1099  -24.0748  -54.1053 N.am      22 UNK        -0.7600 
    123 O          1.8158  -23.0114  -53.9123 O.2       22 UNK        -0.5000 
    124 C124        0.7018  -20.4585  -54.7401 C.3       23 UNK        -0.0398 
    125 S125       -0.0886  -18.8157  -54.5951 S.3       23 UNK        -0.2404 
    126 C126        1.2178  -17.8334  -53.8024 C.3       23 UNK        -0.0205 
    127 H127       -2.2916  -11.3005  -51.2177 H         1 UNK         0.0600 
    128 H128       -2.8585  -10.5503  -49.7223 H         1 UNK         0.0600 
    129 H129       -3.4905  -12.1246  -50.2166 H         1 UNK         0.0600 
    130 H130       -0.2883  -12.1698  -51.0092 H         1 UNK         0.3000 
    131 H131        1.6389  -12.8103  -50.1816 H         1 UNK         0.0600 
    132 H132        1.6646  -15.1993  -49.3307 H         1 UNK         0.0800 
    133 H133        0.9192  -14.8875  -50.8596 H         1 UNK         0.0800 
    134 H134        0.4187  -17.2398  -47.9908 H         1 UNK         0.0800 
    135 H135       -0.9682  -17.9393  -48.7784 H         1 UNK         0.0800 
    136 H136       -0.3157  -17.0935  -51.6853 H         1 UNK         0.1150 
    137 H137        3.1956  -19.3340  -52.6731 H         1 UNK         0.1150 
    138 H138        2.0572  -18.8177  -48.5698 H         1 UNK         0.1150 
    139 H139        4.0407  -20.9178  -50.8118 H         1 UNK         0.0800 
    140 H140        4.8722  -19.4179  -50.5012 H         1 UNK         0.0800 
    141 H141        2.0916  -21.5694  -48.1277 H         1 UNK         0.0800 
    142 H142        3.1206  -22.4310  -49.2457 H         1 UNK         0.0800 
    143 H143        4.6529  -23.0270  -47.2960 H         1 UNK         0.0600 
    144 H144        2.6891  -21.4991  -45.7708 H         1 UNK         0.3000 
    145 H145        3.9989  -22.4147  -42.5985 H         1 UNK         0.0600 
    146 H146        4.0059  -19.9372  -42.3073 H         1 UNK         0.0600 
    147 H147        4.0680  -19.7194  -44.0546 H         1 UNK         0.0600 
    148 H148        5.4093  -20.4814  -43.2149 H         1 UNK         0.0600 
    149 H149        1.8300  -20.7245  -43.4093 H         1 UNK         0.3000 
    150 H150       -0.6287  -23.3209  -43.6761 H         1 UNK         0.0600 
    151 H151       -0.2710  -21.0889  -41.6059 H         1 UNK         0.0600 
    152 H152       -1.7782  -21.9099  -42.0064 H         1 UNK         0.0600 
    153 H153       -0.4748  -22.7964  -41.2308 H         1 UNK         0.0600 
    154 H154       -0.9350  -20.5403  -43.9549 H         1 UNK         0.3000 
    155 H155       -0.0267  -20.2814  -47.4327 H         1 UNK         0.0600 
    156 H156       -2.3776  -20.9051  -47.3662 H         1 UNK         0.0600 
    157 H157       -2.2993  -19.1538  -47.2257 H         1 UNK         0.0600 
    158 H158       -2.6189  -20.1473  -45.8084 H         1 UNK         0.0600 
    159 H159       -0.7494  -18.2491  -45.6375 H         1 UNK         0.3000 
    160 H160        2.4802  -17.5616  -44.2412 H         1 UNK         0.0600 
    161 H161        0.6589  -15.9191  -46.0699 H         1 UNK         0.0600 
    162 H162        2.2914  -16.4144  -46.5045 H         1 UNK         0.0600 
    163 H163        2.0375  -15.3540  -45.1341 H         1 UNK         0.0600 
    164 H164       -0.2158  -16.5024  -43.9380 H         1 UNK         0.3000 
    165 H165       -1.0711  -18.4986  -41.1310 H         1 UNK         0.0600 
    166 H166       -1.4449  -16.2677  -40.1131 H         1 UNK         0.0600 
    167 H167        0.2678  -16.6624  -40.1309 H         1 UNK         0.0600 
    168 H168       -0.3797  -15.5227  -41.3020 H         1 UNK         0.0600 
    169 H169       -2.3119  -16.3393  -42.6397 H         1 UNK         0.3000 
    170 H170       -4.0052  -18.5047  -44.9127 H         1 UNK         0.0600 
    171 H171       -5.3808  -18.8446  -42.8681 H         1 UNK         0.0600 
    172 H172       -5.1868  -17.1507  -42.4338 H         1 UNK         0.0600 
    173 H173       -6.0790  -17.5963  -43.8872 H         1 UNK         0.0600 
    174 H174       -4.4279  -15.7631  -44.3686 H         1 UNK         0.3000 
    175 H175       -2.6938  -14.6819  -47.0996 H         1 UNK         0.0600 
    176 H176       -4.3316  -13.7364  -44.6849 H         1 UNK         0.0600 
    177 H177       -4.1614  -12.9178  -46.2317 H         1 UNK         0.0600 
    178 H178       -5.0025  -14.4526  -46.1539 H         1 UNK         0.0600 
    179 H179       -1.2611  -13.2433  -46.2115 H         1 UNK         0.3000 
    180 H180       -0.6860  -11.8419  -43.4684 H         1 UNK         0.0600 
    181 H181        0.3765  -13.4141  -41.9538 H         1 UNK         0.0600 
    182 H182        1.6543  -12.5274  -42.7590 H         1 UNK         0.0600 
    183 H183        1.2814  -14.1768  -43.2563 H         1 UNK         0.0600 
    184 H184        0.8566  -12.9625  -45.7775 H         1 UNK         0.3000 
    185 H185        1.5468   -9.6496  -46.9160 H         1 UNK         0.0600 
    186 H186        3.5072  -10.2794  -45.5510 H         1 UNK         0.0600 
    187 H187        3.4138  -11.9401  -46.1145 H         1 UNK         0.0600 
    188 H188        3.7953  -10.6421  -47.2454 H         1 UNK         0.0600 
    189 H189        0.8942  -10.8478  -48.6127 H         1 UNK         0.3000 
    190 H190        2.2699  -24.0688  -45.3149 H         1 UNK         0.3000 
    191 H191        1.2652  -25.9581  -44.8912 H         1 UNK         0.0600 
    192 H192        2.1003  -28.0814  -45.7774 H         1 UNK         0.0600 
    193 H193        3.4601  -27.0128  -45.4807 H         1 UNK         0.0600 
    194 H194        2.8846  -27.2756  -47.1271 H         1 UNK         0.0600 
    195 H195        0.0247  -24.0993  -46.7948 H         1 UNK         0.3000 
    196 H196       -1.8406  -25.8857  -48.2897 H         1 UNK         0.0600 
    197 H197       -2.6514  -23.7506  -49.2713 H         1 UNK         0.0600 
    198 H198       -0.9296  -23.9522  -49.5581 H         1 UNK         0.0600 
    199 H199       -1.4872  -22.8418  -48.3122 H         1 UNK         0.0600 
    200 H200       -3.9309  -26.1241  -47.5673 H         1 UNK         0.3000 
    201 H201       -4.5307  -25.3500  -44.8238 H         1 UNK         0.0600 
    202 H202       -6.5325  -26.7813  -45.1858 H         1 UNK         0.0600 
    203 H203       -5.0691  -27.6125  -45.6869 H         1 UNK         0.0600 
    204 H204       -6.1502  -26.9210  -46.8974 H         1 UNK         0.0600 
    205 H205       -5.4062  -24.1714  -48.0137 H         1 UNK         0.3000 
    206 H206       -7.8420  -22.8014  -47.1912 H         1 UNK         0.0600 
    207 H207       -7.6059  -23.7310  -49.4777 H         1 UNK         0.0600 
    208 H208       -7.7828  -21.9852  -49.5580 H         1 UNK         0.0600 
    209 H209       -6.1965  -22.7156  -49.7789 H         1 UNK         0.0600 
    210 H210       -8.1670  -20.5557  -47.1185 H         1 UNK         0.3000 
    211 H211       -6.1311  -18.8957  -46.0369 H         1 UNK         0.0600 
    212 H212       -8.8483  -18.1765  -47.2624 H         1 UNK         0.0600 
    213 H213       -7.8547  -17.1013  -46.2862 H         1 UNK         0.0600 
    214 H214       -8.5406  -18.5488  -45.5654 H         1 UNK         0.0600 
    215 H215       -4.6501  -17.6462  -46.9823 H         1 UNK         0.3000 
    216 H216       -3.1940  -16.8822  -48.4486 H         1 UNK         0.0600 
    217 H217       -4.9768  -15.1733  -48.8448 H         1 UNK         0.0600 
    218 H218       -5.6019  -16.1347  -50.1856 H         1 UNK         0.0600 
    219 H219       -3.9914  -15.4314  -50.2732 H         1 UNK         0.0600 
    220 H220       -3.9591  -19.6969  -48.6386 H         1 UNK         0.3000 
    221 H221       -3.6097  -21.5581  -49.7301 H         1 UNK         0.0600 
    222 H222       -1.6846  -21.7403  -51.2353 H         1 UNK         0.0600 
    223 H223       -1.6706  -19.9995  -51.5198 H         1 UNK         0.0600 
    224 H224       -1.2695  -20.6437  -49.9302 H         1 UNK         0.0600 
    225 H225       -5.7892  -19.8338  -50.5660 H         1 UNK         0.3000 
    226 H226       -7.4645  -19.6301  -51.9623 H         1 UNK         0.0600 
    227 H227       -7.4985  -22.1483  -51.9470 H         1 UNK         0.0600 
    228 H228       -8.0820  -21.4968  -53.4629 H         1 UNK         0.0600 
    229 H229       -6.4610  -22.1673  -53.3696 H         1 UNK         0.0600 
    230 H230       -4.6261  -18.6444  -52.7496 H         1 UNK         0.3000 
    231 H231       -3.4554  -17.6784  -54.3202 H         1 UNK         0.0600 
    232 H232       -4.5007  -16.4445  -56.1641 H         1 UNK         0.0600 
    233 H233       -5.4775  -16.2384  -54.7204 H         1 UNK         0.0600 
    234 H234       -6.0006  -17.3417  -55.9933 H         1 UNK         0.0600 
    235 H235       -4.2142  -20.6697  -54.4380 H         1 UNK         0.3000 
    236 H236       -3.4754  -21.3956  -57.2094 H         1 UNK         0.0600 
    237 H237       -5.2841  -22.6773  -56.0664 H         1 UNK         0.0600 
    238 H238       -3.8968  -23.7047  -56.3968 H         1 UNK         0.0600 
    239 H239       -4.1793  -23.1118  -54.7644 H         1 UNK         0.0600 
    240 H240       -2.2427  -21.3738  -53.8766 H         1 UNK         0.3000 
    241 H241       -0.2090  -21.3018  -53.0074 H         1 UNK         0.0600 
    242 H242       -1.1121  -24.0426  -54.2013 H         1 UNK         0.3800 
    243 H243        0.3654  -24.9631  -54.0792 H         1 UNK         0.3800 
    244 H244        0.8506  -20.6777  -55.7979 H         1 UNK         0.0800 
    245 H245        1.7002  -20.4145  -54.3048 H         1 UNK         0.0800 
    246 H246        0.9532  -16.7781  -53.8819 H         1 UNK         0.0800 
    247 H247        2.1497  -17.9506  -54.3576 H         1 UNK         0.0800 
@<TRIPOS>BOND
     1    1    2 1    
     2    1  127 1    
     3    1  128 1    
     4    1  129 1    
     5    2    3 2    
     6    2    4 am   BACKBONE|DICT|INTERRES
     7    4    5 1    
     8    4  130 1    
     9    5    6 1    
    10    5   65 1    
    11    5  131 1    
    12    6    7 1    
    13    6  132 1    
    14    6  133 1    
    15    7    8 1    
    16    8    9 1    
    17    8  134 1    
    18    8  135 1    
    19    9   10 ar   
    20    9   14 ar   
    21   10   11 ar   
    22   10  136 1    
    23   11   12 ar   
    24   11  126 1    
    25   12   13 ar   
    26   12  137 1    
    27   13   14 ar   
    28   13   15 1    
    29   14  138 1    
    30   15   16 1    
    31   15  139 1    
    32   15  140 1    
    33   16   17 1    
    34   17   18 1    
    35   17  141 1    
    36   17  142 1    
    37   18   19 1    
    38   18   67 1    
    39   18  143 1    
    40   19   20 am   BACKBONE|DICT|INTERRES
    41   19  144 1    
    42   20   21 2    
    43   20   22 1    
    44   22   23 1    
    45   22   24 1    
    46   22  145 1    
    47   23  146 1    
    48   23  147 1    
    49   23  148 1    
    50   24   25 am   BACKBONE|DICT|INTERRES
    51   24  149 1    
    52   25   26 2    
    53   25   27 1    
    54   27   28 1    
    55   27   29 1    
    56   27  150 1    
    57   28  151 1    
    58   28  152 1    
    59   28  153 1    
    60   29   30 am   BACKBONE|DICT|INTERRES
    61   29  154 1    
    62   30   31 2    
    63   30   32 1    
    64   32   33 1    
    65   32   34 1    
    66   32  155 1    
    67   33  156 1    
    68   33  157 1    
    69   33  158 1    
    70   34   35 am   BACKBONE|DICT|INTERRES
    71   34  159 1    
    72   35   36 2    
    73   35   37 1    
    74   37   38 1    
    75   37   39 1    
    76   37  160 1    
    77   38  161 1    
    78   38  162 1    
    79   38  163 1    
    80   39   40 am   BACKBONE|DICT|INTERRES
    81   39  164 1    
    82   40   41 2    
    83   40   42 1    
    84   42   43 1    
    85   42   44 1    
    86   42  165 1    
    87   43  166 1    
    88   43  167 1    
    89   43  168 1    
    90   44   45 am   BACKBONE|DICT|INTERRES
    91   44  169 1    
    92   45   46 2    
    93   45   47 1    
    94   47   48 1    
    95   47   49 1    
    96   47  170 1    
    97   48  171 1    
    98   48  172 1    
    99   48  173 1    
   100   49   50 am   BACKBONE|DICT|INTERRES
   101   49  174 1    
   102   50   51 2    
   103   50   52 1    
   104   52   53 1    
   105   52   54 1    
   106   52  175 1    
   107   53  176 1    
   108   53  177 1    
   109   53  178 1    
   110   54   55 am   BACKBONE|DICT|INTERRES
   111   54  179 1    
   112   55   56 2    
   113   55   57 1    
   114   57   58 1    
   115   57   59 1    
   116   57  180 1    
   117   58  181 1    
   118   58  182 1    
   119   58  183 1    
   120   59   60 am   BACKBONE|DICT|INTERRES
   121   59  184 1    
   122   60   61 2    
   123   60   62 1    
   124   62   63 1    
   125   62   64 1    
   126   62  185 1    
   127   63  186 1    
   128   63  187 1    
   129   63  188 1    
   130   64   65 am   BACKBONE|DICT|INTERRES
   131   64  189 1    
   132   65   66 2    
   133   67   68 2    
   134   67   69 am   BACKBONE|DICT|INTERRES
   135   69   70 1    
   136   69  190 1    
   137   70   71 1    
   138   70   72 1    
   139   70  191 1    
   140   71  192 1    
   141   71  193 1    
   142   71  194 1    
   143   72   73 2    
   144   72   74 am   BACKBONE|DICT|INTERRES
   145   74   75 1    
   146   74  195 1    
   147   75   76 1    
   148   75   77 1    
   149   75  196 1    
   150   76  197 1    
   151   76  198 1    
   152   76  199 1    
   153   77   78 2    
   154   77   79 am   BACKBONE|DICT|INTERRES
   155   79   80 1    
   156   79  200 1    
   157   80   81 1    
   158   80   82 1    
   159   80  201 1    
   160   81  202 1    
   161   81  203 1    
   162   81  204 1    
   163   82   83 2    
   164   82   84 am   BACKBONE|DICT|INTERRES
   165   84   85 1    
   166   84  205 1    
   167   85   86 1    
   168   85   87 1    
   169   85  206 1    
   170   86  207 1    
   171   86  208 1    
   172   86  209 1    
   173   87   88 2    
   174   87   89 am   BACKBONE|DICT|INTERRES
   175   89   90 1    
   176   89  210 1    
   177   90   91 1    
   178   90   92 1    
   179   90  211 1    
   180   91  212 1    
   181   91  213 1    
   182   91  214 1    
   183   92   93 2    
   184   92   94 am   BACKBONE|DICT|INTERRES
   185   94   95 1    
   186   94  215 1    
   187   95   96 1    
   188   95   97 1    
   189   95  216 1    
   190   96  217 1    
   191   96  218 1    
   192   96  219 1    
   193   97   98 2    
   194   97   99 am   BACKBONE|DICT|INTERRES
   195   99  100 1    
   196   99  220 1    
   197  100  101 1    
   198  100  102 1    
   199  100  221 1    
   200  101  222 1    
   201  101  223 1    
   202  101  224 1    
   203  102  103 2    
   204  102  104 am   BACKBONE|DICT|INTERRES
   205  104  105 1    
   206  104  225 1    
   207  105  106 1    
   208  105  107 1    
   209  105  226 1    
   210  106  227 1    
   211  106  228 1    
   212  106  229 1    
   213  107  108 2    
   214  107  109 am   BACKBONE|DICT|INTERRES
   215  109  110 1    
   216  109  230 1    
   217  110  111 1    
   218  110  112 1    
   219  110  231 1    
   220  111  232 1    
   221  111  233 1    
   222  111  234 1    
   223  112  113 2    
   224  112  114 am   BACKBONE|DICT|INTERRES
   225  114  115 1    
   226  114  235 1    
   227  115  116 1    
   228  115  117 1    
   229  115  236 1    
   230  116  237 1    
   231  116  238 1    
   232  116  239 1    
   233  117  118 2    
   234  117  119 am   BACKBONE|DICT|INTERRES
   235  119  120 1    
   236  119  240 1    
   237  120  121 1    
   238  120  124 1    
   239  120  241 1    
   240  121  122 am   BACKBONE|DICT|INTERRES
   241  121  123 2    
   242  122  242 1    
   243  122  243 1    
   244  124  125 1    
   245  124  244 1    
   246  124  245 1    
   247  125  126 1    
   248  126  246 1    
   249  126  247 1    
@<TRIPOS>SUBSTRUCTURE
     1 UNK         1 GROUP             0       ****    0 ROOT    
