@<TRIPOS>MOLECULE
3R540
247   249    1
SMALL
USER_CHARGES


@<TRIPOS>ATOM
      1 CA         -5.9707  -13.9348  -45.7058 C.3       0 UNK        -0.1800 
      2 C          -4.4517  -13.8858  -45.6328 C.2       0 UNK         0.5000 
      3 O          -3.8956  -12.9544  -45.0500 O.2       0 UNK        -0.5000 
      4 N          -3.7790  -14.8931  -46.2082 N.am      1 UNK        -0.5000 
      5 CA         -2.3139  -15.0086  -46.2867 C.3       1 UNK         0.1400 
      6 C6         -1.8636  -16.1961  -47.1765 C.3       23 UNK        -0.0398 
      7 S7         -2.5155  -16.0733  -48.8771 S.3       23 UNK        -0.2404 
      8 C8         -1.0541  -15.4965  -49.7965 C.3       23 UNK        -0.0205 
      9 C9         -0.3980  -16.6187  -50.5890 C.ar      23 UNK        -0.0193 
     10 C10        -0.5309  -16.6590  -51.9809 C.ar      23 UNK        -0.1150 
     11 C11         0.1021  -17.6543  -52.7309 C.ar      23 UNK        -0.0193 
     12 C12         0.8575  -18.6294  -52.0728 C.ar      23 UNK        -0.1150 
     13 C13         1.0026  -18.6000  -50.6810 C.ar      23 UNK        -0.0193 
     14 C14         0.3731  -17.5915  -49.9441 C.ar      23 UNK        -0.1150 
     15 C15         1.8857  -19.6272  -49.9871 C.3       23 UNK        -0.0205 
     16 S16         0.9316  -21.0457  -49.3672 S.3       23 UNK        -0.2404 
     17 C17         0.7119  -20.6024  -47.6176 C.3       23 UNK        -0.0398 
     18 CA         -0.0132  -21.7125  -46.8123 C.3       11 UNK         0.1400 
     19 N           0.4989  -21.8255  -45.4458 N.am      11 UNK        -0.5000 
     20 C           0.2377  -22.8377  -44.6059 C.2       10 UNK         0.5000 
     21 O          -0.3673  -23.8585  -44.9319 O.2       10 UNK        -0.5000 
     22 CA          0.6761  -22.6476  -43.1390 C.3       10 UNK         0.1400 
     23 CB          2.1029  -23.1675  -42.9107 C.3       10 UNK        -0.1800 
     24 N           0.5838  -21.2488  -42.7118 N.am      10 UNK        -0.5000 
     25 C          -0.5696  -20.5711  -42.6262 C.2       9 UNK         0.5000 
     26 O          -1.6743  -21.0893  -42.7865 O.2       9 UNK        -0.5000 
     27 CA         -0.4728  -19.0542  -42.3959 C.3       9 UNK         0.1400 
     28 CB         -0.3658  -18.7292  -40.8977 C.3       9 UNK        -0.1800 
     29 N           0.6429  -18.4497  -43.1297 N.am      9 UNK        -0.5000 
     30 C           0.6939  -18.3126  -44.4630 C.2       8 UNK         0.5000 
     31 O          -0.2454  -18.5942  -45.2030 O.2       8 UNK        -0.5000 
     32 CA          2.0252  -17.8559  -45.0922 C.3       8 UNK         0.1400 
     33 CB          2.0610  -16.3456  -45.3399 C.3       8 UNK        -0.1800 
     34 N           3.1764  -18.2358  -44.2803 N.am      8 UNK        -0.5000 
     35 C           3.6651  -19.4797  -44.2043 C.2       7 UNK         0.5000 
     36 O           3.2224  -20.4242  -44.8573 O.2       7 UNK        -0.5000 
     37 CA          4.8027  -19.7055  -43.1907 C.3       7 UNK         0.1400 
     38 CB          6.1650  -19.3999  -43.8302 C.3       7 UNK        -0.1800 
     39 N           4.6379  -18.8880  -41.9852 N.am      7 UNK        -0.5000 
     40 C           3.6526  -19.0576  -41.0917 C.2       6 UNK         0.5000 
     41 O           2.8288  -19.9695  -41.1604 O.2       6 UNK        -0.5000 
     42 CA          3.5328  -18.0001  -39.9757 C.3       6 UNK         0.1400 
     43 CB          4.4006  -18.3882  -38.7698 C.3       6 UNK        -0.1800 
     44 N           3.8944  -16.6499  -40.4231 N.am      6 UNK        -0.5000 
     45 C           3.2107  -15.9435  -41.3336 C.2       5 UNK         0.5000 
     46 O           2.1769  -16.3451  -41.8704 O.2       5 UNK        -0.5000 
     47 CA          3.8275  -14.6086  -41.7726 C.3       5 UNK         0.1400 
     48 CB          5.0559  -14.8797  -42.6691 C.3       5 UNK        -0.1800 
     49 N           2.8314  -13.8216  -42.5013 N.am      5 UNK        -0.5000 
     50 C           2.9844  -12.5512  -42.8968 C.2       4 UNK         0.5000 
     51 O           3.9642  -11.8609  -42.6120 O.2       4 UNK        -0.5000 
     52 CA          1.8689  -11.9427  -43.7647 C.3       4 UNK         0.1400 
     53 CB          1.9921  -12.4118  -45.2228 C.3       4 UNK        -0.1800 
     54 N           0.5257  -12.2354  -43.2651 N.am      4 UNK        -0.5000 
     55 C          -0.0507  -11.5736  -42.2495 C.2       3 UNK         0.5000 
     56 O           0.5217  -10.6966  -41.6007 O.2       3 UNK        -0.5000 
     57 CA         -1.5170  -11.9121  -41.9067 C.3       3 UNK         0.1400 
     58 CB         -2.4642  -10.8702  -42.5210 C.3       3 UNK        -0.1800 
     59 N          -1.9285  -13.2407  -42.3542 N.am      3 UNK        -0.5000 
     60 C          -1.4992  -14.3861  -41.8090 C.2       2 UNK         0.5000 
     61 O          -0.7808  -14.4344  -40.8105 O.2       2 UNK        -0.5000 
     62 CA         -1.9206  -15.6999  -42.4952 C.3       2 UNK         0.1400 
     63 CB         -3.0290  -16.3945  -41.6881 C.3       2 UNK        -0.1800 
     64 N          -2.3636  -15.5703  -43.8860 N.am      2 UNK        -0.5000 
     65 C          -1.6373  -15.0776  -44.9003 C.2       1 UNK         0.5000 
     66 O          -0.4984  -14.6351  -44.7621 O.2       1 UNK        -0.5000 
     67 C          -1.5454  -21.5240  -46.8160 C.2       11 UNK         0.5000 
     68 O          -2.2447  -22.2552  -47.5174 O.2       11 UNK        -0.5000 
     69 N          -2.0486  -20.5788  -46.0047 N.am      12 UNK        -0.5000 
     70 CA         -3.4712  -20.2608  -45.8256 C.3       12 UNK         0.1400 
     71 CB         -3.6360  -19.1135  -44.8146 C.3       12 UNK        -0.1800 
     72 C          -4.3157  -21.4701  -45.3862 C.2       12 UNK         0.5000 
     73 O          -5.4259  -21.6470  -45.8868 O.2       12 UNK        -0.5000 
     74 N          -3.7482  -22.3143  -44.5139 N.am      13 UNK        -0.5000 
     75 CA         -4.3263  -23.5847  -44.0660 C.3       13 UNK         0.1400 
     76 CB         -3.4511  -24.1627  -42.9437 C.3       13 UNK        -0.1800 
     77 C          -4.5199  -24.6213  -45.1953 C.2       13 UNK         0.5000 
     78 O          -5.3656  -25.5060  -45.0606 O.2       13 UNK        -0.5000 
     79 N          -3.7661  -24.4771  -46.2932 N.am      14 UNK        -0.5000 
     80 CA         -3.8787  -25.2593  -47.5244 C.3       14 UNK         0.1400 
     81 CB         -2.4660  -25.6909  -47.9585 C.3       14 UNK        -0.1800 
     82 C          -4.6022  -24.4653  -48.6349 C.2       14 UNK         0.5000 
     83 O          -4.4201  -24.7695  -49.8149 O.2       14 UNK        -0.5000 
     84 N          -5.3849  -23.4432  -48.2516 N.am      15 UNK        -0.5000 
     85 CA         -6.1343  -22.5222  -49.1142 C.3       15 UNK         0.1400 
     86 CB         -7.2551  -23.2660  -49.8712 C.3       15 UNK        -0.1800 
     87 C          -5.2097  -21.7128  -50.0449 C.2       15 UNK         0.5000 
     88 O          -5.4703  -21.6229  -51.2447 O.2       15 UNK        -0.5000 
     89 N          -4.1204  -21.1859  -49.4651 N.am      16 UNK        -0.5000 
     90 CA         -2.9935  -20.5075  -50.1199 C.3       16 UNK         0.1400 
     91 CB         -3.4420  -19.2065  -50.8132 C.3       16 UNK        -0.1800 
     92 C          -2.2189  -21.4584  -51.0537 C.2       16 UNK         0.5000 
     93 O          -1.7729  -21.0417  -52.1194 O.2       16 UNK        -0.5000 
     94 N          -2.1052  -22.7312  -50.6393 N.am      17 UNK        -0.5000 
     95 CA         -1.5808  -23.8685  -51.4056 C.3       17 UNK         0.1400 
     96 CB         -0.0495  -23.7706  -51.5572 C.3       17 UNK        -0.1800 
     97 C          -2.3199  -24.0443  -52.7496 C.2       17 UNK         0.5000 
     98 O          -1.6820  -24.1684  -53.7965 O.2       17 UNK        -0.5000 
     99 N          -3.6594  -24.0191  -52.6695 N.am      18 UNK        -0.5000 
    100 CA        -4.6277  -23.9468  -53.7656 C.3       18 UNK         0.1400 
    101 CB        -4.5730  -25.2083  -54.6519 C.3       18 UNK        -0.1800 
    102 C         -4.4689  -22.6406  -54.5706 C.2       18 UNK         0.5000 
    103 O         -3.7978  -22.6274  -55.6027 O.2       18 UNK        -0.5000 
    104 N         -5.0934  -21.5690  -54.0587 N.am      19 UNK        -0.5000 
    105 CA        -5.0655  -20.1813  -54.5407 C.3       19 UNK         0.1400 
    106 CB        -6.1590  -19.3815  -53.8122 C.3       19 UNK        -0.1800 
    107 C         -5.2295  -19.9838  -56.0601 C.2       19 UNK         0.5000 
    108 O         -4.5902  -19.0943  -56.6217 O.2       19 UNK        -0.5000 
    109 N         -6.0714  -20.8111  -56.6893 N.am      20 UNK        -0.5000 
    110 CA        -6.2919  -20.8666  -58.1304 C.3       20 UNK         0.1400 
    111 CB        -7.8085  -20.9525  -58.3829 C.3       20 UNK        -0.1800 
    112 C         -5.5513  -22.1029  -58.6863 C.2       20 UNK         0.5000 
    113 O         -6.1120  -23.1975  -58.6270 O.2       20 UNK        -0.5000 
    114 N         -4.3162  -22.0002  -59.1962 N.am      21 UNK        -0.5000 
    115 CA        -3.4247  -20.8438  -59.2469 C.3       21 UNK         0.1400 
    116 CB        -3.0739  -20.5463  -60.7140 C.3       21 UNK        -0.1800 
    117 C         -2.1680  -21.1868  -58.4348 C.2       21 UNK         0.5000 
    118 O         -1.4593  -22.1310  -58.7916 O.2       21 UNK        -0.5000 
    119 N         -1.9220  -20.4296  -57.3601 N.am      22 UNK        -0.5000 
    120 CA        -0.7800  -20.6235  -56.4494 C.3       22 UNK         0.1400 
    121 C          0.5891  -20.1036  -56.9792 C.2       22 UNK         0.5000 
    122 N          0.6435  -19.3753  -58.0879 N.am      22 UNK        -0.7600 
    123 O          1.6249  -20.3775  -56.3794 O.2       22 UNK        -0.5000 
    124 C124       -1.0879  -20.1127  -55.0191 C.3       23 UNK        -0.0398 
    125 S125       -1.5109  -18.3371  -54.9106 S.3       23 UNK        -0.2404 
    126 C126        0.0294  -17.6214  -54.2530 C.3       23 UNK        -0.0205 
    127 H127       -6.3231  -14.8167  -46.2414 H         1 UNK         0.0600 
    128 H128       -6.3495  -13.0511  -46.2190 H         1 UNK         0.0600 
    129 H129       -6.3937  -13.9547  -44.7014 H         1 UNK         0.0600 
    130 H130       -4.2945  -15.6153  -46.6909 H         1 UNK         0.3000 
    131 H131       -1.9512  -14.0910  -46.7550 H         1 UNK         0.0600 
    132 H132       -0.7760  -16.2661  -47.2093 H         1 UNK         0.0800 
    133 H133       -2.2043  -17.1436  -46.7624 H         1 UNK         0.0800 
    134 H134       -1.3718  -14.6989  -50.4698 H         1 UNK         0.0800 
    135 H135       -0.3256  -15.0409  -49.1247 H         1 UNK         0.0800 
    136 H136       -1.1110  -15.9009  -52.4881 H         1 UNK         0.1150 
    137 H137        1.3554  -19.3980  -52.6469 H         1 UNK         0.1150 
    138 H138        0.4931  -17.5561  -48.8711 H         1 UNK         0.1150 
    139 H139        2.6363  -19.9988  -50.6864 H         1 UNK         0.0800 
    140 H140        2.4432  -19.1579  -49.1752 H         1 UNK         0.0800 
    141 H141        0.2031  -19.6397  -47.5515 H         1 UNK         0.0800 
    142 H142        1.7123  -20.4449  -47.2127 H         1 UNK         0.0800 
    143 H143        0.1913  -22.6737  -47.2898 H         1 UNK         0.0600 
    144 H144        1.0586  -21.0569  -45.1017 H         1 UNK         0.3000 
    145 H145       -0.0010  -23.2336  -42.5138 H         1 UNK         0.0600 
    146 H146        2.4000  -23.0581  -41.8675 H         1 UNK         0.0600 
    147 H147        2.1744  -24.2266  -43.1610 H         1 UNK         0.0600 
    148 H148        2.8321  -22.6380  -43.5226 H         1 UNK         0.0600 
    149 H149        1.4503  -20.7700  -42.4914 H         1 UNK         0.3000 
    150 H150       -1.3947  -18.6140  -42.7752 H         1 UNK         0.0600 
    151 H151       -1.2814  -19.0133  -40.3779 H         1 UNK         0.0600 
    152 H152       -0.2099  -17.6645  -40.7247 H         1 UNK         0.0600 
    153 H153        0.4532  -19.2655  -40.4209 H         1 UNK         0.0600 
    154 H154        1.4184  -18.0996  -42.5798 H         1 UNK         0.3000 
    155 H155        2.1157  -18.3454  -46.0635 H         1 UNK         0.0600 
    156 H156        1.8825  -15.7835  -44.4247 H         1 UNK         0.0600 
    157 H157        1.3000  -16.0549  -46.0629 H         1 UNK         0.0600 
    158 H158        3.0229  -16.0309  -45.7447 H         1 UNK         0.0600 
    159 H159        3.5652  -17.5230  -43.6826 H         1 UNK         0.3000 
    160 H160        4.7868  -20.7580  -42.8993 H         1 UNK         0.0600 
    161 H161        6.2475  -18.3532  -44.1259 H         1 UNK         0.0600 
    162 H162        6.3212  -20.0068  -44.7231 H         1 UNK         0.0600 
    163 H163        6.9814  -19.6201  -43.1422 H         1 UNK         0.0600 
    164 H164        5.2870  -18.1266  -41.8536 H         1 UNK         0.3000 
    165 H165        2.4902  -17.9788  -39.6517 H         1 UNK         0.0600 
    166 H166        4.2614  -17.6910  -37.9433 H         1 UNK         0.0600 
    167 H167        4.1369  -19.3812  -38.4030 H         1 UNK         0.0600 
    168 H168        5.4614  -18.4025  -39.0230 H         1 UNK         0.0600 
    169 H169        4.7366  -16.2565  -40.0278 H         1 UNK         0.3000 
    170 H170        4.1303  -14.0580  -40.8799 H         1 UNK         0.0600 
    171 H171        5.7884  -15.5107  -42.1644 H         1 UNK         0.0600 
    172 H172        4.7727  -15.3810  -43.5955 H         1 UNK         0.0600 
    173 H173        5.5720  -13.9582  -42.9367 H         1 UNK         0.0600 
    174 H174        1.9797  -14.3235  -42.7206 H         1 UNK         0.3000 
    175 H175        2.0071  -10.8591  -43.7630 H         1 UNK         0.0600 
    176 H176        1.8689  -13.4899  -45.3143 H         1 UNK         0.0600 
    177 H177        1.2423  -11.9358  -45.8549 H         1 UNK         0.0600 
    178 H178        2.9711  -12.1594  -45.6320 H         1 UNK         0.0600 
    179 H179        0.0129  -12.9719  -43.7394 H         1 UNK         0.3000 
    180 H180       -1.6201  -11.8677  -40.8204 H         1 UNK         0.0600 
    181 H181       -2.4126  -10.8744  -43.6107 H         1 UNK         0.0600 
    182 H182       -2.2127   -9.8639  -42.1834 H         1 UNK         0.0600 
    183 H183       -3.4989  -11.0596  -42.2346 H         1 UNK         0.0600 
    184 H184       -2.5156  -13.2815  -43.1781 H         1 UNK         0.3000 
    185 H185       -1.0322  -16.3285  -42.5029 H         1 UNK         0.0600 
    186 H186       -2.7104  -16.5755  -40.6607 H         1 UNK         0.0600 
    187 H187       -3.9335  -15.7864  -41.6481 H         1 UNK         0.0600 
    188 H188       -3.2959  -17.3593  -42.1187 H         1 UNK         0.0600 
    189 H189       -3.3081  -15.8647  -44.0847 H         1 UNK         0.3000 
    190 H190       -1.3942  -19.9777  -45.5093 H         1 UNK         0.3000 
    191 H191       -3.8462  -19.9173  -46.7913 H         1 UNK         0.0600 
    192 H192       -2.9615  -18.2860  -45.0200 H         1 UNK         0.0600 
    193 H193       -4.6528  -18.7204  -44.8412 H         1 UNK         0.0600 
    194 H194       -3.4473  -19.4427  -43.7934 H         1 UNK         0.0600 
    195 H195       -2.8565  -22.0507  -44.1056 H         1 UNK         0.3000 
    196 H196       -5.3129  -23.3688  -43.6514 H         1 UNK         0.0600 
    197 H197       -3.8822  -25.0820  -42.5454 H         1 UNK         0.0600 
    198 H198       -3.3575  -23.4611  -42.1145 H         1 UNK         0.0600 
    199 H199       -2.4474  -24.3977  -43.2980 H         1 UNK         0.0600 
    200 H200       -3.1119  -23.7035  -46.3342 H         1 UNK         0.3000 
    201 H201       -4.4661  -26.1619  -47.3465 H         1 UNK         0.0600 
    202 H202       -1.9664  -26.2488  -47.1665 H         1 UNK         0.0600 
    203 H203       -1.8388  -24.8342  -48.2061 H         1 UNK         0.0600 
    204 H204       -2.5024  -26.3389  -48.8349 H         1 UNK         0.0600 
    205 H205       -5.4358  -23.2303  -47.2619 H         1 UNK         0.3000 
    206 H206       -6.6108  -21.7975  -48.4525 H         1 UNK         0.0600 
    207 H207       -7.8982  -23.8142  -49.1828 H         1 UNK         0.0600 
    208 H208       -7.8877  -22.5648  -50.4167 H         1 UNK         0.0600 
    209 H209       -6.8571  -23.9764  -50.5962 H         1 UNK         0.0600 
    210 H210       -3.9579  -21.4198  -48.4942 H         1 UNK         0.3000 
    211 H211       -2.2976  -20.2201  -49.3318 H         1 UNK         0.0600 
    212 H212       -4.0257  -19.4083  -51.7086 H         1 UNK         0.0600 
    213 H213       -2.5774  -18.6184  -51.1216 H         1 UNK         0.0600 
    214 H214       -4.0395  -18.5841  -50.1477 H         1 UNK         0.0600 
    215 H215       -2.4935  -22.9550  -49.7329 H         1 UNK         0.3000 
    216 H216       -1.7942  -24.7647  -50.8222 H         1 UNK         0.0600 
    217 H217        0.3482  -24.6342  -52.0911 H         1 UNK         0.0600 
    218 H218        0.4379  -23.7442  -50.5832 H         1 UNK         0.0600 
    219 H219        0.2481  -22.8776  -52.1079 H         1 UNK         0.0600 
    220 H220       -4.0576  -23.9447  -51.7394 H         1 UNK         0.3000 
    221 H221       -5.6138  -23.9248  -53.2986 H         1 UNK         0.0600 
    222 H222       -3.6188  -25.3099  -55.1693 H         1 UNK         0.0600 
    223 H223       -4.7316  -26.1107  -54.0618 H         1 UNK         0.0600 
    224 H224       -5.3512  -25.1760  -55.4152 H         1 UNK         0.0600 
    225 H225       -5.5096  -21.6810  -53.1370 H         1 UNK         0.3000 
    226 H226       -4.0974  -19.7691  -54.2556 H         1 UNK         0.0600 
    227 H227       -6.0501  -19.4333  -52.7302 H         1 UNK         0.0600 
    228 H228       -6.1214  -18.3270  -54.0892 H         1 UNK         0.0600 
    229 H229       -7.1553  -19.7504  -54.0590 H         1 UNK         0.0600 
    230 H230       -6.5078  -21.5433  -56.1481 H         1 UNK         0.3000 
    231 H231       -5.9559  -19.9562  -58.6249 H         1 UNK         0.0600 
    232 H232       -8.2608  -21.8111  -57.8848 H         1 UNK         0.0600 
    233 H233       -8.0210  -21.0403  -59.4491 H         1 UNK         0.0600 
    234 H234       -8.3157  -20.0569  -58.0236 H         1 UNK         0.0600 
    235 H235       -3.8665  -22.8582  -59.4820 H         1 UNK         0.3000 
    236 H236       -3.8686  -19.9427  -58.8365 H         1 UNK         0.0600 
    237 H237       -3.9645  -20.2810  -61.2840 H         1 UNK         0.0600 
    238 H238       -2.3795  -19.7084  -60.7867 H         1 UNK         0.0600 
    239 H239       -2.6082  -21.4029  -61.2033 H         1 UNK         0.0600 
    240 H240       -2.5713  -19.6934  -57.1076 H         1 UNK         0.3000 
    241 H241       -0.6429  -21.7024  -56.3501 H         1 UNK         0.0600 
    242 H242        1.5356  -19.0500  -58.4257 H         1 UNK         0.3800 
    243 H243       -0.1986  -19.1391  -58.5870 H         1 UNK         0.3800 
    244 H244       -1.9392  -20.6741  -54.6357 H         1 UNK         0.0800 
    245 H245       -0.2664  -20.3421  -54.3387 H         1 UNK         0.0800 
    246 H246        0.0948  -16.5853  -54.5883 H         1 UNK         0.0800 
    247 H247        0.8919  -18.1271  -54.6891 H         1 UNK         0.0800 
@<TRIPOS>BOND
     1    1    2 1    
     2    1  127 1    
     3    1  128 1    
     4    1  129 1    
     5    2    3 2    
     6    2    4 am   BACKBONE|DICT|INTERRES
     7    4    5 1    
     8    4  130 1    
     9    5    6 1    
    10    5   65 1    
    11    5  131 1    
    12    6    7 1    
    13    6  132 1    
    14    6  133 1    
    15    7    8 1    
    16    8    9 1    
    17    8  134 1    
    18    8  135 1    
    19    9   10 ar   
    20    9   14 ar   
    21   10   11 ar   
    22   10  136 1    
    23   11   12 ar   
    24   11  126 1    
    25   12   13 ar   
    26   12  137 1    
    27   13   14 ar   
    28   13   15 1    
    29   14  138 1    
    30   15   16 1    
    31   15  139 1    
    32   15  140 1    
    33   16   17 1    
    34   17   18 1    
    35   17  141 1    
    36   17  142 1    
    37   18   19 1    
    38   18   67 1    
    39   18  143 1    
    40   19   20 am   BACKBONE|DICT|INTERRES
    41   19  144 1    
    42   20   21 2    
    43   20   22 1    
    44   22   23 1    
    45   22   24 1    
    46   22  145 1    
    47   23  146 1    
    48   23  147 1    
    49   23  148 1    
    50   24   25 am   BACKBONE|DICT|INTERRES
    51   24  149 1    
    52   25   26 2    
    53   25   27 1    
    54   27   28 1    
    55   27   29 1    
    56   27  150 1    
    57   28  151 1    
    58   28  152 1    
    59   28  153 1    
    60   29   30 am   BACKBONE|DICT|INTERRES
    61   29  154 1    
    62   30   31 2    
    63   30   32 1    
    64   32   33 1    
    65   32   34 1    
    66   32  155 1    
    67   33  156 1    
    68   33  157 1    
    69   33  158 1    
    70   34   35 am   BACKBONE|DICT|INTERRES
    71   34  159 1    
    72   35   36 2    
    73   35   37 1    
    74   37   38 1    
    75   37   39 1    
    76   37  160 1    
    77   38  161 1    
    78   38  162 1    
    79   38  163 1    
    80   39   40 am   BACKBONE|DICT|INTERRES
    81   39  164 1    
    82   40   41 2    
    83   40   42 1    
    84   42   43 1    
    85   42   44 1    
    86   42  165 1    
    87   43  166 1    
    88   43  167 1    
    89   43  168 1    
    90   44   45 am   BACKBONE|DICT|INTERRES
    91   44  169 1    
    92   45   46 2    
    93   45   47 1    
    94   47   48 1    
    95   47   49 1    
    96   47  170 1    
    97   48  171 1    
    98   48  172 1    
    99   48  173 1    
   100   49   50 am   BACKBONE|DICT|INTERRES
   101   49  174 1    
   102   50   51 2    
   103   50   52 1    
   104   52   53 1    
   105   52   54 1    
   106   52  175 1    
   107   53  176 1    
   108   53  177 1    
   109   53  178 1    
   110   54   55 am   BACKBONE|DICT|INTERRES
   111   54  179 1    
   112   55   56 2    
   113   55   57 1    
   114   57   58 1    
   115   57   59 1    
   116   57  180 1    
   117   58  181 1    
   118   58  182 1    
   119   58  183 1    
   120   59   60 am   BACKBONE|DICT|INTERRES
   121   59  184 1    
   122   60   61 2    
   123   60   62 1    
   124   62   63 1    
   125   62   64 1    
   126   62  185 1    
   127   63  186 1    
   128   63  187 1    
   129   63  188 1    
   130   64   65 am   BACKBONE|DICT|INTERRES
   131   64  189 1    
   132   65   66 2    
   133   67   68 2    
   134   67   69 am   BACKBONE|DICT|INTERRES
   135   69   70 1    
   136   69  190 1    
   137   70   71 1    
   138   70   72 1    
   139   70  191 1    
   140   71  192 1    
   141   71  193 1    
   142   71  194 1    
   143   72   73 2    
   144   72   74 am   BACKBONE|DICT|INTERRES
   145   74   75 1    
   146   74  195 1    
   147   75   76 1    
   148   75   77 1    
   149   75  196 1    
   150   76  197 1    
   151   76  198 1    
   152   76  199 1    
   153   77   78 2    
   154   77   79 am   BACKBONE|DICT|INTERRES
   155   79   80 1    
   156   79  200 1    
   157   80   81 1    
   158   80   82 1    
   159   80  201 1    
   160   81  202 1    
   161   81  203 1    
   162   81  204 1    
   163   82   83 2    
   164   82   84 am   BACKBONE|DICT|INTERRES
   165   84   85 1    
   166   84  205 1    
   167   85   86 1    
   168   85   87 1    
   169   85  206 1    
   170   86  207 1    
   171   86  208 1    
   172   86  209 1    
   173   87   88 2    
   174   87   89 am   BACKBONE|DICT|INTERRES
   175   89   90 1    
   176   89  210 1    
   177   90   91 1    
   178   90   92 1    
   179   90  211 1    
   180   91  212 1    
   181   91  213 1    
   182   91  214 1    
   183   92   93 2    
   184   92   94 am   BACKBONE|DICT|INTERRES
   185   94   95 1    
   186   94  215 1    
   187   95   96 1    
   188   95   97 1    
   189   95  216 1    
   190   96  217 1    
   191   96  218 1    
   192   96  219 1    
   193   97   98 2    
   194   97   99 am   BACKBONE|DICT|INTERRES
   195   99  100 1    
   196   99  220 1    
   197  100  101 1    
   198  100  102 1    
   199  100  221 1    
   200  101  222 1    
   201  101  223 1    
   202  101  224 1    
   203  102  103 2    
   204  102  104 am   BACKBONE|DICT|INTERRES
   205  104  105 1    
   206  104  225 1    
   207  105  106 1    
   208  105  107 1    
   209  105  226 1    
   210  106  227 1    
   211  106  228 1    
   212  106  229 1    
   213  107  108 2    
   214  107  109 am   BACKBONE|DICT|INTERRES
   215  109  110 1    
   216  109  230 1    
   217  110  111 1    
   218  110  112 1    
   219  110  231 1    
   220  111  232 1    
   221  111  233 1    
   222  111  234 1    
   223  112  113 2    
   224  112  114 am   BACKBONE|DICT|INTERRES
   225  114  115 1    
   226  114  235 1    
   227  115  116 1    
   228  115  117 1    
   229  115  236 1    
   230  116  237 1    
   231  116  238 1    
   232  116  239 1    
   233  117  118 2    
   234  117  119 am   BACKBONE|DICT|INTERRES
   235  119  120 1    
   236  119  240 1    
   237  120  121 1    
   238  120  124 1    
   239  120  241 1    
   240  121  122 am   BACKBONE|DICT|INTERRES
   241  121  123 2    
   242  122  242 1    
   243  122  243 1    
   244  124  125 1    
   245  124  244 1    
   246  124  245 1    
   247  125  126 1    
   248  126  246 1    
   249  126  247 1    
@<TRIPOS>SUBSTRUCTURE
     1 UNK         1 GROUP             0       ****    0 ROOT    
