@<TRIPOS>MOLECULE
3R540
247   249    1
SMALL
USER_CHARGES


@<TRIPOS>ATOM
      1 CA         -0.9146  -12.3906  -45.5042 C.3       0 UNK        -0.1800 
      2 C           0.3400  -12.1735  -46.3368 C.2       0 UNK         0.5000 
      3 O           1.2576  -11.4824  -45.8934 O.2       0 UNK        -0.5000 
      4 N           0.3925  -12.7697  -47.5372 N.am      1 UNK        -0.5000 
      5 CA          1.4691  -12.5940  -48.5255 C.3       1 UNK         0.1400 
      6 C6          1.0611  -13.1234  -49.9274 C.3       23 UNK        -0.0398 
      7 S7          1.1813  -14.9312  -50.1792 S.3       23 UNK        -0.2404 
      8 C8         -0.4982  -15.5110  -49.7634 C.3       23 UNK        -0.0205 
      9 C9         -0.7103  -16.9957  -50.0571 C.ar      23 UNK        -0.0193 
     10 C10        -1.9196  -17.4305  -50.6099 C.ar      23 UNK        -0.1150 
     11 C11        -2.1371  -18.7866  -50.8734 C.ar      23 UNK        -0.0193 
     12 C12        -1.1410  -19.7146  -50.5655 C.ar      23 UNK        -0.1150 
     13 C13         0.0768  -19.3018  -50.0200 C.ar      23 UNK        -0.0193 
     14 C14         0.2819  -17.9403  -49.7689 C.ar      23 UNK        -0.1150 
     15 C15         1.1624  -20.3443  -49.7599 C.3       23 UNK        -0.0205 
     16 S16         2.2558  -20.0008  -48.3386 S.3       23 UNK        -0.2404 
     17 C17         1.0788  -19.7897  -46.9627 C.3       23 UNK        -0.0398 
     18 CA          0.4678  -21.1266  -46.4661 C.3       11 UNK         0.1400 
     19 N           0.5239  -21.2587  -45.0089 N.am      11 UNK        -0.5000 
     20 C           0.2191  -22.3705  -44.3261 C.2       10 UNK         0.5000 
     21 O          -0.0999  -23.4336  -44.8597 O.2       10 UNK        -0.5000 
     22 CA          0.2205  -22.2574  -42.7895 C.3       10 UNK         0.1400 
     23 CB          1.6403  -22.4101  -42.2244 C.3       10 UNK        -0.1800 
     24 N          -0.3639  -20.9978  -42.3233 N.am      10 UNK        -0.5000 
     25 C          -1.6508  -20.6604  -42.4938 C.2       9 UNK         0.5000 
     26 O          -2.4877  -21.4021  -43.0076 O.2       9 UNK        -0.5000 
     27 CA         -2.0628  -19.2399  -42.0690 C.3       9 UNK         0.1400 
     28 CB         -2.2805  -19.1659  -40.5505 C.3       9 UNK        -0.1800 
     29 N          -1.0943  -18.2237  -42.4834 N.am      9 UNK        -0.5000 
     30 C          -0.7842  -17.9452  -43.7578 C.2       8 UNK         0.5000 
     31 O          -1.3194  -18.4828  -44.7249 O.2       8 UNK        -0.5000 
     32 CA          0.3524  -16.9401  -44.0020 C.3       8 UNK         0.1400 
     33 CB         -0.1639  -15.4978  -43.9240 C.3       8 UNK        -0.1800 
     34 N           1.4713  -17.1150  -43.0784 N.am      8 UNK        -0.5000 
     35 C           2.2339  -18.2148  -43.0027 C.2       7 UNK         0.5000 
     36 O           2.0797  -19.2059  -43.7132 O.2       7 UNK        -0.5000 
     37 CA          3.3162  -18.2302  -41.9134 C.3       7 UNK         0.1400 
     38 CB          4.5320  -17.3908  -42.3318 C.3       7 UNK        -0.1800 
     39 N           2.7950  -17.7482  -40.6368 N.am      7 UNK        -0.5000 
     40 C           1.8873  -18.4026  -39.8986 C.2       6 UNK         0.5000 
     41 O           1.4238  -19.5046  -40.1960 O.2       6 UNK        -0.5000 
     42 CA          1.3868  -17.6777  -38.6368 C.3       6 UNK         0.1400 
     43 CB          2.3538  -17.8975  -37.4639 C.3       6 UNK        -0.1800 
     44 N           1.2014  -16.2408  -38.8529 N.am      6 UNK        -0.5000 
     45 C           0.2672  -15.7177  -39.6589 C.2       5 UNK         0.5000 
     46 O          -0.5352  -16.3911  -40.3038 O.2       5 UNK        -0.5000 
     47 CA          0.2516  -14.1862  -39.7970 C.3       5 UNK         0.1400 
     48 CB         -0.4824  -13.5420  -38.6113 C.3       5 UNK        -0.1800 
     49 N           1.5853  -13.5925  -39.9279 N.am      5 UNK        -0.5000 
     50 C           2.4233  -13.8303  -40.9442 C.2       4 UNK         0.5000 
     51 O           2.2133  -14.6612  -41.8311 O.2       4 UNK        -0.5000 
     52 CA          3.7074  -12.9980  -40.9951 C.3       4 UNK         0.1400 
     53 CB          4.9171  -13.7946  -40.4789 C.3       4 UNK        -0.1800 
     54 N           3.9053  -12.6099  -42.3851 N.am      4 UNK        -0.5000 
     55 C           4.5525  -11.5230  -42.8159 C.2       3 UNK         0.5000 
     56 O           5.1583  -10.7556  -42.0656 O.2       3 UNK        -0.5000 
     57 CA          4.4684  -11.2104  -44.3262 C.3       3 UNK         0.1400 
     58 CB          5.7557  -10.5603  -44.8762 C.3       3 UNK        -0.1800 
     59 N           4.0410  -12.3435  -45.1580 N.am      3 UNK        -0.5000 
     60 C           4.7249  -13.4664  -45.4349 C.2       2 UNK         0.5000 
     61 O           5.8406  -13.7173  -44.9791 O.2       2 UNK        -0.5000 
     62 CA          4.0521  -14.4990  -46.3673 C.3       2 UNK         0.1400 
     63 CB          3.6609  -15.7569  -45.5777 C.3       2 UNK        -0.1800 
     64 N           2.8591  -13.9892  -47.0448 N.am      2 UNK        -0.5000 
     65 C           2.8528  -13.1074  -48.0550 C.2       1 UNK         0.5000 
     66 O           3.8753  -12.6742  -48.5878 O.2       1 UNK        -0.5000 
     67 C          -0.9665  -21.3222  -46.9994 C.2       11 UNK         0.5000 
     68 O          -1.1630  -22.0852  -47.9422 O.2       11 UNK        -0.5000 
     69 N          -1.9487  -20.6726  -46.3610 N.am      12 UNK        -0.5000 
     70 CA         -3.3702  -20.7827  -46.6888 C.3       12 UNK         0.1400 
     71 CB         -4.1566  -19.7142  -45.9162 C.3       12 UNK        -0.1800 
     72 C          -3.9497  -22.1849  -46.4246 C.2       12 UNK         0.5000 
     73 O          -4.8347  -22.6157  -47.1631 O.2       12 UNK        -0.5000 
     74 N          -3.4322  -22.8808  -45.4013 N.am      13 UNK        -0.5000 
     75 CA         -3.7676  -24.2724  -45.0946 C.3       13 UNK         0.1400 
     76 CB         -3.2468  -24.6403  -43.6971 C.3       13 UNK        -0.1800 
     77 C          -3.2395  -25.2535  -46.1589 C.2       13 UNK         0.5000 
     78 O          -3.9463  -26.1996  -46.5091 O.2       13 UNK        -0.5000 
     79 N          -2.0275  -24.9993  -46.6759 N.am      14 UNK        -0.5000 
     80 CA         -1.4581  -25.7078  -47.8266 C.3       14 UNK         0.1400 
     81 CB          0.0452  -25.4037  -47.9238 C.3       14 UNK        -0.1800 
     82 C          -2.1807  -25.3478  -49.1412 C.2       14 UNK         0.5000 
     83 O          -2.3816  -26.2178  -49.9880 O.2       14 UNK        -0.5000 
     84 N          -2.5692  -24.0712  -49.2603 N.am      15 UNK        -0.5000 
     85 CA         -3.3916  -23.4381  -50.2942 C.3       15 UNK         0.1400 
     86 CB         -4.7596  -24.1375  -50.4239 C.3       15 UNK        -0.1800 
     87 C          -2.6974  -23.2565  -51.6569 C.2       15 UNK         0.5000 
     88 O          -3.3498  -22.8001  -52.5948 O.2       15 UNK        -0.5000 
     89 N          -1.3978  -23.5765  -51.7507 N.am      16 UNK        -0.5000 
     90 CA         -0.5457  -23.4837  -52.9423 C.3       16 UNK         0.1400 
     91 CB         -0.2314  -22.0057  -53.2673 C.3       16 UNK        -0.1800 
     92 C          -1.1295  -24.2742  -54.1342 C.2       16 UNK         0.5000 
     93 O          -1.0872  -25.5048  -54.1179 O.2       16 UNK        -0.5000 
     94 N          -1.6851  -23.5636  -55.1253 N.am      17 UNK        -0.5000 
     95 CA         -2.3588  -24.1216  -56.3021 C.3       17 UNK         0.1400 
     96 CB         -2.2240  -23.1253  -57.4662 C.3       17 UNK        -0.1800 
     97 C          -3.8397  -24.4852  -56.0471 C.2       17 UNK         0.5000 
     98 O          -4.5612  -24.7703  -57.0040 O.2       17 UNK        -0.5000 
     99 N          -4.2741  -24.4509  -54.7795 N.am      18 UNK        -0.5000 
    100 CA        -5.6347  -24.6657  -54.2898 C.3       18 UNK         0.1400 
    101 CB        -6.1547  -26.0805  -54.6322 C.3       18 UNK        -0.1800 
    102 C         -6.5440  -23.5083  -54.7346 C.2       18 UNK         0.5000 
    103 O         -6.1658  -22.3505  -54.5446 O.2       18 UNK        -0.5000 
    104 N         -7.7047  -23.8165  -55.3282 N.am      19 UNK        -0.5000 
    105 CA        -8.7122  -22.8520  -55.7833 C.3       19 UNK         0.1400 
    106 CB        -9.9098  -23.6189  -56.3636 C.3       19 UNK        -0.1800 
    107 C         -8.1957  -21.8124  -56.7998 C.2       19 UNK         0.5000 
    108 O         -8.7401  -20.7102  -56.8646 O.2       19 UNK        -0.5000 
    109 N         -7.1392  -22.1616  -57.5460 N.am      20 UNK        -0.5000 
    110 CA        -6.4597  -21.2774  -58.4922 C.3       20 UNK         0.1400 
    111 CB        -5.5767  -22.1288  -59.4170 C.3       20 UNK        -0.1800 
    112 C         -5.6286  -20.1626  -57.8215 C.2       20 UNK         0.5000 
    113 O         -5.3263  -19.1720  -58.4885 O.2       20 UNK        -0.5000 
    114 N         -5.2692  -20.3323  -56.5406 N.am      21 UNK        -0.5000 
    115 CA        -4.4848  -19.3706  -55.7645 C.3       21 UNK         0.1400 
    116 CB        -3.2021  -20.0492  -55.2521 C.3       21 UNK        -0.1800 
    117 C         -5.2986  -18.8039  -54.5925 C.2       21 UNK         0.5000 
    118 O         -5.3903  -17.5847  -54.4478 O.2       21 UNK        -0.5000 
    119 N         -5.8498  -19.6988  -53.7666 N.am      22 UNK        -0.5000 
    120 CA        -6.5602  -19.3954  -52.5135 C.3       22 UNK         0.1400 
    121 C         -8.1109  -19.4331  -52.6597 C.2       22 UNK         0.5000 
    122 N         -8.6698  -19.6134  -53.8499 N.am      22 UNK        -0.7600 
    123 O         -8.8288  -19.2672  -51.6774 O.2       22 UNK        -0.5000 
    124 C124       -6.0437  -20.3126  -51.3624 C.3       23 UNK        -0.0398 
    125 S125       -4.7479  -19.5454  -50.3252 S.3       23 UNK        -0.2404 
    126 C126       -3.4259  -19.2458  -51.5345 C.3       23 UNK        -0.0205 
    127 H127       -1.5153  -11.4813  -45.4930 H         1 UNK         0.0600 
    128 H128       -1.5276  -13.2007  -45.8994 H         1 UNK         0.0600 
    129 H129       -0.6488  -12.6329  -44.4754 H         1 UNK         0.0600 
    130 H130       -0.3911  -13.3285  -47.8403 H         1 UNK         0.3000 
    131 H131        1.5886  -11.5135  -48.6333 H         1 UNK         0.0600 
    132 H132        0.0552  -12.7867  -50.1816 H         1 UNK         0.0800 
    133 H133        1.7085  -12.6633  -50.6758 H         1 UNK         0.0800 
    134 H134       -1.2222  -14.9122  -50.3182 H         1 UNK         0.0800 
    135 H135       -0.6879  -15.3383  -48.7038 H         1 UNK         0.0800 
    136 H136       -2.6937  -16.7132  -50.8442 H         1 UNK         0.1150 
    137 H137       -1.3086  -20.7622  -50.7682 H         1 UNK         0.1150 
    138 H138        1.2219  -17.6114  -49.3504 H         1 UNK         0.1150 
    139 H139        0.7177  -21.3306  -49.6240 H         1 UNK         0.0800 
    140 H140        1.7827  -20.4154  -50.6539 H         1 UNK         0.0800 
    141 H141        0.3189  -19.0497  -47.2192 H         1 UNK         0.0800 
    142 H142        1.6575  -19.3176  -46.1715 H         1 UNK         0.0800 
    143 H143        1.0649  -21.9525  -46.8591 H         1 UNK         0.0600 
    144 H144        0.8384  -20.4440  -44.4891 H         1 UNK         0.3000 
    145 H145       -0.3884  -23.0744  -42.3970 H         1 UNK         0.0600 
    146 H146        1.6337  -22.3916  -41.1344 H         1 UNK         0.0600 
    147 H147        2.0821  -23.3586  -42.5320 H         1 UNK         0.0600 
    148 H148        2.3014  -21.6138  -42.5663 H         1 UNK         0.0600 
    149 H149        0.2619  -20.3404  -41.8725 H         1 UNK         0.3000 
    150 H150       -3.0120  -19.0115  -42.5580 H         1 UNK         0.0600 
    151 H151       -2.9990  -19.9174  -40.2211 H         1 UNK         0.0600 
    152 H152       -2.6720  -18.1919  -40.2566 H         1 UNK         0.0600 
    153 H153       -1.3536  -19.3329  -40.0013 H         1 UNK         0.0600 
    154 H154       -0.6511  -17.6890  -41.7418 H         1 UNK         0.3000 
    155 H155        0.7292  -17.1087  -45.0129 H         1 UNK         0.0600 
    156 H156       -0.5223  -15.2521  -42.9241 H         1 UNK         0.0600 
    157 H157       -0.9906  -15.3429  -44.6180 H         1 UNK         0.0600 
    158 H158        0.6196  -14.7856  -44.1819 H         1 UNK         0.0600 
    159 H159        1.6850  -16.3251  -42.4741 H         1 UNK         0.3000 
    160 H160        3.6456  -19.2628  -41.7786 H         1 UNK         0.0600 
    161 H161        5.3002  -17.3925  -41.5585 H         1 UNK         0.0600 
    162 H162        4.2597  -16.3549  -42.5345 H         1 UNK         0.0600 
    163 H163        4.9844  -17.7930  -43.2389 H         1 UNK         0.0600 
    164 H164        3.0863  -16.8288  -40.3418 H         1 UNK         0.3000 
    165 H165        0.4202  -18.1090  -38.3675 H         1 UNK         0.0600 
    166 H166        1.9681  -17.4523  -36.5466 H         1 UNK         0.0600 
    167 H167        2.4978  -18.9616  -37.2718 H         1 UNK         0.0600 
    168 H168        3.3349  -17.4637  -37.6614 H         1 UNK         0.0600 
    169 H169        1.8256  -15.6159  -38.3643 H         1 UNK         0.3000 
    170 H170       -0.3047  -13.9479  -40.7061 H         1 UNK         0.0600 
    171 H171       -1.4854  -13.9569  -38.5009 H         1 UNK         0.0600 
    172 H172        0.0459  -13.7057  -37.6712 H         1 UNK         0.0600 
    173 H173       -0.5918  -12.4666  -38.7524 H         1 UNK         0.0600 
    174 H174        1.8376  -12.9015  -39.2359 H         1 UNK         0.3000 
    175 H175        3.5733  -12.1032  -40.3835 H         1 UNK         0.0600 
    176 H176        5.1134  -14.6734  -41.0925 H         1 UNK         0.0600 
    177 H177        5.8192  -13.1826  -40.4794 H         1 UNK         0.0600 
    178 H178        4.7553  -14.1342  -39.4553 H         1 UNK         0.0600 
    179 H179        3.4079  -13.1848  -43.0525 H         1 UNK         0.3000 
    180 H180        3.6725  -10.4706  -44.4225 H         1 UNK         0.0600 
    181 H181        6.6279  -11.1983  -44.7322 H         1 UNK         0.0600 
    182 H182        5.9607   -9.6140  -44.3745 H         1 UNK         0.0600 
    183 H183        5.6660  -10.3476  -45.9415 H         1 UNK         0.0600 
    184 H184        3.1173  -12.2362  -45.5657 H         1 UNK         0.3000 
    185 H185        4.7831  -14.7833  -47.1269 H         1 UNK         0.0600 
    186 H186        3.1748  -16.4965  -46.2145 H         1 UNK         0.0600 
    187 H187        4.5415  -16.2320  -45.1451 H         1 UNK         0.0600 
    188 H188        2.9833  -15.5150  -44.7593 H         1 UNK         0.0600 
    189 H189        1.9680  -14.2871  -46.6778 H         1 UNK         0.3000 
    190 H190       -1.7057  -20.0153  -45.6222 H         1 UNK         0.3000 
    191 H191       -3.4784  -20.5789  -47.7558 H         1 UNK         0.0600 
    192 H192       -4.0586  -19.8452  -44.8380 H         1 UNK         0.0600 
    193 H193       -5.2188  -19.7580  -46.1601 H         1 UNK         0.0600 
    194 H194       -3.8068  -18.7122  -46.1654 H         1 UNK         0.0600 
    195 H195       -2.7672  -22.4237  -44.7870 H         1 UNK         0.3000 
    196 H196       -4.8562  -24.3578  -45.0780 H         1 UNK         0.0600 
    197 H197       -2.1613  -24.5693  -43.6364 H         1 UNK         0.0600 
    198 H198       -3.5228  -25.6626  -43.4358 H         1 UNK         0.0600 
    199 H199       -3.6680  -23.9849  -42.9346 H         1 UNK         0.0600 
    200 H200       -1.4855  -24.2327  -46.2931 H         1 UNK         0.3000 
    201 H201       -1.5769  -26.7808  -47.6622 H         1 UNK         0.0600 
    202 H202        0.2373  -24.3428  -48.0838 H         1 UNK         0.0600 
    203 H203        0.5002  -25.9485  -48.7518 H         1 UNK         0.0600 
    204 H204        0.5654  -25.7012  -47.0131 H         1 UNK         0.0600 
    205 H205       -2.2280  -23.4234  -48.5525 H         1 UNK         0.3000 
    206 H206       -3.5797  -22.4283  -49.9273 H         1 UNK         0.0600 
    207 H207       -5.2333  -24.2579  -49.4496 H         1 UNK         0.0600 
    208 H208       -5.4413  -23.5526  -51.0408 H         1 UNK         0.0600 
    209 H209       -4.6698  -25.1243  -50.8784 H         1 UNK         0.0600 
    210 H210       -0.9642  -23.9735  -50.9302 H         1 UNK         0.3000 
    211 H211        0.3976  -23.9701  -52.6897 H         1 UNK         0.0600 
    212 H212       -1.1317  -21.4097  -53.4177 H         1 UNK         0.0600 
    213 H213        0.3805  -21.9200  -54.1662 H         1 UNK         0.0600 
    214 H214        0.3338  -21.5458  -52.4578 H         1 UNK         0.0600 
    215 H215       -1.7112  -22.5593  -55.0293 H         1 UNK         0.3000 
    216 H216       -1.8497  -25.0428  -56.5921 H         1 UNK         0.0600 
    217 H217       -2.5514  -23.5767  -58.4034 H         1 UNK         0.0600 
    218 H218       -1.1892  -22.8122  -57.6061 H         1 UNK         0.0600 
    219 H219       -2.8296  -22.2337  -57.3062 H         1 UNK         0.0600 
    220 H220       -3.6413  -24.0696  -54.0839 H         1 UNK         0.3000 
    221 H221       -5.5768  -24.5972  -53.2044 H         1 UNK         0.0600 
    222 H222       -6.3048  -26.2244  -55.7024 H         1 UNK         0.0600 
    223 H223       -5.4526  -26.8426  -54.2937 H         1 UNK         0.0600 
    224 H224       -7.1040  -26.2805  -54.1340 H         1 UNK         0.0600 
    225 H225       -7.9261  -24.7919  -55.4652 H         1 UNK         0.3000 
    226 H226       -9.0537  -22.3019  -54.9044 H         1 UNK         0.0600 
    227 H227      -10.3501  -24.2851  -55.6213 H         1 UNK         0.0600 
    228 H228      -10.6941  -22.9332  -56.6874 H         1 UNK         0.0600 
    229 H229       -9.6217  -24.2197  -57.2272 H         1 UNK         0.0600 
    230 H230       -6.7411  -23.0818  -57.4180 H         1 UNK         0.3000 
    231 H231       -7.2186  -20.7888  -59.1070 H         1 UNK         0.0600 
    232 H232       -6.1716  -22.8544  -59.9718 H         1 UNK         0.0600 
    233 H233       -4.8203  -22.6764  -58.8557 H         1 UNK         0.0600 
    234 H234       -5.0583  -21.5074  -60.1484 H         1 UNK         0.0600 
    235 H235       -5.5945  -21.1552  -56.0445 H         1 UNK         0.3000 
    236 H236       -4.1835  -18.5229  -56.3832 H         1 UNK         0.0600 
    237 H237       -2.6511  -19.3918  -54.5784 H         1 UNK         0.0600 
    238 H238       -3.4203  -20.9702  -54.7099 H         1 UNK         0.0600 
    239 H239       -2.5329  -20.2908  -56.0766 H         1 UNK         0.0600 
    240 H240       -5.7875  -20.6893  -53.9955 H         1 UNK         0.3000 
    241 H241       -6.3552  -18.3607  -52.2335 H         1 UNK         0.0600 
    242 H242       -8.1045  -19.7179  -54.6778 H         1 UNK         0.3800 
    243 H243       -9.6742  -19.6130  -53.9281 H         1 UNK         0.3800 
    244 H244       -6.8439  -20.5936  -50.6758 H         1 UNK         0.0800 
    245 H245       -5.6662  -21.2572  -51.7569 H         1 UNK         0.0800 
    246 H246       -3.2510  -20.1502  -52.1181 H         1 UNK         0.0800 
    247 H247       -3.7505  -18.4790  -52.2365 H         1 UNK         0.0800 
@<TRIPOS>BOND
     1    1    2 1    
     2    1  127 1    
     3    1  128 1    
     4    1  129 1    
     5    2    3 2    
     6    2    4 am   BACKBONE|DICT|INTERRES
     7    4    5 1    
     8    4  130 1    
     9    5    6 1    
    10    5   65 1    
    11    5  131 1    
    12    6    7 1    
    13    6  132 1    
    14    6  133 1    
    15    7    8 1    
    16    8    9 1    
    17    8  134 1    
    18    8  135 1    
    19    9   10 ar   
    20    9   14 ar   
    21   10   11 ar   
    22   10  136 1    
    23   11   12 ar   
    24   11  126 1    
    25   12   13 ar   
    26   12  137 1    
    27   13   14 ar   
    28   13   15 1    
    29   14  138 1    
    30   15   16 1    
    31   15  139 1    
    32   15  140 1    
    33   16   17 1    
    34   17   18 1    
    35   17  141 1    
    36   17  142 1    
    37   18   19 1    
    38   18   67 1    
    39   18  143 1    
    40   19   20 am   BACKBONE|DICT|INTERRES
    41   19  144 1    
    42   20   21 2    
    43   20   22 1    
    44   22   23 1    
    45   22   24 1    
    46   22  145 1    
    47   23  146 1    
    48   23  147 1    
    49   23  148 1    
    50   24   25 am   BACKBONE|DICT|INTERRES
    51   24  149 1    
    52   25   26 2    
    53   25   27 1    
    54   27   28 1    
    55   27   29 1    
    56   27  150 1    
    57   28  151 1    
    58   28  152 1    
    59   28  153 1    
    60   29   30 am   BACKBONE|DICT|INTERRES
    61   29  154 1    
    62   30   31 2    
    63   30   32 1    
    64   32   33 1    
    65   32   34 1    
    66   32  155 1    
    67   33  156 1    
    68   33  157 1    
    69   33  158 1    
    70   34   35 am   BACKBONE|DICT|INTERRES
    71   34  159 1    
    72   35   36 2    
    73   35   37 1    
    74   37   38 1    
    75   37   39 1    
    76   37  160 1    
    77   38  161 1    
    78   38  162 1    
    79   38  163 1    
    80   39   40 am   BACKBONE|DICT|INTERRES
    81   39  164 1    
    82   40   41 2    
    83   40   42 1    
    84   42   43 1    
    85   42   44 1    
    86   42  165 1    
    87   43  166 1    
    88   43  167 1    
    89   43  168 1    
    90   44   45 am   BACKBONE|DICT|INTERRES
    91   44  169 1    
    92   45   46 2    
    93   45   47 1    
    94   47   48 1    
    95   47   49 1    
    96   47  170 1    
    97   48  171 1    
    98   48  172 1    
    99   48  173 1    
   100   49   50 am   BACKBONE|DICT|INTERRES
   101   49  174 1    
   102   50   51 2    
   103   50   52 1    
   104   52   53 1    
   105   52   54 1    
   106   52  175 1    
   107   53  176 1    
   108   53  177 1    
   109   53  178 1    
   110   54   55 am   BACKBONE|DICT|INTERRES
   111   54  179 1    
   112   55   56 2    
   113   55   57 1    
   114   57   58 1    
   115   57   59 1    
   116   57  180 1    
   117   58  181 1    
   118   58  182 1    
   119   58  183 1    
   120   59   60 am   BACKBONE|DICT|INTERRES
   121   59  184 1    
   122   60   61 2    
   123   60   62 1    
   124   62   63 1    
   125   62   64 1    
   126   62  185 1    
   127   63  186 1    
   128   63  187 1    
   129   63  188 1    
   130   64   65 am   BACKBONE|DICT|INTERRES
   131   64  189 1    
   132   65   66 2    
   133   67   68 2    
   134   67   69 am   BACKBONE|DICT|INTERRES
   135   69   70 1    
   136   69  190 1    
   137   70   71 1    
   138   70   72 1    
   139   70  191 1    
   140   71  192 1    
   141   71  193 1    
   142   71  194 1    
   143   72   73 2    
   144   72   74 am   BACKBONE|DICT|INTERRES
   145   74   75 1    
   146   74  195 1    
   147   75   76 1    
   148   75   77 1    
   149   75  196 1    
   150   76  197 1    
   151   76  198 1    
   152   76  199 1    
   153   77   78 2    
   154   77   79 am   BACKBONE|DICT|INTERRES
   155   79   80 1    
   156   79  200 1    
   157   80   81 1    
   158   80   82 1    
   159   80  201 1    
   160   81  202 1    
   161   81  203 1    
   162   81  204 1    
   163   82   83 2    
   164   82   84 am   BACKBONE|DICT|INTERRES
   165   84   85 1    
   166   84  205 1    
   167   85   86 1    
   168   85   87 1    
   169   85  206 1    
   170   86  207 1    
   171   86  208 1    
   172   86  209 1    
   173   87   88 2    
   174   87   89 am   BACKBONE|DICT|INTERRES
   175   89   90 1    
   176   89  210 1    
   177   90   91 1    
   178   90   92 1    
   179   90  211 1    
   180   91  212 1    
   181   91  213 1    
   182   91  214 1    
   183   92   93 2    
   184   92   94 am   BACKBONE|DICT|INTERRES
   185   94   95 1    
   186   94  215 1    
   187   95   96 1    
   188   95   97 1    
   189   95  216 1    
   190   96  217 1    
   191   96  218 1    
   192   96  219 1    
   193   97   98 2    
   194   97   99 am   BACKBONE|DICT|INTERRES
   195   99  100 1    
   196   99  220 1    
   197  100  101 1    
   198  100  102 1    
   199  100  221 1    
   200  101  222 1    
   201  101  223 1    
   202  101  224 1    
   203  102  103 2    
   204  102  104 am   BACKBONE|DICT|INTERRES
   205  104  105 1    
   206  104  225 1    
   207  105  106 1    
   208  105  107 1    
   209  105  226 1    
   210  106  227 1    
   211  106  228 1    
   212  106  229 1    
   213  107  108 2    
   214  107  109 am   BACKBONE|DICT|INTERRES
   215  109  110 1    
   216  109  230 1    
   217  110  111 1    
   218  110  112 1    
   219  110  231 1    
   220  111  232 1    
   221  111  233 1    
   222  111  234 1    
   223  112  113 2    
   224  112  114 am   BACKBONE|DICT|INTERRES
   225  114  115 1    
   226  114  235 1    
   227  115  116 1    
   228  115  117 1    
   229  115  236 1    
   230  116  237 1    
   231  116  238 1    
   232  116  239 1    
   233  117  118 2    
   234  117  119 am   BACKBONE|DICT|INTERRES
   235  119  120 1    
   236  119  240 1    
   237  120  121 1    
   238  120  124 1    
   239  120  241 1    
   240  121  122 am   BACKBONE|DICT|INTERRES
   241  121  123 2    
   242  122  242 1    
   243  122  243 1    
   244  124  125 1    
   245  124  244 1    
   246  124  245 1    
   247  125  126 1    
   248  126  246 1    
   249  126  247 1    
@<TRIPOS>SUBSTRUCTURE
     1 UNK         1 GROUP             0       ****    0 ROOT    
