@<TRIPOS>MOLECULE
3R540
247   249    1
SMALL
USER_CHARGES


@<TRIPOS>ATOM
      1 CA         -0.1380  -15.0967  -54.7078 C.3       0 UNK        -0.1800 
      2 C           0.6685  -14.1266  -53.8568 C.2       0 UNK         0.5000 
      3 O           0.3909  -12.9275  -53.8680 O.2       0 UNK        -0.5000 
      4 N           1.6732  -14.6371  -53.1330 N.am      1 UNK        -0.5000 
      5 CA          2.6128  -13.8415  -52.3300 C.3       1 UNK         0.1400 
      6 C6          3.8881  -14.6367  -51.9562 C.3       23 UNK        -0.0398 
      7 S7          4.6934  -15.3944  -53.4105 S.3       23 UNK        -0.2404 
      8 C8          5.0040  -17.0959  -52.8380 C.3       23 UNK        -0.0205 
      9 C9          3.7304  -17.8735  -52.5272 C.ar      23 UNK        -0.0193 
     10 C10         2.8633  -18.2573  -53.5557 C.ar      23 UNK        -0.1150 
     11 C11         1.7252  -19.0265  -53.2863 C.ar      23 UNK        -0.0193 
     12 C12         1.4701  -19.4139  -51.9651 C.ar      23 UNK        -0.1150 
     13 C13         2.3118  -19.0156  -50.9243 C.ar      23 UNK        -0.0193 
     14 C14         3.4406  -18.2450  -51.2109 C.ar      23 UNK        -0.1150 
     15 C15         2.0035  -19.4375  -49.4967 C.3       23 UNK        -0.0205 
     16 S16         0.6267  -18.4662  -48.8087 S.3       23 UNK        -0.2404 
     17 C17         0.5121  -19.0816  -47.0957 C.3       23 UNK        -0.0398 
     18 CA          0.2959  -20.6063  -46.9315 C.3       11 UNK         0.1400 
     19 N           0.3857  -21.0034  -45.5264 N.am      11 UNK        -0.5000 
     20 C           0.5058  -22.2649  -45.0927 C.2       10 UNK         0.5000 
     21 O           0.5729  -23.2376  -45.8429 O.2       10 UNK        -0.5000 
     22 CA          0.5087  -22.4774  -43.5671 C.3       10 UNK         0.1400 
     23 CB          1.8876  -22.1565  -42.9727 C.3       10 UNK        -0.1800 
     24 N          -0.5173  -21.6815  -42.8910 N.am      10 UNK        -0.5000 
     25 C          -1.8360  -21.8431  -43.0738 C.2       9 UNK         0.5000 
     26 O          -2.3236  -22.7203  -43.7871 O.2       9 UNK        -0.5000 
     27 CA         -2.7601  -20.8157  -42.3940 C.3       9 UNK         0.1400 
     28 CB         -2.9854  -21.1620  -40.9147 C.3       9 UNK        -0.1800 
     29 N          -2.2490  -19.4490  -42.5117 N.am      9 UNK        -0.5000 
     30 C          -2.1272  -18.7901  -43.6729 C.2       8 UNK         0.5000 
     31 O          -2.4737  -19.2449  -44.7604 O.2       8 UNK        -0.5000 
     32 CA         -1.4514  -17.4137  -43.6234 C.3       8 UNK         0.1400 
     33 CB         -2.4702  -16.3296  -43.2478 C.3       8 UNK        -0.1800 
     34 N          -0.3017  -17.4035  -42.7130 N.am      8 UNK        -0.5000 
     35 C           0.8319  -18.0856  -42.9469 C.2       7 UNK         0.5000 
     36 O           1.0375  -18.7114  -43.9842 O.2       7 UNK        -0.5000 
     37 CA          1.8943  -18.1362  -41.8342 C.3       7 UNK         0.1400 
     38 CB          2.9788  -17.0685  -42.0361 C.3       7 UNK        -0.1800 
     39 N           1.3117  -18.0216  -40.4996 N.am      7 UNK        -0.5000 
     40 C           0.5807  -18.9890  -39.9268 C.2       6 UNK         0.5000 
     41 O           0.3688  -20.0809  -40.4565 O.2       6 UNK        -0.5000 
     42 CA         -0.0578  -18.6710  -38.5609 C.3       6 UNK         0.1400 
     43 CB          0.8531  -19.1441  -37.4188 C.3       6 UNK        -0.1800 
     44 N          -0.3645  -17.2493  -38.3758 N.am      6 UNK        -0.5000 
     45 C          -1.2376  -16.5535  -39.1171 C.2       5 UNK         0.5000 
     46 O          -1.8915  -17.0586  -40.0310 O.2       5 UNK        -0.5000 
     47 CA         -1.4041  -15.0475  -38.8110 C.3       5 UNK         0.1400 
     48 CB         -0.4098  -14.5038  -37.7597 C.3       5 UNK        -0.1800 
     49 N          -1.3581  -14.2189  -40.0230 N.am      5 UNK        -0.5000 
     50 C          -0.3621  -14.1585  -40.9180 C.2       4 UNK         0.5000 
     51 O           0.6649  -14.8377  -40.8526 O.2       4 UNK        -0.5000 
     52 CA         -0.5390  -13.1529  -42.0670 C.3       4 UNK         0.1400 
     53 CB         -0.1779  -11.7318  -41.6044 C.3       4 UNK        -0.1800 
     54 N           0.3257  -13.5205  -43.1888 N.am      4 UNK        -0.5000 
     55 C          -0.0431  -13.5376  -44.4745 C.2       3 UNK         0.5000 
     56 O          -1.1733  -13.2298  -44.8657 O.2       3 UNK        -0.5000 
     57 CA          1.0226  -13.9652  -45.5006 C.3       3 UNK         0.1400 
     58 CB          1.5003  -15.4128  -45.2730 C.3       3 UNK        -0.1800 
     59 N           0.4532  -13.8242  -46.8377 N.am      3 UNK        -0.5000 
     60 C           1.1111  -13.8771  -47.9993 C.2       2 UNK         0.5000 
     61 O           2.3266  -14.0691  -48.0833 O.2       2 UNK        -0.5000 
     62 CA          0.2394  -13.7117  -49.2642 C.3       2 UNK         0.1400 
     63 CB         -0.4725  -12.3430  -49.3039 C.3       2 UNK        -0.1800 
     64 N           0.9655  -13.9645  -50.5153 N.am      2 UNK        -0.5000 
     65 C           1.9666  -13.2529  -51.0575 C.2       1 UNK         0.5000 
     66 O           2.3893  -12.1861  -50.6087 O.2       1 UNK        -0.5000 
     67 C          -1.0039  -21.1138  -47.5945 C.2       11 UNK         0.5000 
     68 O          -0.9587  -21.5623  -48.7385 O.2       11 UNK        -0.5000 
     69 N          -2.1251  -21.0912  -46.8604 N.am      12 UNK        -0.5000 
     70 CA         -3.4057  -21.6665  -47.2758 C.3       12 UNK         0.1400 
     71 CB         -4.4949  -21.2866  -46.2610 C.3       12 UNK        -0.1800 
     72 C          -3.3349  -23.1904  -47.4660 C.2       12 UNK         0.5000 
     73 O          -3.8464  -23.7013  -48.4625 O.2       12 UNK        -0.5000 
     74 N          -2.6583  -23.8827  -46.5385 N.am      13 UNK        -0.5000 
     75 CA         -2.3846  -25.3176  -46.6191 C.3       13 UNK         0.1400 
     76 CB         -1.8069  -25.8119  -45.2845 C.3       13 UNK        -0.1800 
     77 C          -1.4577  -25.6804  -47.7955 C.2       13 UNK         0.5000 
     78 O          -1.7104  -26.6762  -48.4735 O.2       13 UNK        -0.5000 
     79 N          -0.4307  -24.8532  -48.0402 N.am      14 UNK        -0.5000 
     80 CA          0.4949  -24.9802  -49.1690 C.3       14 UNK         0.1400 
     81 CB          1.6796  -24.0209  -48.9772 C.3       14 UNK        -0.1800 
     82 C          -0.1876  -24.7412  -50.5294 C.2       14 UNK         0.5000 
     83 O           0.0642  -25.4897  -51.4745 O.2       14 UNK        -0.5000 
     84 N          -1.0592  -23.7252  -50.5947 N.am      15 UNK        -0.5000 
     85 CA         -1.9016  -23.4144  -51.7518 C.3       15 UNK         0.1400 
     86 CB         -2.5198  -22.0213  -51.5553 C.3       15 UNK        -0.1800 
     87 C          -3.0101  -24.4590  -51.9933 C.2       15 UNK         0.5000 
     88 O          -3.4770  -24.5916  -53.1247 O.2       15 UNK        -0.5000 
     89 N          -3.4042  -25.1667  -50.9239 N.am      16 UNK        -0.5000 
     90 CA         -4.4948  -26.1405  -50.8286 C.3       16 UNK         0.1400 
     91 CB         -4.2162  -27.3762  -51.7093 C.3       16 UNK        -0.1800 
     92 C          -5.8712  -25.4943  -51.0888 C.2       16 UNK         0.5000 
     93 O          -6.7277  -26.0932  -51.7428 O.2       16 UNK        -0.5000 
     94 N          -6.0494  -24.2724  -50.5746 N.am      17 UNK        -0.5000 
     95 CA         -7.2248  -23.4260  -50.7546 C.3       17 UNK         0.1400 
     96 CB         -7.2792  -22.8905  -52.2044 C.3       17 UNK        -0.1800 
     97 C          -7.1879  -22.3228  -49.6817 C.2       17 UNK         0.5000 
     98 O          -6.8651  -22.6142  -48.5294 O.2       17 UNK        -0.5000 
     99 N          -7.5040  -21.0799  -50.0646 N.am      18 UNK        -0.5000 
    100 CA        -7.2689  -19.8788  -49.2630 C.3       18 UNK         0.1400 
    101 CB        -8.1838  -18.7561  -49.7781 C.3       18 UNK        -0.1800 
    102 C         -5.7864  -19.4590  -49.3286 C.2       18 UNK         0.5000 
    103 O         -5.0406  -19.9611  -50.1746 O.2       18 UNK        -0.5000 
    104 N         -5.3862  -18.5409  -48.4374 N.am      19 UNK        -0.5000 
    105 CA        -4.0248  -18.0117  -48.3100 C.3       19 UNK         0.1400 
    106 CB        -3.9803  -16.9713  -47.1793 C.3       19 UNK        -0.1800 
    107 C         -3.4856  -17.4353  -49.6336 C.2       19 UNK         0.5000 
    108 O         -3.9471  -16.3844  -50.0814 O.2       19 UNK        -0.5000 
    109 N         -2.5429  -18.1723  -50.2328 N.am      20 UNK        -0.5000 
    110 CA        -1.8692  -17.9112  -51.5054 C.3       20 UNK         0.1400 
    111 CB        -1.0878  -16.5847  -51.4702 C.3       20 UNK        -0.1800 
    112 C         -2.7604  -18.0391  -52.7554 C.2       20 UNK         0.5000 
    113 O         -2.3566  -17.5902  -53.8293 O.2       20 UNK        -0.5000 
    114 N         -3.9237  -18.6933  -52.6389 N.am      21 UNK        -0.5000 
    115 CA        -4.8274  -18.9762  -53.7562 C.3       21 UNK         0.1400 
    116 CB        -6.2671  -19.0763  -53.2255 C.3       21 UNK        -0.1800 
    117 C         -4.3793  -20.2336  -54.5313 C.2       21 UNK         0.5000 
    118 O         -5.1388  -21.1960  -54.6464 O.2       21 UNK        -0.5000 
    119 N         -3.1350  -20.2101  -55.0258 N.am      22 UNK        -0.5000 
    120 CA        -2.4816  -21.3178  -55.7453 C.3       22 UNK         0.1400 
    121 C         -3.0693  -21.6262  -57.1557 C.2       22 UNK         0.5000 
    122 N         -3.8819  -20.7590  -57.7475 N.am      22 UNK        -0.7600 
    123 O         -2.7801  -22.6749  -57.7252 O.2       22 UNK        -0.5000 
    124 C124       -0.9453  -21.1213  -55.8426 C.3       23 UNK        -0.0398 
    125 S125       -0.1155  -20.9674  -54.2230 S.3       23 UNK        -0.2404 
    126 C126        0.7844  -19.3918  -54.4357 C.3       23 UNK        -0.0205 
    127 H127        0.2563  -16.1113  -54.6514 H         1 UNK         0.0600 
    128 H128       -0.1200  -14.7854  -55.7521 H         1 UNK         0.0600 
    129 H129       -1.1758  -15.1147  -54.3749 H         1 UNK         0.0600 
    130 H130        1.8793  -15.6245  -53.1887 H         1 UNK         0.3000 
    131 H131        2.9262  -12.9949  -52.9451 H         1 UNK         0.0600 
    132 H132        4.6160  -13.9784  -51.4786 H         1 UNK         0.0800 
    133 H133        3.6539  -15.4063  -51.2196 H         1 UNK         0.0800 
    134 H134        5.6595  -17.0612  -51.9664 H         1 UNK         0.0800 
    135 H135        5.5599  -17.6275  -53.6116 H         1 UNK         0.0800 
    136 H136        3.0833  -17.9596  -54.5716 H         1 UNK         0.1150 
    137 H137        0.6111  -20.0247  -51.7307 H         1 UNK         0.1150 
    138 H138        4.1027  -17.9484  -50.4094 H         1 UNK         0.1150 
    139 H139        1.7460  -20.4967  -49.4998 H         1 UNK         0.0800 
    140 H140        2.8830  -19.3262  -48.8608 H         1 UNK         0.0800 
    141 H141       -0.2875  -18.5335  -46.5952 H         1 UNK         0.0800 
    142 H142        1.4344  -18.7877  -46.5928 H         1 UNK         0.0800 
    143 H143        1.1220  -21.1134  -47.4302 H         1 UNK         0.0600 
    144 H144        0.4028  -20.2464  -44.8479 H         1 UNK         0.3000 
    145 H145        0.2934  -23.5308  -43.3763 H         1 UNK         0.0600 
    146 H146        1.9008  -22.3167  -41.8943 H         1 UNK         0.0600 
    147 H147        2.6560  -22.7968  -43.4075 H         1 UNK         0.0600 
    148 H148        2.1782  -21.1236  -43.1621 H         1 UNK         0.0600 
    149 H149       -0.1980  -20.9679  -42.2449 H         1 UNK         0.3000 
    150 H150       -3.7273  -20.8547  -42.8995 H         1 UNK         0.0600 
    151 H151       -3.4127  -22.1601  -40.8109 H         1 UNK         0.0600 
    152 H152       -3.6778  -20.4617  -40.4471 H         1 UNK         0.0600 
    153 H153       -2.0563  -21.1442  -40.3455 H         1 UNK         0.0600 
    154 H154       -1.9366  -18.9971  -41.6631 H         1 UNK         0.3000 
    155 H155       -1.0933  -17.1913  -44.6290 H         1 UNK         0.0600 
    156 H156       -3.2735  -16.2859  -43.9842 H         1 UNK         0.0600 
    157 H157       -2.0102  -15.3462  -43.2212 H         1 UNK         0.0600 
    158 H158       -2.9328  -16.5134  -42.2793 H         1 UNK         0.0600 
    159 H159       -0.4229  -16.9439  -41.8198 H         1 UNK         0.3000 
    160 H160        2.3851  -19.1090  -41.9005 H         1 UNK         0.0600 
    161 H161        2.5770  -16.0584  -41.9837 H         1 UNK         0.0600 
    162 H162        3.4549  -17.1801  -43.0111 H         1 UNK         0.0600 
    163 H163        3.7612  -17.1560  -41.2824 H         1 UNK         0.0600 
    164 H164        1.4024  -17.1283  -40.0350 H         1 UNK         0.3000 
    165 H165       -0.9963  -19.2263  -38.5027 H         1 UNK         0.0600 
    166 H166        0.3761  -19.0031  -36.4488 H         1 UNK         0.0600 
    167 H167        1.0809  -20.2066  -37.5159 H         1 UNK         0.0600 
    168 H168        1.8011  -18.6046  -37.4098 H         1 UNK         0.0600 
    169 H169        0.1430  -16.7673  -37.6482 H         1 UNK         0.3000 
    170 H170       -2.4091  -14.9366  -38.4019 H         1 UNK         0.0600 
    171 H171       -0.5227  -15.0144  -36.8026 H         1 UNK         0.0600 
    172 H172        0.6271  -14.6133  -38.0801 H         1 UNK         0.0600 
    173 H173       -0.5841  -13.4440  -37.5733 H         1 UNK         0.0600 
    174 H174       -2.1752  -13.6457  -40.1789 H         1 UNK         0.3000 
    175 H175       -1.5880  -13.1694  -42.3692 H         1 UNK         0.0600 
    176 H176        0.8604  -11.6680  -41.2761 H         1 UNK         0.0600 
    177 H177       -0.3193  -11.0093  -42.4085 H         1 UNK         0.0600 
    178 H178       -0.8066  -11.4161  -40.7710 H         1 UNK         0.0600 
    179 H179        1.2425  -13.8524  -42.9213 H         1 UNK         0.3000 
    180 H180        1.8687  -13.2823  -45.4034 H         1 UNK         0.0600 
    181 H181        1.8305  -15.5667  -44.2474 H         1 UNK         0.0600 
    182 H182        2.3458  -15.6601  -45.9145 H         1 UNK         0.0600 
    183 H183        0.7112  -16.1325  -45.4833 H         1 UNK         0.0600 
    184 H184       -0.5400  -13.6228  -46.8221 H         1 UNK         0.3000 
    185 H185       -0.5316  -14.4813  -49.2092 H         1 UNK         0.0600 
    186 H186       -1.1711  -12.2364  -48.4735 H         1 UNK         0.0600 
    187 H187        0.2326  -11.5140  -49.2407 H         1 UNK         0.0600 
    188 H188       -1.0472  -12.2249  -50.2227 H         1 UNK         0.0600 
    189 H189        0.7235  -14.8254  -50.9825 H         1 UNK         0.3000 
    190 H190       -2.1102  -20.6405  -45.9489 H         1 UNK         0.3000 
    191 H191       -3.6681  -21.2350  -48.2419 H         1 UNK         0.0600 
    192 H192       -4.2726  -21.6713  -45.2665 H         1 UNK         0.0600 
    193 H193       -5.4639  -21.6885  -46.5540 H         1 UNK         0.0600 
    194 H194       -4.6043  -20.2057  -46.1815 H         1 UNK         0.0600 
    195 H195       -2.3052  -23.3938  -45.7222 H         1 UNK         0.3000 
    196 H196       -3.3369  -25.8268  -46.7812 H         1 UNK         0.0600 
    197 H197       -1.6336  -26.8884  -45.3099 H         1 UNK         0.0600 
    198 H198       -2.4924  -25.6114  -44.4609 H         1 UNK         0.0600 
    199 H199       -0.8567  -25.3325  -45.0507 H         1 UNK         0.0600 
    200 H200       -0.2522  -24.0961  -47.3868 H         1 UNK         0.3000 
    201 H201        0.8835  -26.0006  -49.1665 H         1 UNK         0.0600 
    202 H202        2.1965  -24.2141  -48.0371 H         1 UNK         0.0600 
    203 H203        1.3585  -22.9799  -48.9752 H         1 UNK         0.0600 
    204 H204        2.4084  -24.1366  -49.7803 H         1 UNK         0.0600 
    205 H205       -1.1469  -23.1031  -49.7945 H         1 UNK         0.3000 
    206 H206       -1.2688  -23.3896  -52.6410 H         1 UNK         0.0600 
    207 H207       -1.7500  -21.2545  -51.4727 H         1 UNK         0.0600 
    208 H208       -3.1561  -21.7554  -52.3982 H         1 UNK         0.0600 
    209 H209       -3.1357  -21.9774  -50.6564 H         1 UNK         0.0600 
    210 H210       -2.9888  -24.9129  -50.0361 H         1 UNK         0.3000 
    211 H211       -4.5080  -26.4744  -49.7901 H         1 UNK         0.0600 
    212 H212       -4.2507  -27.1352  -52.7719 H         1 UNK         0.0600 
    213 H213       -4.9545  -28.1580  -51.5279 H         1 UNK         0.0600 
    214 H214       -3.2354  -27.7995  -51.4920 H         1 UNK         0.0600 
    215 H215       -5.3289  -23.8894  -49.9683 H         1 UNK         0.3000 
    216 H216       -8.1185  -24.0232  -50.5645 H         1 UNK         0.0600 
    217 H217       -8.1626  -22.2750  -52.3767 H         1 UNK         0.0600 
    218 H218       -7.3233  -23.7037  -52.9285 H         1 UNK         0.0600 
    219 H219       -6.3965  -22.2950  -52.4399 H         1 UNK         0.0600 
    220 H220       -7.7285  -20.9272  -51.0360 H         1 UNK         0.3000 
    221 H221       -7.5215  -20.0868  -48.2210 H         1 UNK         0.0600 
    222 H222       -7.9682  -18.5011  -50.8154 H         1 UNK         0.0600 
    223 H223       -9.2329  -19.0464  -49.7176 H         1 UNK         0.0600 
    224 H224       -8.0673  -17.8472  -49.1868 H         1 UNK         0.0600 
    225 H225       -6.0682  -18.1564  -47.8005 H         1 UNK         0.3000 
    226 H226       -3.3793  -18.8371  -48.0087 H         1 UNK         0.0600 
    227 H227       -2.9726  -16.5714  -47.0574 H         1 UNK         0.0600 
    228 H228       -4.6472  -16.1311  -47.3763 H         1 UNK         0.0600 
    229 H229       -4.2678  -17.4145  -46.2255 H         1 UNK         0.0600 
    230 H230       -2.2748  -19.0404  -49.7907 H         1 UNK         0.3000 
    231 H231       -1.1423  -18.7129  -51.5982 H         1 UNK         0.0600 
    232 H232       -0.3691  -16.5502  -52.2868 H         1 UNK         0.0600 
    233 H233       -0.5249  -16.4826  -50.5452 H         1 UNK         0.0600 
    234 H234       -1.7457  -15.7201  -51.5643 H         1 UNK         0.0600 
    235 H235       -4.1836  -19.0853  -51.7380 H         1 UNK         0.3000 
    236 H236       -4.8026  -18.1413  -54.4596 H         1 UNK         0.0600 
    237 H237       -6.5635  -18.1522  -52.7298 H         1 UNK         0.0600 
    238 H238       -6.9741  -19.2512  -54.0372 H         1 UNK         0.0600 
    239 H239       -6.3755  -19.8921  -52.5128 H         1 UNK         0.0600 
    240 H240       -2.5786  -19.3777  -54.8690 H         1 UNK         0.3000 
    241 H241       -2.6550  -22.2187  -55.1528 H         1 UNK         0.0600 
    242 H242       -4.2573  -20.9720  -58.6585 H         1 UNK         0.3800 
    243 H243       -4.1296  -19.8954  -57.2927 H         1 UNK         0.3800 
    244 H244       -0.4856  -21.9696  -56.3530 H         1 UNK         0.0800 
    245 H245       -0.7214  -20.2465  -56.4553 H         1 UNK         0.0800 
    246 H246        0.0615  -18.5859  -54.5623 H         1 UNK         0.0800 
    247 H247        1.3547  -19.4495  -55.3642 H         1 UNK         0.0800 
@<TRIPOS>BOND
     1    1    2 1    
     2    1  127 1    
     3    1  128 1    
     4    1  129 1    
     5    2    3 2    
     6    2    4 am   BACKBONE|DICT|INTERRES
     7    4    5 1    
     8    4  130 1    
     9    5    6 1    
    10    5   65 1    
    11    5  131 1    
    12    6    7 1    
    13    6  132 1    
    14    6  133 1    
    15    7    8 1    
    16    8    9 1    
    17    8  134 1    
    18    8  135 1    
    19    9   10 ar   
    20    9   14 ar   
    21   10   11 ar   
    22   10  136 1    
    23   11   12 ar   
    24   11  126 1    
    25   12   13 ar   
    26   12  137 1    
    27   13   14 ar   
    28   13   15 1    
    29   14  138 1    
    30   15   16 1    
    31   15  139 1    
    32   15  140 1    
    33   16   17 1    
    34   17   18 1    
    35   17  141 1    
    36   17  142 1    
    37   18   19 1    
    38   18   67 1    
    39   18  143 1    
    40   19   20 am   BACKBONE|DICT|INTERRES
    41   19  144 1    
    42   20   21 2    
    43   20   22 1    
    44   22   23 1    
    45   22   24 1    
    46   22  145 1    
    47   23  146 1    
    48   23  147 1    
    49   23  148 1    
    50   24   25 am   BACKBONE|DICT|INTERRES
    51   24  149 1    
    52   25   26 2    
    53   25   27 1    
    54   27   28 1    
    55   27   29 1    
    56   27  150 1    
    57   28  151 1    
    58   28  152 1    
    59   28  153 1    
    60   29   30 am   BACKBONE|DICT|INTERRES
    61   29  154 1    
    62   30   31 2    
    63   30   32 1    
    64   32   33 1    
    65   32   34 1    
    66   32  155 1    
    67   33  156 1    
    68   33  157 1    
    69   33  158 1    
    70   34   35 am   BACKBONE|DICT|INTERRES
    71   34  159 1    
    72   35   36 2    
    73   35   37 1    
    74   37   38 1    
    75   37   39 1    
    76   37  160 1    
    77   38  161 1    
    78   38  162 1    
    79   38  163 1    
    80   39   40 am   BACKBONE|DICT|INTERRES
    81   39  164 1    
    82   40   41 2    
    83   40   42 1    
    84   42   43 1    
    85   42   44 1    
    86   42  165 1    
    87   43  166 1    
    88   43  167 1    
    89   43  168 1    
    90   44   45 am   BACKBONE|DICT|INTERRES
    91   44  169 1    
    92   45   46 2    
    93   45   47 1    
    94   47   48 1    
    95   47   49 1    
    96   47  170 1    
    97   48  171 1    
    98   48  172 1    
    99   48  173 1    
   100   49   50 am   BACKBONE|DICT|INTERRES
   101   49  174 1    
   102   50   51 2    
   103   50   52 1    
   104   52   53 1    
   105   52   54 1    
   106   52  175 1    
   107   53  176 1    
   108   53  177 1    
   109   53  178 1    
   110   54   55 am   BACKBONE|DICT|INTERRES
   111   54  179 1    
   112   55   56 2    
   113   55   57 1    
   114   57   58 1    
   115   57   59 1    
   116   57  180 1    
   117   58  181 1    
   118   58  182 1    
   119   58  183 1    
   120   59   60 am   BACKBONE|DICT|INTERRES
   121   59  184 1    
   122   60   61 2    
   123   60   62 1    
   124   62   63 1    
   125   62   64 1    
   126   62  185 1    
   127   63  186 1    
   128   63  187 1    
   129   63  188 1    
   130   64   65 am   BACKBONE|DICT|INTERRES
   131   64  189 1    
   132   65   66 2    
   133   67   68 2    
   134   67   69 am   BACKBONE|DICT|INTERRES
   135   69   70 1    
   136   69  190 1    
   137   70   71 1    
   138   70   72 1    
   139   70  191 1    
   140   71  192 1    
   141   71  193 1    
   142   71  194 1    
   143   72   73 2    
   144   72   74 am   BACKBONE|DICT|INTERRES
   145   74   75 1    
   146   74  195 1    
   147   75   76 1    
   148   75   77 1    
   149   75  196 1    
   150   76  197 1    
   151   76  198 1    
   152   76  199 1    
   153   77   78 2    
   154   77   79 am   BACKBONE|DICT|INTERRES
   155   79   80 1    
   156   79  200 1    
   157   80   81 1    
   158   80   82 1    
   159   80  201 1    
   160   81  202 1    
   161   81  203 1    
   162   81  204 1    
   163   82   83 2    
   164   82   84 am   BACKBONE|DICT|INTERRES
   165   84   85 1    
   166   84  205 1    
   167   85   86 1    
   168   85   87 1    
   169   85  206 1    
   170   86  207 1    
   171   86  208 1    
   172   86  209 1    
   173   87   88 2    
   174   87   89 am   BACKBONE|DICT|INTERRES
   175   89   90 1    
   176   89  210 1    
   177   90   91 1    
   178   90   92 1    
   179   90  211 1    
   180   91  212 1    
   181   91  213 1    
   182   91  214 1    
   183   92   93 2    
   184   92   94 am   BACKBONE|DICT|INTERRES
   185   94   95 1    
   186   94  215 1    
   187   95   96 1    
   188   95   97 1    
   189   95  216 1    
   190   96  217 1    
   191   96  218 1    
   192   96  219 1    
   193   97   98 2    
   194   97   99 am   BACKBONE|DICT|INTERRES
   195   99  100 1    
   196   99  220 1    
   197  100  101 1    
   198  100  102 1    
   199  100  221 1    
   200  101  222 1    
   201  101  223 1    
   202  101  224 1    
   203  102  103 2    
   204  102  104 am   BACKBONE|DICT|INTERRES
   205  104  105 1    
   206  104  225 1    
   207  105  106 1    
   208  105  107 1    
   209  105  226 1    
   210  106  227 1    
   211  106  228 1    
   212  106  229 1    
   213  107  108 2    
   214  107  109 am   BACKBONE|DICT|INTERRES
   215  109  110 1    
   216  109  230 1    
   217  110  111 1    
   218  110  112 1    
   219  110  231 1    
   220  111  232 1    
   221  111  233 1    
   222  111  234 1    
   223  112  113 2    
   224  112  114 am   BACKBONE|DICT|INTERRES
   225  114  115 1    
   226  114  235 1    
   227  115  116 1    
   228  115  117 1    
   229  115  236 1    
   230  116  237 1    
   231  116  238 1    
   232  116  239 1    
   233  117  118 2    
   234  117  119 am   BACKBONE|DICT|INTERRES
   235  119  120 1    
   236  119  240 1    
   237  120  121 1    
   238  120  124 1    
   239  120  241 1    
   240  121  122 am   BACKBONE|DICT|INTERRES
   241  121  123 2    
   242  122  242 1    
   243  122  243 1    
   244  124  125 1    
   245  124  244 1    
   246  124  245 1    
   247  125  126 1    
   248  126  246 1    
   249  126  247 1    
@<TRIPOS>SUBSTRUCTURE
     1 UNK         1 GROUP             0       ****    0 ROOT    
