@<TRIPOS>MOLECULE
3R540
247   249    1
SMALL
USER_CHARGES


@<TRIPOS>ATOM
      1 CA         -1.0786   -8.8789  -49.9290 C.3       0 UNK        -0.1800 
      2 C          -1.6344  -10.2744  -49.6807 C.2       0 UNK         0.5000 
      3 O          -2.4739  -10.7433  -50.4496 O.2       0 UNK        -0.5000 
      4 N          -1.1767  -10.9285  -48.6070 N.am      1 UNK        -0.5000 
      5 CA         -1.5491  -12.2971  -48.2356 C.3       1 UNK         0.1400 
      6 C6         -1.4358  -12.5254  -46.7038 C.3       23 UNK        -0.0398 
      7 S7         -2.5368  -11.4889  -45.6771 S.3       23 UNK        -0.2404 
      8 C8         -4.2266  -11.8542  -46.2782 C.3       23 UNK        -0.0205 
      9 C9         -4.4548  -13.3110  -46.6660 C.ar      23 UNK        -0.0193 
     10 C10        -4.8039  -13.6283  -47.9822 C.ar      23 UNK        -0.1150 
     11 C11        -4.9489  -14.9569  -48.3843 C.ar      23 UNK        -0.0193 
     12 C12        -4.7909  -15.9748  -47.4413 C.ar      23 UNK        -0.1150 
     13 C13        -4.4878  -15.6724  -46.1105 C.ar      23 UNK        -0.0193 
     14 C14        -4.3147  -14.3386  -45.7275 C.ar      23 UNK        -0.1150 
     15 C15        -4.3785  -16.7913  -45.0891 C.3       23 UNK        -0.0205 
     16 S16        -2.6880  -17.4531  -44.9818 S.3       23 UNK        -0.2404 
     17 C17        -3.0233  -19.0233  -44.1121 C.3       23 UNK        -0.0398 
     18 CA         -2.8869  -20.2300  -45.0693 C.3       11 UNK         0.1400 
     19 N          -1.4930  -20.4628  -45.4452 N.am      11 UNK        -0.5000 
     20 C          -1.1025  -21.1968  -46.4915 C.2       10 UNK         0.5000 
     21 O          -1.8758  -21.7674  -47.2559 O.2       10 UNK        -0.5000 
     22 CA          0.4112  -21.3438  -46.6906 C.3       10 UNK         0.1400 
     23 CB          0.9973  -20.0886  -47.3508 C.3       10 UNK        -0.1800 
     24 N           1.0816  -21.6378  -45.4231 N.am      10 UNK        -0.5000 
     25 C           1.0006  -22.8377  -44.8290 C.2       9 UNK         0.5000 
     26 O           0.3876  -23.7903  -45.3131 O.2       9 UNK        -0.5000 
     27 CA          1.6933  -23.0260  -43.4654 C.3       9 UNK         0.1400 
     28 CB          3.0955  -23.6209  -43.6613 C.3       9 UNK        -0.1800 
     29 N           1.7939  -21.8323  -42.6207 N.am      9 UNK        -0.5000 
     30 C           0.7729  -21.0686  -42.2107 C.2       8 UNK         0.5000 
     31 O          -0.3814  -21.2025  -42.6198 O.2       8 UNK        -0.5000 
     32 CA          1.0706  -19.9784  -41.1679 C.3       8 UNK         0.1400 
     33 CB          2.5687  -19.6822  -40.9518 C.3       8 UNK        -0.1800 
     34 N           0.3921  -18.7604  -41.5840 N.am      8 UNK        -0.5000 
     35 C          -0.2966  -17.9273  -40.7956 C.2       7 UNK         0.5000 
     36 O          -0.4357  -18.0980  -39.5832 O.2       7 UNK        -0.5000 
     37 CA         -0.9574  -16.7072  -41.4796 C.3       7 UNK         0.1400 
     38 CB         -0.9634  -15.4516  -40.5832 C.3       7 UNK        -0.1800 
     39 N          -0.4066  -16.4051  -42.8076 N.am      7 UNK        -0.5000 
     40 C           0.8494  -16.0407  -43.0999 C.2       6 UNK         0.5000 
     41 O           1.7259  -15.8131  -42.2633 O.2       6 UNK        -0.5000 
     42 CA          1.1862  -15.9427  -44.5961 C.3       6 UNK         0.1400 
     43 CB          1.3274  -14.4734  -45.0211 C.3       6 UNK        -0.1800 
     44 N           2.4119  -16.6705  -44.9254 N.am      6 UNK        -0.5000 
     45 C           2.5862  -17.9923  -44.7887 C.2       5 UNK         0.5000 
     46 O           1.7205  -18.7640  -44.3634 O.2       5 UNK        -0.5000 
     47 CA          3.9338  -18.5350  -45.2895 C.3       5 UNK         0.1400 
     48 CB          4.1473  -20.0295  -44.9605 C.3       5 UNK        -0.1800 
     49 N           4.0130  -18.2806  -46.7276 N.am      5 UNK        -0.5000 
     50 C           5.0724  -18.5000  -47.5194 C.2       4 UNK         0.5000 
     51 O           6.1365  -18.9845  -47.1330 O.2       4 UNK        -0.5000 
     52 CA          4.9348  -18.0707  -48.9958 C.3       4 UNK         0.1400 
     53 CB          4.3048  -19.1969  -49.8305 C.3       4 UNK        -0.1800 
     54 N           4.1413  -16.8530  -49.1652 N.am      4 UNK        -0.5000 
     55 C           4.4381  -15.6606  -48.6330 C.2       3 UNK         0.5000 
     56 O           5.5011  -15.4224  -48.0581 O.2       3 UNK        -0.5000 
     57 CA          3.3786  -14.5438  -48.7253 C.3       3 UNK         0.1400 
     58 CB          3.8842  -13.3957  -49.6135 C.3       3 UNK        -0.1800 
     59 N           2.0378  -14.9210  -49.1878 N.am      3 UNK        -0.5000 
     60 C           1.2102  -15.8543  -48.7009 C.2       2 UNK         0.5000 
     61 O           1.5371  -16.6910  -47.8590 O.2       2 UNK        -0.5000 
     62 CA         -0.2399  -15.7989  -49.2294 C.3       2 UNK         0.1400 
     63 CB         -1.0417  -17.0681  -48.8835 C.3       2 UNK        -0.1800 
     64 N          -0.9653  -14.6344  -48.7154 N.am      2 UNK        -0.5000 
     65 C          -0.7317  -13.3483  -49.0222 C.2       1 UNK         0.5000 
     66 O           0.0985  -12.9937  -49.8643 O.2       1 UNK        -0.5000 
     67 C          -3.5375  -21.4944  -44.4747 C.2       11 UNK         0.5000 
     68 O          -4.6912  -21.7834  -44.7921 O.2       11 UNK        -0.5000 
     69 N          -2.7938  -22.2137  -43.6256 N.am      12 UNK        -0.5000 
     70 CA         -3.2455  -23.4142  -42.9318 C.3       12 UNK         0.1400 
     71 CB         -2.4515  -23.5705  -41.6206 C.3       12 UNK        -0.1800 
     72 C          -3.1539  -24.6597  -43.8315 C.2       12 UNK         0.5000 
     73 O          -4.1610  -25.0678  -44.4098 O.2       12 UNK        -0.5000 
     74 N          -1.9595  -25.2624  -43.8999 N.am      13 UNK        -0.5000 
     75 CA         -1.7091  -26.5717  -44.5042 C.3       13 UNK         0.1400 
     76 CB         -0.2915  -27.0401  -44.1386 C.3       13 UNK        -0.1800 
     77 C          -1.9259  -26.6148  -46.0258 C.2       13 UNK         0.5000 
     78 O          -2.5335  -27.5659  -46.5195 O.2       13 UNK        -0.5000 
     79 N          -1.4361  -25.5931  -46.7410 N.am      14 UNK        -0.5000 
     80 CA         -1.5721  -25.4922  -48.1983 C.3       14 UNK         0.1400 
     81 CB         -0.4471  -24.6086  -48.7586 C.3       14 UNK        -0.1800 
     82 C          -2.9575  -24.9755  -48.6396 C.2       14 UNK         0.5000 
     83 O          -3.3107  -25.1324  -49.8077 O.2       14 UNK        -0.5000 
     84 N          -3.7133  -24.3791  -47.7053 N.am      15 UNK        -0.5000 
     85 CA         -5.0531  -23.8086  -47.8766 C.3       15 UNK         0.1400 
     86 CB         -6.0977  -24.9213  -48.1001 C.3       15 UNK        -0.1800 
     87 C          -5.1123  -22.6714  -48.9215 C.2       15 UNK         0.5000 
     88 O          -6.0856  -22.5583  -49.6706 O.2       15 UNK        -0.5000 
     89 N          -4.0663  -21.8330  -48.9218 N.am      16 UNK        -0.5000 
     90 CA         -3.8946  -20.5845  -49.6604 C.3       16 UNK         0.1400 
     91 CB         -4.7656  -19.4855  -49.0182 C.3       16 UNK        -0.1800 
     92 C          -4.1110  -20.7448  -51.1764 C.2       16 UNK         0.5000 
     93 O          -3.2431  -21.2858  -51.8653 O.2       16 UNK        -0.5000 
     94 N          -5.2632  -20.2725  -51.6691 N.am      17 UNK        -0.5000 
     95 CA         -5.6816  -20.3117  -53.0692 C.3       17 UNK         0.1400 
     96 CB         -7.0013  -19.5408  -53.2156 C.3       17 UNK        -0.1800 
     97 C          -5.8133  -21.7320  -53.6518 C.2       17 UNK         0.5000 
     98 O          -5.6858  -21.8852  -54.8660 O.2       17 UNK        -0.5000 
     99 N          -6.0097  -22.7473  -52.7964 N.am      18 UNK        -0.5000 
    100 CA        -6.0467  -24.1607  -53.1865 C.3       18 UNK         0.1400 
    101 CB        -6.4884  -25.0061  -51.9856 C.3       18 UNK        -0.1800 
    102 C         -4.6998  -24.6749  -53.7355 C.2       18 UNK         0.5000 
    103 O         -4.6941  -25.5267  -54.6247 O.2       18 UNK        -0.5000 
    104 N         -3.5919  -24.1245  -53.2217 N.am      19 UNK        -0.5000 
    105 CA        -2.2273  -24.3775  -53.6905 C.3       19 UNK         0.1400 
    106 CB        -1.3129  -24.5181  -52.4638 C.3       19 UNK        -0.1800 
    107 C         -1.7163  -23.2555  -54.6159 C.2       19 UNK         0.5000 
    108 O         -0.5654  -23.3109  -55.0504 O.2       19 UNK        -0.5000 
    109 N         -2.5616  -22.2442  -54.8689 N.am      20 UNK        -0.5000 
    110 CA        -2.2850  -20.9914  -55.5792 C.3       20 UNK         0.1400 
    111 CB        -1.9380  -21.2551  -57.0588 C.3       20 UNK        -0.1800 
    112 C         -1.2418  -20.0985  -54.8710 C.2       20 UNK         0.5000 
    113 O         -0.6635  -19.2152  -55.5062 O.2       20 UNK        -0.5000 
    114 N         -1.0416  -20.3032  -53.5595 N.am      21 UNK        -0.5000 
    115 CA        -0.0687  -19.5767  -52.7374 C.3       21 UNK         0.1400 
    116 CB         0.0948  -20.2932  -51.3880 C.3       21 UNK        -0.1800 
    117 C         -0.4426  -18.0978  -52.5284 C.2       21 UNK         0.5000 
    118 O          0.4453  -17.2729  -52.3148 O.2       21 UNK        -0.5000 
    119 N         -1.7443  -17.7971  -52.6201 N.am      22 UNK        -0.5000 
    120 CA        -2.3069  -16.4386  -52.6389 C.3       22 UNK         0.1400 
    121 C         -2.3722  -15.8053  -54.0640 C.2       22 UNK         0.5000 
    122 N         -1.8865  -16.4563  -55.1160 N.am      22 UNK        -0.7600 
    123 O         -2.8646  -14.6930  -54.2261 O.2       22 UNK        -0.5000 
    124 C124       -3.6730  -16.3935  -51.8979 C.3       23 UNK        -0.0398 
    125 S125       -3.8876  -14.8592  -50.9350 S.3       23 UNK        -0.2404 
    126 C126       -5.2784  -15.2793  -49.8347 C.3       23 UNK        -0.0205 
    127 H127       -0.3583   -8.5868  -49.1644 H         1 UNK         0.0600 
    128 H128       -1.8870   -8.1477  -49.9311 H         1 UNK         0.0600 
    129 H129       -0.5802   -8.8410  -50.8976 H         1 UNK         0.0600 
    130 H130       -0.4750  -10.4932  -48.0263 H         1 UNK         0.3000 
    131 H131       -2.5808  -12.4482  -48.5389 H         1 UNK         0.0600 
    132 H132       -0.4116  -12.3343  -46.3803 H         1 UNK         0.0800 
    133 H133       -1.6400  -13.5612  -46.4314 H         1 UNK         0.0800 
    134 H134       -4.4326  -11.1976  -47.1251 H         1 UNK         0.0800 
    135 H135       -4.9420  -11.5781  -45.5027 H         1 UNK         0.0800 
    136 H136       -4.9289  -12.8408  -48.7128 H         1 UNK         0.1150 
    137 H137       -4.9176  -17.0046  -47.7360 H         1 UNK         0.1150 
    138 H138       -4.0635  -14.0993  -44.7036 H         1 UNK         0.1150 
    139 H139       -5.0685  -17.5924  -45.3600 H         1 UNK         0.0800 
    140 H140       -4.6907  -16.4367  -44.1056 H         1 UNK         0.0800 
    141 H141       -2.3325  -19.1192  -43.2727 H         1 UNK         0.0800 
    142 H142       -4.0217  -18.9820  -43.6722 H         1 UNK         0.0800 
    143 H143       -3.4430  -19.9997  -45.9800 H         1 UNK         0.0600 
    144 H144       -0.7862  -20.0722  -44.8387 H         1 UNK         0.3000 
    145 H145        0.5909  -22.1776  -47.3698 H         1 UNK         0.0600 
    146 H146        0.5707  -19.9443  -48.3430 H         1 UNK         0.0600 
    147 H147        2.0755  -20.1741  -47.4739 H         1 UNK         0.0600 
    148 H148        0.7844  -19.1857  -46.7796 H         1 UNK         0.0600 
    149 H149        1.5393  -20.8698  -44.9472 H         1 UNK         0.3000 
    150 H150        1.0975  -23.7536  -42.9109 H         1 UNK         0.0600 
    151 H151        3.7597  -22.9256  -44.1754 H         1 UNK         0.0600 
    152 H152        3.0535  -24.5345  -44.2564 H         1 UNK         0.0600 
    153 H153        3.5528  -23.8797  -42.7063 H         1 UNK         0.0600 
    154 H154        2.7095  -21.6334  -42.2459 H         1 UNK         0.3000 
    155 H155        0.6491  -20.3369  -40.2270 H         1 UNK         0.0600 
    156 H156        2.7030  -18.9034  -40.2009 H         1 UNK         0.0600 
    157 H157        3.0490  -19.3365  -41.8672 H         1 UNK         0.0600 
    158 H158        3.1056  -20.5615  -40.5946 H         1 UNK         0.0600 
    159 H159        0.4587  -18.5579  -42.5742 H         1 UNK         0.3000 
    160 H160       -1.9974  -16.9904  -41.6475 H         1 UNK         0.0600 
    161 H161        0.0448  -15.1513  -40.2972 H         1 UNK         0.0600 
    162 H162       -1.5221  -15.6299  -39.6639 H         1 UNK         0.0600 
    163 H163       -1.4348  -14.6087  -41.0887 H         1 UNK         0.0600 
    164 H164       -1.0442  -16.5713  -43.5766 H         1 UNK         0.3000 
    165 H165        0.3740  -16.3887  -45.1748 H         1 UNK         0.0600 
    166 H166        1.4292  -14.3805  -46.1012 H         1 UNK         0.0600 
    167 H167        0.4481  -13.8997  -44.7270 H         1 UNK         0.0600 
    168 H168        2.1946  -14.0017  -44.5575 H         1 UNK         0.0600 
    169 H169        3.1748  -16.1174  -45.2843 H         1 UNK         0.3000 
    170 H170        4.7156  -17.9597  -44.7900 H         1 UNK         0.0600 
    171 H171        5.1921  -20.3150  -45.0770 H         1 UNK         0.0600 
    172 H172        3.5608  -20.6743  -45.6115 H         1 UNK         0.0600 
    173 H173        3.8789  -20.2551  -43.9291 H         1 UNK         0.0600 
    174 H174        3.1868  -17.8492  -47.1336 H         1 UNK         0.3000 
    175 H175        5.9376  -17.8746  -49.3809 H         1 UNK         0.0600 
    176 H176        4.8708  -20.1236  -49.7278 H         1 UNK         0.0600 
    177 H177        3.2790  -19.4020  -49.5221 H         1 UNK         0.0600 
    178 H178        4.2903  -18.9414  -50.8902 H         1 UNK         0.0600 
    179 H179        3.2335  -16.9582  -49.5939 H         1 UNK         0.3000 
    180 H180        3.2607  -14.1546  -47.7128 H         1 UNK         0.0600 
    181 H181        3.9874  -13.7110  -50.6525 H         1 UNK         0.0600 
    182 H182        4.8586  -13.0354  -49.2806 H         1 UNK         0.0600 
    183 H183        3.2015  -12.5459  -49.5871 H         1 UNK         0.0600 
    184 H184        1.6097  -14.2553  -49.8239 H         1 UNK         0.3000 
    185 H185       -0.1868  -15.7124  -50.3138 H         1 UNK         0.0600 
    186 H186       -0.5577  -17.9560  -49.2902 H         1 UNK         0.0600 
    187 H187       -1.1344  -17.2086  -47.8056 H         1 UNK         0.0600 
    188 H188       -2.0472  -17.0278  -49.3017 H         1 UNK         0.0600 
    189 H189       -1.6826  -14.8448  -48.0370 H         1 UNK         0.3000 
    190 H190       -1.8590  -21.8819  -43.3933 H         1 UNK         0.3000 
    191 H191       -4.2958  -23.2891  -42.6593 H         1 UNK         0.0600 
    192 H192       -2.6355  -22.7284  -40.9531 H         1 UNK         0.0600 
    193 H193       -2.7479  -24.4755  -41.0887 H         1 UNK         0.0600 
    194 H194       -1.3758  -23.6232  -41.7897 H         1 UNK         0.0600 
    195 H195       -1.1731  -24.8258  -43.4444 H         1 UNK         0.3000 
    196 H196       -2.4154  -27.2748  -44.0574 H         1 UNK         0.0600 
    197 H197       -0.0919  -28.0318  -44.5466 H         1 UNK         0.0600 
    198 H198       -0.1626  -27.1030  -43.0580 H         1 UNK         0.0600 
    199 H199        0.4721  -26.3669  -44.5291 H         1 UNK         0.0600 
    200 H200       -0.9095  -24.8645  -46.2644 H         1 UNK         0.3000 
    201 H201       -1.4439  -26.4900  -48.6236 H         1 UNK         0.0600 
    202 H202       -0.3067  -24.7966  -49.8220 H         1 UNK         0.0600 
    203 H203        0.5064  -24.8064  -48.2683 H         1 UNK         0.0600 
    204 H204       -0.6728  -23.5501  -48.6514 H         1 UNK         0.0600 
    205 H205       -3.3245  -24.3048  -46.7758 H         1 UNK         0.3000 
    206 H206       -5.2970  -23.3351  -46.9253 H         1 UNK         0.0600 
    207 H207       -6.1136  -25.6105  -47.2557 H         1 UNK         0.0600 
    208 H208       -7.1026  -24.5089  -48.1975 H         1 UNK         0.0600 
    209 H209       -5.8916  -25.5048  -48.9956 H         1 UNK         0.0600 
    210 H210       -3.2985  -22.0376  -48.2829 H         1 UNK         0.3000 
    211 H211       -2.8524  -20.2915  -49.5303 H         1 UNK         0.0600 
    212 H212       -5.8261  -19.7398  -49.0203 H         1 UNK         0.0600 
    213 H213       -4.6465  -18.5361  -49.5369 H         1 UNK         0.0600 
    214 H214       -4.4727  -19.3216  -47.9821 H         1 UNK         0.0600 
    215 H215       -5.9328  -19.8929  -51.0158 H         1 UNK         0.3000 
    216 H216       -4.9187  -19.7930  -53.6530 H         1 UNK         0.0600 
    217 H217       -7.3305  -19.5217  -54.2554 H         1 UNK         0.0600 
    218 H218       -7.7991  -19.9953  -52.6267 H         1 UNK         0.0600 
    219 H219       -6.8920  -18.5053  -52.8923 H         1 UNK         0.0600 
    220 H220       -6.0901  -22.5467  -51.8047 H         1 UNK         0.3000 
    221 H221       -6.7934  -24.2708  -53.9757 H         1 UNK         0.0600 
    222 H222       -5.7484  -24.9623  -51.1875 H         1 UNK         0.0600 
    223 H223       -7.4413  -24.6627  -51.5827 H         1 UNK         0.0600 
    224 H224       -6.6074  -26.0533  -52.2658 H         1 UNK         0.0600 
    225 H225       -3.6870  -23.4284  -52.4921 H         1 UNK         0.3000 
    226 H226       -2.1838  -25.3098  -54.2569 H         1 UNK         0.0600 
    227 H227       -0.2741  -24.6781  -52.7549 H         1 UNK         0.0600 
    228 H228       -1.3471  -23.6286  -51.8330 H         1 UNK         0.0600 
    229 H229       -1.6093  -25.3735  -51.8576 H         1 UNK         0.0600 
    230 H230       -3.4964  -22.3253  -54.4924 H         1 UNK         0.3000 
    231 H231       -3.2181  -20.4272  -55.5613 H         1 UNK         0.0600 
    232 H232       -0.9692  -21.7426  -57.1692 H         1 UNK         0.0600 
    233 H233       -1.8985  -20.3229  -57.6234 H         1 UNK         0.0600 
    234 H234       -2.6889  -21.8873  -57.5327 H         1 UNK         0.0600 
    235 H235       -1.6164  -20.9891  -53.0818 H         1 UNK         0.3000 
    236 H236        0.8930  -19.6022  -53.2542 H         1 UNK         0.0600 
    237 H237       -0.8289  -20.2846  -50.8103 H         1 UNK         0.0600 
    238 H238        0.3937  -21.3326  -51.5256 H         1 UNK         0.0600 
    239 H239        0.8651  -19.8111  -50.7849 H         1 UNK         0.0600 
    240 H240       -2.3845  -18.5498  -52.8222 H         1 UNK         0.3000 
    241 H241       -1.6141  -15.7991  -52.0917 H         1 UNK         0.0600 
    242 H242       -1.4384  -17.3601  -55.0300 H         1 UNK         0.3800 
    243 H243       -1.9380  -16.0190  -56.0225 H         1 UNK         0.3800 
    244 H244       -3.7369  -17.2214  -51.1930 H         1 UNK         0.0800 
    245 H245       -4.5131  -16.5197  -52.5833 H         1 UNK         0.0800 
    246 H246       -6.1548  -14.7063  -50.1404 H         1 UNK         0.0800 
    247 H247       -5.5522  -16.3290  -49.9427 H         1 UNK         0.0800 
@<TRIPOS>BOND
     1    1    2 1    
     2    1  127 1    
     3    1  128 1    
     4    1  129 1    
     5    2    3 2    
     6    2    4 am   BACKBONE|DICT|INTERRES
     7    4    5 1    
     8    4  130 1    
     9    5    6 1    
    10    5   65 1    
    11    5  131 1    
    12    6    7 1    
    13    6  132 1    
    14    6  133 1    
    15    7    8 1    
    16    8    9 1    
    17    8  134 1    
    18    8  135 1    
    19    9   10 ar   
    20    9   14 ar   
    21   10   11 ar   
    22   10  136 1    
    23   11   12 ar   
    24   11  126 1    
    25   12   13 ar   
    26   12  137 1    
    27   13   14 ar   
    28   13   15 1    
    29   14  138 1    
    30   15   16 1    
    31   15  139 1    
    32   15  140 1    
    33   16   17 1    
    34   17   18 1    
    35   17  141 1    
    36   17  142 1    
    37   18   19 1    
    38   18   67 1    
    39   18  143 1    
    40   19   20 am   BACKBONE|DICT|INTERRES
    41   19  144 1    
    42   20   21 2    
    43   20   22 1    
    44   22   23 1    
    45   22   24 1    
    46   22  145 1    
    47   23  146 1    
    48   23  147 1    
    49   23  148 1    
    50   24   25 am   BACKBONE|DICT|INTERRES
    51   24  149 1    
    52   25   26 2    
    53   25   27 1    
    54   27   28 1    
    55   27   29 1    
    56   27  150 1    
    57   28  151 1    
    58   28  152 1    
    59   28  153 1    
    60   29   30 am   BACKBONE|DICT|INTERRES
    61   29  154 1    
    62   30   31 2    
    63   30   32 1    
    64   32   33 1    
    65   32   34 1    
    66   32  155 1    
    67   33  156 1    
    68   33  157 1    
    69   33  158 1    
    70   34   35 am   BACKBONE|DICT|INTERRES
    71   34  159 1    
    72   35   36 2    
    73   35   37 1    
    74   37   38 1    
    75   37   39 1    
    76   37  160 1    
    77   38  161 1    
    78   38  162 1    
    79   38  163 1    
    80   39   40 am   BACKBONE|DICT|INTERRES
    81   39  164 1    
    82   40   41 2    
    83   40   42 1    
    84   42   43 1    
    85   42   44 1    
    86   42  165 1    
    87   43  166 1    
    88   43  167 1    
    89   43  168 1    
    90   44   45 am   BACKBONE|DICT|INTERRES
    91   44  169 1    
    92   45   46 2    
    93   45   47 1    
    94   47   48 1    
    95   47   49 1    
    96   47  170 1    
    97   48  171 1    
    98   48  172 1    
    99   48  173 1    
   100   49   50 am   BACKBONE|DICT|INTERRES
   101   49  174 1    
   102   50   51 2    
   103   50   52 1    
   104   52   53 1    
   105   52   54 1    
   106   52  175 1    
   107   53  176 1    
   108   53  177 1    
   109   53  178 1    
   110   54   55 am   BACKBONE|DICT|INTERRES
   111   54  179 1    
   112   55   56 2    
   113   55   57 1    
   114   57   58 1    
   115   57   59 1    
   116   57  180 1    
   117   58  181 1    
   118   58  182 1    
   119   58  183 1    
   120   59   60 am   BACKBONE|DICT|INTERRES
   121   59  184 1    
   122   60   61 2    
   123   60   62 1    
   124   62   63 1    
   125   62   64 1    
   126   62  185 1    
   127   63  186 1    
   128   63  187 1    
   129   63  188 1    
   130   64   65 am   BACKBONE|DICT|INTERRES
   131   64  189 1    
   132   65   66 2    
   133   67   68 2    
   134   67   69 am   BACKBONE|DICT|INTERRES
   135   69   70 1    
   136   69  190 1    
   137   70   71 1    
   138   70   72 1    
   139   70  191 1    
   140   71  192 1    
   141   71  193 1    
   142   71  194 1    
   143   72   73 2    
   144   72   74 am   BACKBONE|DICT|INTERRES
   145   74   75 1    
   146   74  195 1    
   147   75   76 1    
   148   75   77 1    
   149   75  196 1    
   150   76  197 1    
   151   76  198 1    
   152   76  199 1    
   153   77   78 2    
   154   77   79 am   BACKBONE|DICT|INTERRES
   155   79   80 1    
   156   79  200 1    
   157   80   81 1    
   158   80   82 1    
   159   80  201 1    
   160   81  202 1    
   161   81  203 1    
   162   81  204 1    
   163   82   83 2    
   164   82   84 am   BACKBONE|DICT|INTERRES
   165   84   85 1    
   166   84  205 1    
   167   85   86 1    
   168   85   87 1    
   169   85  206 1    
   170   86  207 1    
   171   86  208 1    
   172   86  209 1    
   173   87   88 2    
   174   87   89 am   BACKBONE|DICT|INTERRES
   175   89   90 1    
   176   89  210 1    
   177   90   91 1    
   178   90   92 1    
   179   90  211 1    
   180   91  212 1    
   181   91  213 1    
   182   91  214 1    
   183   92   93 2    
   184   92   94 am   BACKBONE|DICT|INTERRES
   185   94   95 1    
   186   94  215 1    
   187   95   96 1    
   188   95   97 1    
   189   95  216 1    
   190   96  217 1    
   191   96  218 1    
   192   96  219 1    
   193   97   98 2    
   194   97   99 am   BACKBONE|DICT|INTERRES
   195   99  100 1    
   196   99  220 1    
   197  100  101 1    
   198  100  102 1    
   199  100  221 1    
   200  101  222 1    
   201  101  223 1    
   202  101  224 1    
   203  102  103 2    
   204  102  104 am   BACKBONE|DICT|INTERRES
   205  104  105 1    
   206  104  225 1    
   207  105  106 1    
   208  105  107 1    
   209  105  226 1    
   210  106  227 1    
   211  106  228 1    
   212  106  229 1    
   213  107  108 2    
   214  107  109 am   BACKBONE|DICT|INTERRES
   215  109  110 1    
   216  109  230 1    
   217  110  111 1    
   218  110  112 1    
   219  110  231 1    
   220  111  232 1    
   221  111  233 1    
   222  111  234 1    
   223  112  113 2    
   224  112  114 am   BACKBONE|DICT|INTERRES
   225  114  115 1    
   226  114  235 1    
   227  115  116 1    
   228  115  117 1    
   229  115  236 1    
   230  116  237 1    
   231  116  238 1    
   232  116  239 1    
   233  117  118 2    
   234  117  119 am   BACKBONE|DICT|INTERRES
   235  119  120 1    
   236  119  240 1    
   237  120  121 1    
   238  120  124 1    
   239  120  241 1    
   240  121  122 am   BACKBONE|DICT|INTERRES
   241  121  123 2    
   242  122  242 1    
   243  122  243 1    
   244  124  125 1    
   245  124  244 1    
   246  124  245 1    
   247  125  126 1    
   248  126  246 1    
   249  126  247 1    
@<TRIPOS>SUBSTRUCTURE
     1 UNK         1 GROUP             0       ****    0 ROOT    
