@<TRIPOS>MOLECULE
3R540
247   249    1
SMALL
USER_CHARGES


@<TRIPOS>ATOM
      1 CA         -3.0096  -13.3061  -44.1552 C.3       0 UNK        -0.1800 
      2 C          -3.0184  -13.0693  -45.6588 C.2       0 UNK         0.5000 
      3 O          -3.4350  -12.0022  -46.1082 O.2       0 UNK        -0.5000 
      4 N          -2.5704  -14.0667  -46.4332 N.am      1 UNK        -0.5000 
      5 CA         -2.5222  -14.0467  -47.9003 C.3       1 UNK         0.1400 
      6 C6         -2.2249  -15.4613  -48.4595 C.3       23 UNK        -0.0398 
      7 S7         -2.5920  -15.6344  -50.2396 S.3       23 UNK        -0.2404 
      8 C8         -0.9256  -15.5576  -50.9695 C.3       23 UNK        -0.0205 
      9 C9         -0.2349  -16.9132  -50.9719 C.ar      23 UNK        -0.0193 
     10 C10        -0.4167  -17.7819  -52.0519 C.ar      23 UNK        -0.1150 
     11 C11         0.2561  -19.0050  -52.0973 C.ar      23 UNK        -0.0193 
     12 C12         1.1005  -19.3641  -51.0460 C.ar      23 UNK        -0.1150 
     13 C13         1.2643  -18.5243  -49.9397 C.ar      23 UNK        -0.0193 
     14 C14         0.6051  -17.2908  -49.9183 C.ar      23 UNK        -0.1150 
     15 C15         2.1545  -18.9362  -48.7692 C.3       23 UNK        -0.0205 
     16 S16         1.9596  -20.6864  -48.2833 S.3       23 UNK        -0.2404 
     17 C17         0.1650  -20.7598  -47.9750 C.3       23 UNK        -0.0398 
     18 CA         -0.2584  -22.0345  -47.2166 C.3       11 UNK         0.1400 
     19 N           0.3032  -22.1021  -45.8635 N.am      11 UNK        -0.5000 
     20 C           0.2555  -23.1898  -45.0828 C.2       10 UNK         0.5000 
     21 O          -0.2523  -24.2549  -45.4315 O.2       10 UNK        -0.5000 
     22 CA          0.8212  -23.0557  -43.6589 C.3       10 UNK         0.1400 
     23 CB          2.3522  -23.1761  -43.6636 C.3       10 UNK        -0.1800 
     24 N           0.4189  -21.8061  -43.0128 N.am      10 UNK        -0.5000 
     25 C          -0.8456  -21.4915  -42.6965 C.2       9 UNK         0.5000 
     26 O          -1.8009  -22.2459  -42.8797 O.2       9 UNK        -0.5000 
     27 CA         -1.0962  -20.0797  -42.1328 C.3       9 UNK         0.1400 
     28 CB         -0.7139  -20.0028  -40.6480 C.3       9 UNK        -0.1800 
     29 N          -0.3916  -19.0395  -42.8845 N.am      9 UNK        -0.5000 
     30 C          -0.6161  -18.7698  -44.1791 C.2       8 UNK         0.5000 
     31 O          -1.4705  -19.3351  -44.8586 O.2       8 UNK        -0.5000 
     32 CA          0.2904  -17.7248  -44.8496 C.3       8 UNK         0.1400 
     33 CB         -0.2836  -16.3159  -44.6474 C.3       8 UNK        -0.1800 
     34 N           1.6809  -17.7871  -44.3913 N.am      8 UNK        -0.5000 
     35 C           2.4646  -18.8671  -44.5359 C.2       7 UNK         0.5000 
     36 O           2.0998  -19.9016  -45.0929 O.2       7 UNK        -0.5000 
     37 CA          3.8637  -18.8104  -43.8993 C.3       7 UNK         0.1400 
     38 CB          4.7484  -17.7509  -44.5700 C.3       7 UNK        -0.1800 
     39 N           3.8066  -18.5589  -42.4601 N.am      7 UNK        -0.5000 
     40 C           3.2359  -19.3724  -41.5598 C.2       6 UNK         0.5000 
     41 O           2.7268  -20.4559  -41.8414 O.2       6 UNK        -0.5000 
     42 CA          3.2005  -18.8843  -40.0983 C.3       6 UNK         0.1400 
     43 CB          4.4242  -19.4057  -39.3304 C.3       6 UNK        -0.1800 
     44 N           3.1281  -17.4279  -39.9539 N.am      6 UNK        -0.5000 
     45 C           2.1546  -16.6459  -40.4399 C.2       5 UNK         0.5000 
     46 O           1.2025  -17.0768  -41.0982 O.2       5 UNK        -0.5000 
     47 CA          2.2727  -15.1343  -40.1714 C.3       5 UNK         0.1400 
     48 CB          3.7024  -14.6592  -39.8327 C.3       5 UNK        -0.1800 
     49 N           1.7868  -14.4398  -41.3528 N.am      5 UNK        -0.5000 
     50 C           1.2466  -13.2245  -41.4136 C.2       4 UNK         0.5000 
     51 O           1.1525  -12.4696  -40.4438 O.2       4 UNK        -0.5000 
     52 CA          0.7141  -12.8000  -42.8002 C.3       4 UNK         0.1400 
     53 CB         -0.0293  -11.4530  -42.7580 C.3       4 UNK        -0.1800 
     54 N           1.7350  -12.7222  -43.8487 N.am      4 UNK        -0.5000 
     55 C           2.4570  -13.7161  -44.3839 C.2       3 UNK         0.5000 
     56 O           2.4231  -14.8881  -44.0005 O.2       3 UNK        -0.5000 
     57 CA          3.2823  -13.3313  -45.6259 C.3       3 UNK         0.1400 
     58 CB          4.2970  -14.4141  -46.0290 C.3       3 UNK        -0.1800 
     59 N           2.3835  -13.0921  -46.7547 N.am      3 UNK        -0.5000 
     60 C           1.7179  -11.9531  -46.9870 C.2       2 UNK         0.5000 
     61 O           1.8197  -10.9441  -46.2882 O.2       2 UNK        -0.5000 
     62 CA          0.7251  -11.9818  -48.1528 C.3       2 UNK         0.1400 
     63 CB          1.4095  -12.3460  -49.4869 C.3       2 UNK        -0.1800 
     64 N          -0.3393  -12.9276  -47.8268 N.am      2 UNK        -0.5000 
     65 C          -1.5283  -12.9920  -48.4383 C.2       1 UNK         0.5000 
     66 O          -1.8594  -12.2589  -49.3712 O.2       1 UNK        -0.5000 
     67 C          -1.7949  -22.1768  -47.2281 C.2       11 UNK         0.5000 
     68 O          -2.3363  -22.7596  -48.1689 O.2       11 UNK        -0.5000 
     69 N          -2.4734  -21.6522  -46.1986 N.am      12 UNK        -0.5000 
     70 CA         -3.9123  -21.8053  -45.9912 C.3       12 UNK         0.1400 
     71 CB         -4.4070  -20.7749  -44.9665 C.3       12 UNK        -0.1800 
     72 C          -4.2827  -23.2344  -45.5620 C.2       12 UNK         0.5000 
     73 O          -5.2568  -23.7795  -46.0787 O.2       12 UNK        -0.5000 
     74 N          -3.4813  -23.8363  -44.6705 N.am      13 UNK        -0.5000 
     75 CA         -3.6248  -25.2270  -44.2265 C.3       13 UNK         0.1400 
     76 CB         -2.6700  -25.4965  -43.0539 C.3       13 UNK        -0.1800 
     77 C          -3.3988  -26.2434  -45.3629 C.2       13 UNK         0.5000 
     78 O          -4.1174  -27.2401  -45.4423 O.2       13 UNK        -0.5000 
     79 N          -2.4384  -25.9457  -46.2486 N.am      14 UNK        -0.5000 
     80 CA         -2.1690  -26.6823  -47.4863 C.3       14 UNK         0.1400 
     81 CB         -0.7709  -26.2925  -47.9925 C.3       14 UNK        -0.1800 
     82 C          -3.2200  -26.4369  -48.5906 C.2       14 UNK         0.5000 
     83 O          -3.2074  -27.1445  -49.5978 O.2       14 UNK        -0.5000 
     84 N          -4.0816  -25.4271  -48.3965 N.am      15 UNK        -0.5000 
     85 CA         -5.1379  -24.9332  -49.2861 C.3       15 UNK         0.1400 
     86 CB         -6.1756  -26.0302  -49.5965 C.3       15 UNK        -0.1800 
     87 C          -4.6252  -24.2358  -50.5623 C.2       15 UNK         0.5000 
     88 O          -5.4352  -23.8726  -51.4143 O.2       15 UNK        -0.5000 
     89 N          -3.3106  -24.0045  -50.6626 N.am      16 UNK        -0.5000 
     90 CA         -2.6602  -23.3307  -51.7850 C.3       16 UNK         0.1400 
     91 CB         -1.1411  -23.5282  -51.6786 C.3       16 UNK        -0.1800 
     92 C          -3.0207  -21.8373  -51.8460 C.2       16 UNK         0.5000 
     93 O          -3.2944  -21.3200  -52.9302 O.2       16 UNK        -0.5000 
     94 N          -3.0622  -21.1868  -50.6741 N.am      17 UNK        -0.5000 
     95 CA         -3.5176  -19.8026  -50.5291 C.3       17 UNK         0.1400 
     96 CB         -3.0455  -19.2320  -49.1841 C.3       17 UNK        -0.1800 
     97 C          -5.0460  -19.6765  -50.6581 C.2       17 UNK         0.5000 
     98 O          -5.5267  -18.6722  -51.1808 O.2       17 UNK        -0.5000 
     99 N          -5.7790  -20.7028  -50.2002 N.am      18 UNK        -0.5000 
    100 CA        -7.2416  -20.7698  -50.2537 C.3       18 UNK         0.1400 
    101 CB        -7.7399  -21.9160  -49.3598 C.3       18 UNK        -0.1800 
    102 C         -7.7660  -20.9250  -51.6926 C.2       18 UNK         0.5000 
    103 O         -8.7208  -20.2458  -52.0708 O.2       18 UNK        -0.5000 
    104 N         -7.1067  -21.7883  -52.4773 N.am      19 UNK        -0.5000 
    105 CA        -7.3622  -21.9797  -53.9060 C.3       19 UNK         0.1400 
    106 CB        -6.7471  -23.3195  -54.3409 C.3       19 UNK        -0.1800 
    107 C         -6.8045  -20.8374  -54.7781 C.2       19 UNK         0.5000 
    108 O         -7.2052  -20.7197  -55.9366 O.2       19 UNK        -0.5000 
    109 N         -5.8788  -20.0439  -54.2161 N.am      20 UNK        -0.5000 
    110 CA        -5.0943  -18.9856  -54.8594 C.3       20 UNK         0.1400 
    111 CB        -5.9931  -17.8082  -55.2885 C.3       20 UNK        -0.1800 
    112 C         -4.2214  -19.5406  -56.0036 C.2       20 UNK         0.5000 
    113 O         -4.1302  -18.9392  -57.0761 O.2       20 UNK        -0.5000 
    114 N         -3.5883  -20.6934  -55.7412 N.am      21 UNK        -0.5000 
    115 CA        -2.7938  -21.4781  -56.6921 C.3       21 UNK         0.1400 
    116 CB        -2.3843  -22.7945  -56.0128 C.3       21 UNK        -0.1800 
    117 C         -1.5519  -20.7419  -57.2319 C.2       21 UNK         0.5000 
    118 O         -1.0652  -21.0719  -58.3140 O.2       21 UNK        -0.5000 
    119 N         -1.0788  -19.7547  -56.4666 N.am      22 UNK        -0.5000 
    120 CA         0.0382  -18.8623  -56.8001 C.3       22 UNK         0.1400 
    121 C         -0.3681  -17.6610  -57.7051 C.2       22 UNK         0.5000 
    122 N         -1.6416  -17.4586  -58.0280 N.am      22 UNK        -0.7600 
    123 O          0.4938  -16.8987  -58.1338 O.2       22 UNK        -0.5000 
    124 C124        0.7679  -18.3802  -55.5191 C.3       23 UNK        -0.0398 
    125 S125        1.3894  -19.7704  -54.5090 S.3       23 UNK        -0.2404 
    126 C126        0.0699  -19.9551  -53.2667 C.3       23 UNK        -0.0205 
    127 H127       -2.3630  -14.1385  -43.8785 H         1 UNK         0.0600 
    128 H128       -2.6594  -12.4159  -43.6342 H         1 UNK         0.0600 
    129 H129       -4.0186  -13.5262  -43.8068 H         1 UNK         0.0600 
    130 H130       -2.2738  -14.9253  -45.9952 H         1 UNK         0.3000 
    131 H131       -3.5180  -13.7553  -48.2425 H         1 UNK         0.0600 
    132 H132       -1.1989  -15.7604  -48.2473 H         1 UNK         0.0800 
    133 H133       -2.8522  -16.1897  -47.9447 H         1 UNK         0.0800 
    134 H134       -0.3155  -14.8201  -50.4470 H         1 UNK         0.0800 
    135 H135       -1.0151  -15.1943  -51.9943 H         1 UNK         0.0800 
    136 H136       -1.0748  -17.4981  -52.8607 H         1 UNK         0.1150 
    137 H137        1.6209  -20.3106  -51.0852 H         1 UNK         0.1150 
    138 H138        0.7526  -16.6224  -49.0828 H         1 UNK         0.1150 
    139 H139        1.9535  -18.3137  -47.8959 H         1 UNK         0.0800 
    140 H140        3.1956  -18.7607  -49.0419 H         1 UNK         0.0800 
    141 H141       -0.3257  -20.7244  -48.9488 H         1 UNK         0.0800 
    142 H142       -0.1462  -19.8664  -47.4312 H         1 UNK         0.0800 
    143 H143        0.1330  -22.8912  -47.7693 H         1 UNK         0.0600 
    144 H144        0.7926  -21.2760  -45.5282 H         1 UNK         0.3000 
    145 H145        0.4219  -23.8805  -43.0654 H         1 UNK         0.0600 
    146 H146        2.7494  -23.1739  -42.6485 H         1 UNK         0.0600 
    147 H147        2.6696  -24.1068  -44.1353 H         1 UNK         0.0600 
    148 H148        2.8210  -22.3551  -44.2067 H         1 UNK         0.0600 
    149 H149        1.1623  -21.1449  -42.8069 H         1 UNK         0.3000 
    150 H150       -2.1658  -19.8755  -42.2150 H         1 UNK         0.0600 
    151 H151        0.3366  -20.2423  -40.4908 H         1 UNK         0.0600 
    152 H152       -1.3007  -20.7091  -40.0596 H         1 UNK         0.0600 
    153 H153       -0.8968  -19.0077  -40.2421 H         1 UNK         0.0600 
    154 H154        0.3109  -18.5030  -42.3870 H         1 UNK         0.3000 
    155 H155        0.2874  -17.9355  -45.9207 H         1 UNK         0.0600 
    156 H156       -0.1772  -15.9864  -43.6133 H         1 UNK         0.0600 
    157 H157       -1.3456  -16.2907  -44.8920 H         1 UNK         0.0600 
    158 H158        0.2139  -15.5925  -45.2921 H         1 UNK         0.0600 
    159 H159        2.0505  -16.9542  -43.9481 H         1 UNK         0.3000 
    160 H160        4.3315  -19.7854  -44.0519 H         1 UNK         0.0600 
    161 H161        4.4110  -16.7437  -44.3303 H         1 UNK         0.0600 
    162 H162        4.7392  -17.8572  -45.6557 H         1 UNK         0.0600 
    163 H163        5.7842  -17.8405  -44.2427 H         1 UNK         0.0600 
    164 H164        4.1883  -17.6833  -42.1358 H         1 UNK         0.3000 
    165 H165        2.3067  -19.3031  -39.6333 H         1 UNK         0.0600 
    166 H166        4.3654  -19.1501  -38.2723 H         1 UNK         0.0600 
    167 H167        5.3533  -18.9931  -39.7256 H         1 UNK         0.0600 
    168 H168        4.4930  -20.4924  -39.3969 H         1 UNK         0.0600 
    169 H169        3.8768  -16.9928  -39.4347 H         1 UNK         0.3000 
    170 H170        1.6142  -14.9089  -39.3305 H         1 UNK         0.0600 
    171 H171        4.0613  -15.1003  -38.9024 H         1 UNK         0.0600 
    172 H172        4.4090  -14.9138  -40.6238 H         1 UNK         0.0600 
    173 H173        3.7352  -13.5778  -39.6989 H         1 UNK         0.0600 
    174 H174        1.8524  -14.9653  -42.2209 H         1 UNK         0.3000 
    175 H175       -0.0071  -13.5608  -43.1029 H         1 UNK         0.0600 
    176 H176        0.6369  -10.6357  -42.4788 H         1 UNK         0.0600 
    177 H177       -0.4645  -11.2110  -43.7280 H         1 UNK         0.0600 
    178 H178       -0.8445  -11.4758  -42.0337 H         1 UNK         0.0600 
    179 H179        1.8312  -11.8137  -44.2860 H         1 UNK         0.3000 
    180 H180        3.8377  -12.4194  -45.3961 H         1 UNK         0.0600 
    181 H181        3.8072  -15.3549  -46.2835 H         1 UNK         0.0600 
    182 H182        4.9985  -14.6095  -45.2174 H         1 UNK         0.0600 
    183 H183        4.8834  -14.1002  -46.8926 H         1 UNK         0.0600 
    184 H184        2.2314  -13.8767  -47.3708 H         1 UNK         0.3000 
    185 H185        0.2937  -10.9824  -48.2421 H         1 UNK         0.0600 
    186 H186        0.7282  -12.2207  -50.3283 H         1 UNK         0.0600 
    187 H187        2.2694  -11.7013  -49.6731 H         1 UNK         0.0600 
    188 H188        1.7614  -13.3779  -49.4988 H         1 UNK         0.0600 
    189 H189       -0.1745  -13.5134  -47.0211 H         1 UNK         0.3000 
    190 H190       -1.9739  -21.0959  -45.5107 H         1 UNK         0.3000 
    191 H191       -4.4185  -21.6038  -46.9376 H         1 UNK         0.0600 
    192 H192       -5.4811  -20.8699  -44.8033 H         1 UNK         0.0600 
    193 H193       -4.2191  -19.7580  -45.3116 H         1 UNK         0.0600 
    194 H194       -3.9148  -20.8958  -44.0013 H         1 UNK         0.0600 
    195 H195       -2.7295  -23.3000  -44.2468 H         1 UNK         0.3000 
    196 H196       -4.6474  -25.3564  -43.8663 H         1 UNK         0.0600 
    197 H197       -1.6276  -25.3653  -43.3440 H         1 UNK         0.0600 
    198 H198       -2.8716  -24.8249  -42.2193 H         1 UNK         0.0600 
    199 H199       -2.7824  -26.5168  -42.6854 H         1 UNK         0.0600 
    200 H200       -1.8298  -25.1550  -46.0524 H         1 UNK         0.3000 
    201 H201       -2.1696  -27.7508  -47.2620 H         1 UNK         0.0600 
    202 H202       -0.7146  -25.2311  -48.2366 H         1 UNK         0.0600 
    203 H203       -0.5072  -26.8510  -48.8915 H         1 UNK         0.0600 
    204 H204       -0.0071  -26.5041  -47.2439 H         1 UNK         0.0600 
    205 H205       -3.9982  -24.9153  -47.5276 H         1 UNK         0.3000 
    206 H206       -5.6506  -24.1573  -48.7180 H         1 UNK         0.0600 
    207 H207       -6.5401  -26.4975  -48.6816 H         1 UNK         0.0600 
    208 H208       -7.0410  -25.6140  -50.1136 H         1 UNK         0.0600 
    209 H209       -5.7634  -26.8124  -50.2341 H         1 UNK         0.0600 
    210 H210       -2.7287  -24.2429  -49.8713 H         1 UNK         0.3000 
    211 H211       -3.0050  -23.7994  -52.7092 H         1 UNK         0.0600 
    212 H212       -0.6378  -23.1462  -52.5664 H         1 UNK         0.0600 
    213 H213       -0.8865  -24.5852  -51.5975 H         1 UNK         0.0600 
    214 H214       -0.7234  -23.0163  -50.8102 H         1 UNK         0.0600 
    215 H215       -2.8342  -21.6988  -49.8285 H         1 UNK         0.3000 
    216 H216       -3.0705  -19.2005  -51.3235 H         1 UNK         0.0600 
    217 H217       -3.3279  -19.8696  -48.3478 H         1 UNK         0.0600 
    218 H218       -3.4874  -18.2527  -49.0030 H         1 UNK         0.0600 
    219 H219       -1.9649  -19.0988  -49.1710 H         1 UNK         0.0600 
    220 H220       -5.2990  -21.4988  -49.8114 H         1 UNK         0.3000 
    221 H221       -7.6351  -19.8333  -49.8524 H         1 UNK         0.0600 
    222 H222       -7.3594  -21.8227  -48.3423 H         1 UNK         0.0600 
    223 H223       -7.4410  -22.8905  -49.7450 H         1 UNK         0.0600 
    224 H224       -8.8290  -21.9129  -49.3007 H         1 UNK         0.0600 
    225 H225       -6.3791  -22.3719  -52.0716 H         1 UNK         0.3000 
    226 H226       -8.4412  -22.0268  -54.0671 H         1 UNK         0.0600 
    227 H227       -5.6644  -23.3255  -54.2061 H         1 UNK         0.0600 
    228 H228       -7.1601  -24.1485  -53.7657 H         1 UNK         0.0600 
    229 H229       -6.9486  -23.5215  -55.3936 H         1 UNK         0.0600 
    230 H230       -5.6209  -20.2492  -53.2613 H         1 UNK         0.3000 
    231 H231       -4.4043  -18.6137  -54.1004 H         1 UNK         0.0600 
    232 H232       -6.6768  -18.0878  -56.0904 H         1 UNK         0.0600 
    233 H233       -5.3930  -16.9718  -55.6486 H         1 UNK         0.0600 
    234 H234       -6.5881  -17.4437  -54.4511 H         1 UNK         0.0600 
    235 H235       -3.6640  -21.0712  -54.8002 H         1 UNK         0.3000 
    236 H236       -3.4332  -21.7119  -57.5455 H         1 UNK         0.0600 
    237 H237       -3.2581  -23.3601  -55.6884 H         1 UNK         0.0600 
    238 H238       -1.8210  -23.4303  -56.6970 H         1 UNK         0.0600 
    239 H239       -1.7575  -22.6156  -55.1380 H         1 UNK         0.0600 
    240 H240       -1.5659  -19.5574  -55.6072 H         1 UNK         0.3000 
    241 H241        0.7596  -19.4360  -57.3851 H         1 UNK         0.0600 
    242 H242       -1.8799  -16.6786  -58.6198 H         1 UNK         0.3800 
    243 H243       -2.3767  -18.0745  -57.6987 H         1 UNK         0.3800 
    244 H244        0.1170  -17.7445  -54.9187 H         1 UNK         0.0800 
    245 H245        1.6284  -17.7634  -55.7838 H         1 UNK         0.0800 
    246 H246       -0.9132  -19.8195  -53.7173 H         1 UNK         0.0800 
    247 H247        0.0891  -20.9802  -52.8988 H         1 UNK         0.0800 
@<TRIPOS>BOND
     1    1    2 1    
     2    1  127 1    
     3    1  128 1    
     4    1  129 1    
     5    2    3 2    
     6    2    4 am   BACKBONE|DICT|INTERRES
     7    4    5 1    
     8    4  130 1    
     9    5    6 1    
    10    5   65 1    
    11    5  131 1    
    12    6    7 1    
    13    6  132 1    
    14    6  133 1    
    15    7    8 1    
    16    8    9 1    
    17    8  134 1    
    18    8  135 1    
    19    9   10 ar   
    20    9   14 ar   
    21   10   11 ar   
    22   10  136 1    
    23   11   12 ar   
    24   11  126 1    
    25   12   13 ar   
    26   12  137 1    
    27   13   14 ar   
    28   13   15 1    
    29   14  138 1    
    30   15   16 1    
    31   15  139 1    
    32   15  140 1    
    33   16   17 1    
    34   17   18 1    
    35   17  141 1    
    36   17  142 1    
    37   18   19 1    
    38   18   67 1    
    39   18  143 1    
    40   19   20 am   BACKBONE|DICT|INTERRES
    41   19  144 1    
    42   20   21 2    
    43   20   22 1    
    44   22   23 1    
    45   22   24 1    
    46   22  145 1    
    47   23  146 1    
    48   23  147 1    
    49   23  148 1    
    50   24   25 am   BACKBONE|DICT|INTERRES
    51   24  149 1    
    52   25   26 2    
    53   25   27 1    
    54   27   28 1    
    55   27   29 1    
    56   27  150 1    
    57   28  151 1    
    58   28  152 1    
    59   28  153 1    
    60   29   30 am   BACKBONE|DICT|INTERRES
    61   29  154 1    
    62   30   31 2    
    63   30   32 1    
    64   32   33 1    
    65   32   34 1    
    66   32  155 1    
    67   33  156 1    
    68   33  157 1    
    69   33  158 1    
    70   34   35 am   BACKBONE|DICT|INTERRES
    71   34  159 1    
    72   35   36 2    
    73   35   37 1    
    74   37   38 1    
    75   37   39 1    
    76   37  160 1    
    77   38  161 1    
    78   38  162 1    
    79   38  163 1    
    80   39   40 am   BACKBONE|DICT|INTERRES
    81   39  164 1    
    82   40   41 2    
    83   40   42 1    
    84   42   43 1    
    85   42   44 1    
    86   42  165 1    
    87   43  166 1    
    88   43  167 1    
    89   43  168 1    
    90   44   45 am   BACKBONE|DICT|INTERRES
    91   44  169 1    
    92   45   46 2    
    93   45   47 1    
    94   47   48 1    
    95   47   49 1    
    96   47  170 1    
    97   48  171 1    
    98   48  172 1    
    99   48  173 1    
   100   49   50 am   BACKBONE|DICT|INTERRES
   101   49  174 1    
   102   50   51 2    
   103   50   52 1    
   104   52   53 1    
   105   52   54 1    
   106   52  175 1    
   107   53  176 1    
   108   53  177 1    
   109   53  178 1    
   110   54   55 am   BACKBONE|DICT|INTERRES
   111   54  179 1    
   112   55   56 2    
   113   55   57 1    
   114   57   58 1    
   115   57   59 1    
   116   57  180 1    
   117   58  181 1    
   118   58  182 1    
   119   58  183 1    
   120   59   60 am   BACKBONE|DICT|INTERRES
   121   59  184 1    
   122   60   61 2    
   123   60   62 1    
   124   62   63 1    
   125   62   64 1    
   126   62  185 1    
   127   63  186 1    
   128   63  187 1    
   129   63  188 1    
   130   64   65 am   BACKBONE|DICT|INTERRES
   131   64  189 1    
   132   65   66 2    
   133   67   68 2    
   134   67   69 am   BACKBONE|DICT|INTERRES
   135   69   70 1    
   136   69  190 1    
   137   70   71 1    
   138   70   72 1    
   139   70  191 1    
   140   71  192 1    
   141   71  193 1    
   142   71  194 1    
   143   72   73 2    
   144   72   74 am   BACKBONE|DICT|INTERRES
   145   74   75 1    
   146   74  195 1    
   147   75   76 1    
   148   75   77 1    
   149   75  196 1    
   150   76  197 1    
   151   76  198 1    
   152   76  199 1    
   153   77   78 2    
   154   77   79 am   BACKBONE|DICT|INTERRES
   155   79   80 1    
   156   79  200 1    
   157   80   81 1    
   158   80   82 1    
   159   80  201 1    
   160   81  202 1    
   161   81  203 1    
   162   81  204 1    
   163   82   83 2    
   164   82   84 am   BACKBONE|DICT|INTERRES
   165   84   85 1    
   166   84  205 1    
   167   85   86 1    
   168   85   87 1    
   169   85  206 1    
   170   86  207 1    
   171   86  208 1    
   172   86  209 1    
   173   87   88 2    
   174   87   89 am   BACKBONE|DICT|INTERRES
   175   89   90 1    
   176   89  210 1    
   177   90   91 1    
   178   90   92 1    
   179   90  211 1    
   180   91  212 1    
   181   91  213 1    
   182   91  214 1    
   183   92   93 2    
   184   92   94 am   BACKBONE|DICT|INTERRES
   185   94   95 1    
   186   94  215 1    
   187   95   96 1    
   188   95   97 1    
   189   95  216 1    
   190   96  217 1    
   191   96  218 1    
   192   96  219 1    
   193   97   98 2    
   194   97   99 am   BACKBONE|DICT|INTERRES
   195   99  100 1    
   196   99  220 1    
   197  100  101 1    
   198  100  102 1    
   199  100  221 1    
   200  101  222 1    
   201  101  223 1    
   202  101  224 1    
   203  102  103 2    
   204  102  104 am   BACKBONE|DICT|INTERRES
   205  104  105 1    
   206  104  225 1    
   207  105  106 1    
   208  105  107 1    
   209  105  226 1    
   210  106  227 1    
   211  106  228 1    
   212  106  229 1    
   213  107  108 2    
   214  107  109 am   BACKBONE|DICT|INTERRES
   215  109  110 1    
   216  109  230 1    
   217  110  111 1    
   218  110  112 1    
   219  110  231 1    
   220  111  232 1    
   221  111  233 1    
   222  111  234 1    
   223  112  113 2    
   224  112  114 am   BACKBONE|DICT|INTERRES
   225  114  115 1    
   226  114  235 1    
   227  115  116 1    
   228  115  117 1    
   229  115  236 1    
   230  116  237 1    
   231  116  238 1    
   232  116  239 1    
   233  117  118 2    
   234  117  119 am   BACKBONE|DICT|INTERRES
   235  119  120 1    
   236  119  240 1    
   237  120  121 1    
   238  120  124 1    
   239  120  241 1    
   240  121  122 am   BACKBONE|DICT|INTERRES
   241  121  123 2    
   242  122  242 1    
   243  122  243 1    
   244  124  125 1    
   245  124  244 1    
   246  124  245 1    
   247  125  126 1    
   248  126  246 1    
   249  126  247 1    
@<TRIPOS>SUBSTRUCTURE
     1 UNK         1 GROUP             0       ****    0 ROOT    
