@<TRIPOS>MOLECULE
3R540
247   249    1
SMALL
USER_CHARGES


@<TRIPOS>ATOM
      1 CA          0.3426   -9.8550  -49.6141 C.3       0 UNK        -0.1800 
      2 C           0.8276  -10.7185  -48.4597 C.2       0 UNK         0.5000 
      3 O           0.7128  -10.3110  -47.3037 O.2       0 UNK        -0.5000 
      4 N           1.3508  -11.9152  -48.7656 N.am      1 UNK        -0.5000 
      5 CA          1.9114  -12.8925  -47.8190 C.3       1 UNK         0.1400 
      6 C6          2.4284  -14.1481  -48.5650 C.3       23 UNK        -0.0398 
      7 S7          3.3447  -15.3247  -47.5046 S.3       23 UNK        -0.2404 
      8 C8          4.3787  -16.2055  -48.7169 C.3       23 UNK        -0.0205 
      9 C9          3.7070  -17.4622  -49.2553 C.ar      23 UNK        -0.0193 
     10 C10         2.6943  -17.3728  -50.2162 C.ar      23 UNK        -0.1150 
     11 C11         2.1102  -18.5298  -50.7421 C.ar      23 UNK        -0.0193 
     12 C12         2.5632  -19.7815  -50.3199 C.ar      23 UNK        -0.1150 
     13 C13         3.5686  -19.8864  -49.3558 C.ar      23 UNK        -0.0193 
     14 C14         4.1297  -18.7231  -48.8201 C.ar      23 UNK        -0.1150 
     15 C15         4.0672  -21.2561  -48.9174 C.3       23 UNK        -0.0205 
     16 S16         3.1426  -21.9039  -47.4904 S.3       23 UNK        -0.2404 
     17 C17         1.5078  -22.2253  -48.2335 C.3       23 UNK        -0.0398 
     18 CA          0.6447  -23.1810  -47.3784 C.3       11 UNK         0.1400 
     19 N           0.3110  -22.6160  -46.0666 N.am      11 UNK        -0.5000 
     20 C          -0.3131  -23.2765  -45.0814 C.2       10 UNK         0.5000 
     21 O          -0.6547  -24.4554  -45.1567 O.2       10 UNK        -0.5000 
     22 CA         -0.6658  -22.4725  -43.8192 C.3       10 UNK         0.1400 
     23 CB          0.5536  -22.3139  -42.8984 C.3       10 UNK        -0.1800 
     24 N          -1.2167  -21.1596  -44.1497 N.am      10 UNK        -0.5000 
     25 C          -2.4134  -20.9685  -44.7225 C.2       9 UNK         0.5000 
     26 O          -3.1987  -21.8783  -44.9904 O.2       9 UNK        -0.5000 
     27 CA         -2.7709  -19.5202  -45.1003 C.3       9 UNK         0.1400 
     28 CB         -3.3202  -18.7554  -43.8869 C.3       9 UNK        -0.1800 
     29 N          -1.6318  -18.7931  -45.6606 N.am      9 UNK        -0.5000 
     30 C          -1.0610  -19.0874  -46.8377 C.2       8 UNK         0.5000 
     31 O          -1.4381  -19.9999  -47.5689 O.2       8 UNK        -0.5000 
     32 CA          0.1598  -18.2485  -47.2500 C.3       8 UNK         0.1400 
     33 CB         -0.3063  -16.9323  -47.8823 C.3       8 UNK        -0.1800 
     34 N           1.0741  -17.9440  -46.1499 N.am      8 UNK        -0.5000 
     35 C           1.6278  -18.8360  -45.3170 C.2       7 UNK         0.5000 
     36 O           1.4340  -20.0482  -45.3771 O.2       7 UNK        -0.5000 
     37 CA          2.4868  -18.2642  -44.1773 C.3       7 UNK         0.1400 
     38 CB          3.9490  -18.1173  -44.6240 C.3       7 UNK        -0.1800 
     39 N           1.9939  -16.9740  -43.6890 N.am      7 UNK        -0.5000 
     40 C           0.8070  -16.7687  -43.0968 C.2       6 UNK         0.5000 
     41 O          -0.0159  -17.6658  -42.9090 O.2       6 UNK        -0.5000 
     42 CA          0.4493  -15.3206  -42.6987 C.3       6 UNK         0.1400 
     43 CB         -0.1091  -15.2225  -41.2648 C.3       6 UNK        -0.1800 
     44 N           1.5286  -14.3534  -42.9381 N.am      6 UNK        -0.5000 
     45 C           2.6867  -14.2209  -42.2749 C.2       5 UNK         0.5000 
     46 O           2.9901  -14.8782  -41.2797 O.2       5 UNK        -0.5000 
     47 CA          3.7009  -13.2155  -42.8408 C.3       5 UNK         0.1400 
     48 CB          4.6567  -13.9204  -43.8181 C.3       5 UNK        -0.1800 
     49 N           3.0592  -12.0941  -43.5323 N.am      5 UNK        -0.5000 
     50 C           3.3569  -10.8068  -43.3169 C.2       4 UNK         0.5000 
     51 O           4.1660  -10.4207  -42.4715 O.2       4 UNK        -0.5000 
     52 CA          2.6556   -9.7643  -44.2052 C.3       4 UNK         0.1400 
     53 CB          3.4408   -9.5595  -45.5098 C.3       4 UNK        -0.1800 
     54 N           1.2666  -10.0886  -44.5288 N.am      4 UNK        -0.5000 
     55 C           0.2487  -10.0311  -43.6585 C.2       3 UNK         0.5000 
     56 O           0.3875   -9.7985  -42.4573 O.2       3 UNK        -0.5000 
     57 CA         -1.1636  -10.2447  -44.2281 C.3       3 UNK         0.1400 
     58 CB         -1.6691   -8.9609  -44.9056 C.3       3 UNK        -0.1800 
     59 N          -1.1839  -11.3366  -45.1989 N.am      3 UNK        -0.5000 
     60 C          -1.6022  -12.5803  -44.9312 C.2       2 UNK         0.5000 
     61 O          -2.0836  -12.9239  -43.8516 O.2       2 UNK        -0.5000 
     62 CA         -1.4427  -13.6355  -46.0453 C.3       2 UNK         0.1400 
     63 CB         -2.7553  -13.8053  -46.8243 C.3       2 UNK        -0.1800 
     64 N          -0.3615  -13.3559  -46.9931 N.am      2 UNK        -0.5000 
     65 C           0.9374  -13.2588  -46.6767 C.2       1 UNK         0.5000 
     66 O           1.3694  -13.3857  -45.5302 O.2       1 UNK        -0.5000 
     67 C          -0.6160  -23.6139  -48.1551 C.2       11 UNK         0.5000 
     68 O          -0.6393  -24.7173  -48.7024 O.2       11 UNK        -0.5000 
     69 N          -1.6527  -22.7627  -48.1544 N.am      12 UNK        -0.5000 
     70 CA         -2.9545  -23.0401  -48.7577 C.3       12 UNK         0.1400 
     71 CB         -3.8481  -21.7928  -48.6875 C.3       12 UNK        -0.1800 
     72 C          -3.6570  -24.2472  -48.1180 C.2       12 UNK         0.5000 
     73 O          -4.1586  -25.0970  -48.8508 O.2       12 UNK        -0.5000 
     74 N          -3.6517  -24.3118  -46.7785 N.am      13 UNK        -0.5000 
     75 CA         -4.2250  -25.4080  -45.9962 C.3       13 UNK         0.1400 
     76 CB         -4.2899  -24.9998  -44.5171 C.3       13 UNK        -0.1800 
     77 C          -3.4616  -26.7355  -46.1584 C.2       13 UNK         0.5000 
     78 O          -4.0928  -27.7912  -46.2199 O.2       13 UNK        -0.5000 
     79 N          -2.1244  -26.6682  -46.2434 N.am      14 UNK        -0.5000 
     80 CA         -1.2461  -27.8163  -46.4885 C.3       14 UNK         0.1400 
     81 CB          0.2209  -27.3923  -46.3234 C.3       14 UNK        -0.1800 
     82 C          -1.4762  -28.4524  -47.8716 C.2       14 UNK         0.5000 
     83 O          -1.4308  -29.6762  -47.9965 O.2       14 UNK        -0.5000 
     84 N          -1.7809  -27.6125  -48.8677 N.am      15 UNK        -0.5000 
     85 CA         -2.1962  -27.9980  -50.2154 C.3       15 UNK         0.1400 
     86 CB         -1.5298  -27.0429  -51.2168 C.3       15 UNK        -0.1800 
     87 C          -3.7366  -28.0368  -50.3403 C.2       15 UNK         0.5000 
     88 O          -4.2884  -27.6363  -51.3671 O.2       15 UNK        -0.5000 
     89 N          -4.4012  -28.5231  -49.2828 N.am      16 UNK        -0.5000 
     90 CA         -5.8431  -28.6895  -49.0838 C.3       16 UNK         0.1400 
     91 CB         -6.4648  -29.6276  -50.1379 C.3       16 UNK        -0.1800 
     92 C          -6.6136  -27.3624  -48.9655 C.2       16 UNK         0.5000 
     93 O          -7.1789  -27.0883  -47.9056 O.2       16 UNK        -0.5000 
     94 N          -6.6383  -26.5734  -50.0446 N.am      17 UNK        -0.5000 
     95 CA         -7.3425  -25.2952  -50.1324 C.3       17 UNK         0.1400 
     96 CB         -8.8657  -25.5256  -50.2406 C.3       17 UNK        -0.1800 
     97 C          -6.7891  -24.4464  -51.2900 C.2       17 UNK         0.5000 
     98 O          -7.5595  -23.8091  -52.0114 O.2       17 UNK        -0.5000 
     99 N          -5.4607  -24.4358  -51.4626 N.am      18 UNK        -0.5000 
    100 CA        -4.7600  -23.7167  -52.5348 C.3       18 UNK         0.1400 
    101 CB        -3.4067  -24.3939  -52.8003 C.3       18 UNK        -0.1800 
    102 C         -4.6148  -22.2057  -52.2457 C.2       18 UNK         0.5000 
    103 O         -3.5136  -21.6599  -52.3200 O.2       18 UNK        -0.5000 
    104 N         -5.7323  -21.5558  -51.9013 N.am      19 UNK        -0.5000 
    105 CA        -5.8123  -20.1275  -51.5933 C.3       19 UNK         0.1400 
    106 CB        -7.0572  -19.8769  -50.7300 C.3       19 UNK        -0.1800 
    107 C         -5.8375  -19.2395  -52.8517 C.2       19 UNK         0.5000 
    108 O         -5.5513  -18.0450  -52.7489 O.2       19 UNK        -0.5000 
    109 N         -6.1787  -19.8223  -54.0100 N.am      20 UNK        -0.5000 
    110 CA        -6.2023  -19.1601  -55.3138 C.3       20 UNK         0.1400 
    111 CB        -6.7513  -20.1356  -56.3666 C.3       20 UNK        -0.1800 
    112 C         -4.8044  -18.6481  -55.7079 C.2       20 UNK         0.5000 
    113 O         -3.8673  -19.4454  -55.7845 O.2       20 UNK        -0.5000 
    114 N         -4.6983  -17.3276  -55.9165 N.am      21 UNK        -0.5000 
    115 CA        -3.4674  -16.5739  -56.1919 C.3       21 UNK         0.1400 
    116 CB        -2.8885  -16.9515  -57.5721 C.3       21 UNK        -0.1800 
    117 C         -2.4266  -16.6699  -55.0518 C.2       21 UNK         0.5000 
    118 O         -1.2217  -16.6573  -55.3110 O.2       21 UNK        -0.5000 
    119 N         -2.9122  -16.7651  -53.8086 N.am      22 UNK        -0.5000 
    120 CA        -2.1043  -16.9097  -52.5926 C.3       22 UNK         0.1400 
    121 C         -2.7587  -16.1865  -51.3830 C.2       22 UNK         0.5000 
    122 N         -4.0671  -16.2906  -51.1836 N.am      22 UNK        -0.7600 
    123 O         -2.0809  -15.4824  -50.6402 O.2       22 UNK        -0.5000 
    124 C124       -1.7797  -18.4042  -52.3261 C.3       23 UNK        -0.0398 
    125 S125       -0.6216  -18.6980  -50.9512 S.3       23 UNK        -0.2404 
    126 C126        0.9847  -18.4375  -51.7596 C.3       23 UNK        -0.0205 
    127 H127        0.8817   -8.9078  -49.6237 H         1 UNK         0.0600 
    128 H128       -0.7203   -9.6422  -49.5008 H         1 UNK         0.0600 
    129 H129        0.4924  -10.3426  -50.5776 H         1 UNK         0.0600 
    130 H130        1.3999  -12.1793  -49.7394 H         1 UNK         0.3000 
    131 H131        2.7717  -12.4097  -47.3523 H         1 UNK         0.0600 
    132 H132        1.6061  -14.6643  -49.0584 H         1 UNK         0.0800 
    133 H133        3.0976  -13.8284  -49.3647 H         1 UNK         0.0800 
    134 H134        5.3191  -16.4676  -48.2298 H         1 UNK         0.0800 
    135 H135        4.6486  -15.5466  -49.5429 H         1 UNK         0.0800 
    136 H136        2.3597  -16.4030  -50.5543 H         1 UNK         0.1150 
    137 H137        2.1209  -20.6754  -50.7364 H         1 UNK         0.1150 
    138 H138        4.9112  -18.8017  -48.0774 H         1 UNK         0.1150 
    139 H139        4.0092  -21.9645  -49.7451 H         1 UNK         0.0800 
    140 H140        5.1228  -21.1936  -48.6491 H         1 UNK         0.0800 
    141 H141        1.6664  -22.6486  -49.2270 H         1 UNK         0.0800 
    142 H142        0.9951  -21.2730  -48.3781 H         1 UNK         0.0800 
    143 H143        1.2284  -24.0860  -47.1968 H         1 UNK         0.0600 
    144 H144        0.6067  -21.6567  -45.8993 H         1 UNK         0.3000 
    145 H145       -1.4287  -23.0303  -43.2718 H         1 UNK         0.0600 
    146 H146        0.2914  -21.7784  -41.9859 H         1 UNK         0.0600 
    147 H147        1.3648  -21.7713  -43.3837 H         1 UNK         0.0600 
    148 H148        0.9446  -23.2882  -42.6030 H         1 UNK         0.0600 
    149 H149       -0.6082  -20.3634  -44.0195 H         1 UNK         0.3000 
    150 H150       -3.5539  -19.5584  -45.8607 H         1 UNK         0.0600 
    151 H151       -4.1935  -19.2601  -43.4720 H         1 UNK         0.0600 
    152 H152       -3.6281  -17.7466  -44.1623 H         1 UNK         0.0600 
    153 H153       -2.5794  -18.6745  -43.0906 H         1 UNK         0.0600 
    154 H154       -1.2250  -18.0687  -45.0864 H         1 UNK         0.3000 
    155 H155        0.7150  -18.8176  -47.9979 H         1 UNK         0.0600 
    156 H156        0.5039  -16.4656  -48.4351 H         1 UNK         0.0600 
    157 H157       -0.6624  -16.2295  -47.1322 H         1 UNK         0.0600 
    158 H158       -1.1237  -17.0918  -48.5856 H         1 UNK         0.0600 
    159 H159        1.3148  -16.9726  -46.0231 H         1 UNK         0.3000 
    160 H160        2.4498  -18.9733  -43.3477 H         1 UNK         0.0600 
    161 H161        4.0534  -17.4000  -45.4381 H         1 UNK         0.0600 
    162 H162        4.3454  -19.0706  -44.9767 H         1 UNK         0.0600 
    163 H163        4.5823  -17.7858  -43.8009 H         1 UNK         0.0600 
    164 H164        2.6033  -16.1800  -43.8120 H         1 UNK         0.3000 
    165 H165       -0.3555  -15.0280  -43.3716 H         1 UNK         0.0600 
    166 H166       -0.3579  -14.1924  -41.0093 H         1 UNK         0.0600 
    167 H167       -1.0223  -15.8099  -41.1635 H         1 UNK         0.0600 
    168 H168        0.5971  -15.5949  -40.5228 H         1 UNK         0.0600 
    169 H169        1.4226  -13.8259  -43.8019 H         1 UNK         0.3000 
    170 H170        4.2862  -12.8579  -41.9912 H         1 UNK         0.0600 
    171 H171        5.4401  -13.2429  -44.1579 H         1 UNK         0.0600 
    172 H172        5.1469  -14.7726  -43.3453 H         1 UNK         0.0600 
    173 H173        4.1305  -14.2892  -44.6992 H         1 UNK         0.0600 
    174 H174        2.3851  -12.3270  -44.2539 H         1 UNK         0.3000 
    175 H175        2.6587   -8.8168  -43.6621 H         1 UNK         0.0600 
    176 H176        3.4648  -10.4680  -46.1115 H         1 UNK         0.0600 
    177 H177        2.9989   -8.7687  -46.1164 H         1 UNK         0.0600 
    178 H178        4.4733   -9.2737  -45.3048 H         1 UNK         0.0600 
    179 H179        1.0611  -10.2449  -45.5128 H         1 UNK         0.3000 
    180 H180       -1.8311  -10.4644  -43.3921 H         1 UNK         0.0600 
    181 H181       -2.6915   -9.0828  -45.2633 H         1 UNK         0.0600 
    182 H182       -1.0484   -8.6802  -45.7576 H         1 UNK         0.0600 
    183 H183       -1.6666   -8.1235  -44.2067 H         1 UNK         0.0600 
    184 H184       -0.7582  -11.1459  -46.0984 H         1 UNK         0.3000 
    185 H185       -1.2153  -14.5835  -45.5558 H         1 UNK         0.0600 
    186 H186       -3.0280  -12.8920  -47.3545 H         1 UNK         0.0600 
    187 H187       -2.6798  -14.6090  -47.5575 H         1 UNK         0.0600 
    188 H188       -3.5788  -14.0549  -46.1540 H         1 UNK         0.0600 
    189 H189       -0.6329  -13.2078  -47.9544 H         1 UNK         0.3000 
    190 H190       -1.5414  -21.8422  -47.7345 H         1 UNK         0.3000 
    191 H191       -2.7850  -23.2738  -49.8096 H         1 UNK         0.0600 
    192 H192       -3.4178  -20.9713  -49.2609 H         1 UNK         0.0600 
    193 H193       -3.9845  -21.4503  -47.6616 H         1 UNK         0.0600 
    194 H194       -4.8371  -21.9945  -49.1004 H         1 UNK         0.0600 
    195 H195       -3.2414  -23.5476  -46.2523 H         1 UNK         0.3000 
    196 H196       -5.2458  -25.5708  -46.3486 H         1 UNK         0.0600 
    197 H197       -4.9051  -24.1102  -44.3811 H         1 UNK         0.0600 
    198 H198       -3.2989  -24.7851  -44.1155 H         1 UNK         0.0600 
    199 H199       -4.7271  -25.7938  -43.9105 H         1 UNK         0.0600 
    200 H200       -1.6682  -25.7705  -46.1028 H         1 UNK         0.3000 
    201 H201       -1.4680  -28.5738  -45.7341 H         1 UNK         0.0600 
    202 H202        0.4133  -27.0237  -45.3158 H         1 UNK         0.0600 
    203 H203        0.4940  -26.6045  -47.0258 H         1 UNK         0.0600 
    204 H204        0.8932  -28.2338  -46.4949 H         1 UNK         0.0600 
    205 H205       -1.7829  -26.6180  -48.6707 H         1 UNK         0.3000 
    206 H206       -1.8423  -29.0060  -50.4401 H         1 UNK         0.0600 
    207 H207       -1.7782  -26.0078  -50.9906 H         1 UNK         0.0600 
    208 H208       -0.4443  -27.1346  -51.1791 H         1 UNK         0.0600 
    209 H209       -1.8370  -27.2523  -52.2420 H         1 UNK         0.0600 
    210 H210       -3.8459  -28.7566  -48.4707 H         1 UNK         0.3000 
    211 H211       -5.9414  -29.1885  -48.1182 H         1 UNK         0.0600 
    212 H212       -6.4060  -29.2167  -51.1458 H         1 UNK         0.0600 
    213 H213       -7.5190  -29.8058  -49.9225 H         1 UNK         0.0600 
    214 H214       -5.9664  -30.5968  -50.1431 H         1 UNK         0.0600 
    215 H215       -6.0721  -26.8428  -50.8441 H         1 UNK         0.3000 
    216 H216       -7.1431  -24.7291  -49.2201 H         1 UNK         0.0600 
    217 H217       -9.4057  -24.5791  -50.2841 H         1 UNK         0.0600 
    218 H218       -9.2530  -26.0705  -49.3800 H         1 UNK         0.0600 
    219 H219       -9.1194  -26.0927  -51.1369 H         1 UNK         0.0600 
    220 H220       -4.8861  -24.9240  -50.7827 H         1 UNK         0.3000 
    221 H221       -5.3477  -23.8074  -53.4507 H         1 UNK         0.0600 
    222 H222       -2.7227  -24.2540  -51.9650 H         1 UNK         0.0600 
    223 H223       -3.5244  -25.4634  -52.9737 H         1 UNK         0.0600 
    224 H224       -2.9278  -23.9731  -53.6852 H         1 UNK         0.0600 
    225 H225       -6.5963  -22.0884  -51.8723 H         1 UNK         0.3000 
    226 H226       -4.9335  -19.8424  -51.0110 H         1 UNK         0.0600 
    227 H227       -7.0147  -20.4487  -49.8027 H         1 UNK         0.0600 
    228 H228       -7.1388  -18.8237  -50.4575 H         1 UNK         0.0600 
    229 H229       -7.9729  -20.1536  -51.2540 H         1 UNK         0.0600 
    230 H230       -6.3755  -20.8114  -54.0025 H         1 UNK         0.3000 
    231 H231       -6.8879  -18.3130  -55.2449 H         1 UNK         0.0600 
    232 H232       -6.7915  -19.6652  -57.3499 H         1 UNK         0.0600 
    233 H233       -7.7634  -20.4561  -56.1186 H         1 UNK         0.0600 
    234 H234       -6.1286  -21.0270  -56.4544 H         1 UNK         0.0600 
    235 H235       -5.5308  -16.7637  -55.8132 H         1 UNK         0.3000 
    236 H236       -3.7596  -15.5239  -56.2387 H         1 UNK         0.0600 
    237 H237       -2.5050  -17.9720  -57.5866 H         1 UNK         0.0600 
    238 H238       -3.6437  -16.8656  -58.3534 H         1 UNK         0.0600 
    239 H239       -2.0653  -16.2903  -57.8451 H         1 UNK         0.0600 
    240 H240       -3.9144  -16.7743  -53.6720 H         1 UNK         0.3000 
    241 H241       -1.1572  -16.3934  -52.7608 H         1 UNK         0.0600 
    242 H242       -4.4810  -15.7959  -50.4104 H         1 UNK         0.3800 
    243 H243       -4.6521  -16.8910  -51.7618 H         1 UNK         0.3800 
    244 H244       -1.3644  -18.8643  -53.2238 H         1 UNK         0.0800 
    245 H245       -2.6982  -18.9531  -52.1141 H         1 UNK         0.0800 
    246 H246        0.9961  -17.4637  -52.2509 H         1 UNK         0.0800 
    247 H247        1.1269  -19.1847  -52.5418 H         1 UNK         0.0800 
@<TRIPOS>BOND
     1    1    2 1    
     2    1  127 1    
     3    1  128 1    
     4    1  129 1    
     5    2    3 2    
     6    2    4 am   BACKBONE|DICT|INTERRES
     7    4    5 1    
     8    4  130 1    
     9    5    6 1    
    10    5   65 1    
    11    5  131 1    
    12    6    7 1    
    13    6  132 1    
    14    6  133 1    
    15    7    8 1    
    16    8    9 1    
    17    8  134 1    
    18    8  135 1    
    19    9   10 ar   
    20    9   14 ar   
    21   10   11 ar   
    22   10  136 1    
    23   11   12 ar   
    24   11  126 1    
    25   12   13 ar   
    26   12  137 1    
    27   13   14 ar   
    28   13   15 1    
    29   14  138 1    
    30   15   16 1    
    31   15  139 1    
    32   15  140 1    
    33   16   17 1    
    34   17   18 1    
    35   17  141 1    
    36   17  142 1    
    37   18   19 1    
    38   18   67 1    
    39   18  143 1    
    40   19   20 am   BACKBONE|DICT|INTERRES
    41   19  144 1    
    42   20   21 2    
    43   20   22 1    
    44   22   23 1    
    45   22   24 1    
    46   22  145 1    
    47   23  146 1    
    48   23  147 1    
    49   23  148 1    
    50   24   25 am   BACKBONE|DICT|INTERRES
    51   24  149 1    
    52   25   26 2    
    53   25   27 1    
    54   27   28 1    
    55   27   29 1    
    56   27  150 1    
    57   28  151 1    
    58   28  152 1    
    59   28  153 1    
    60   29   30 am   BACKBONE|DICT|INTERRES
    61   29  154 1    
    62   30   31 2    
    63   30   32 1    
    64   32   33 1    
    65   32   34 1    
    66   32  155 1    
    67   33  156 1    
    68   33  157 1    
    69   33  158 1    
    70   34   35 am   BACKBONE|DICT|INTERRES
    71   34  159 1    
    72   35   36 2    
    73   35   37 1    
    74   37   38 1    
    75   37   39 1    
    76   37  160 1    
    77   38  161 1    
    78   38  162 1    
    79   38  163 1    
    80   39   40 am   BACKBONE|DICT|INTERRES
    81   39  164 1    
    82   40   41 2    
    83   40   42 1    
    84   42   43 1    
    85   42   44 1    
    86   42  165 1    
    87   43  166 1    
    88   43  167 1    
    89   43  168 1    
    90   44   45 am   BACKBONE|DICT|INTERRES
    91   44  169 1    
    92   45   46 2    
    93   45   47 1    
    94   47   48 1    
    95   47   49 1    
    96   47  170 1    
    97   48  171 1    
    98   48  172 1    
    99   48  173 1    
   100   49   50 am   BACKBONE|DICT|INTERRES
   101   49  174 1    
   102   50   51 2    
   103   50   52 1    
   104   52   53 1    
   105   52   54 1    
   106   52  175 1    
   107   53  176 1    
   108   53  177 1    
   109   53  178 1    
   110   54   55 am   BACKBONE|DICT|INTERRES
   111   54  179 1    
   112   55   56 2    
   113   55   57 1    
   114   57   58 1    
   115   57   59 1    
   116   57  180 1    
   117   58  181 1    
   118   58  182 1    
   119   58  183 1    
   120   59   60 am   BACKBONE|DICT|INTERRES
   121   59  184 1    
   122   60   61 2    
   123   60   62 1    
   124   62   63 1    
   125   62   64 1    
   126   62  185 1    
   127   63  186 1    
   128   63  187 1    
   129   63  188 1    
   130   64   65 am   BACKBONE|DICT|INTERRES
   131   64  189 1    
   132   65   66 2    
   133   67   68 2    
   134   67   69 am   BACKBONE|DICT|INTERRES
   135   69   70 1    
   136   69  190 1    
   137   70   71 1    
   138   70   72 1    
   139   70  191 1    
   140   71  192 1    
   141   71  193 1    
   142   71  194 1    
   143   72   73 2    
   144   72   74 am   BACKBONE|DICT|INTERRES
   145   74   75 1    
   146   74  195 1    
   147   75   76 1    
   148   75   77 1    
   149   75  196 1    
   150   76  197 1    
   151   76  198 1    
   152   76  199 1    
   153   77   78 2    
   154   77   79 am   BACKBONE|DICT|INTERRES
   155   79   80 1    
   156   79  200 1    
   157   80   81 1    
   158   80   82 1    
   159   80  201 1    
   160   81  202 1    
   161   81  203 1    
   162   81  204 1    
   163   82   83 2    
   164   82   84 am   BACKBONE|DICT|INTERRES
   165   84   85 1    
   166   84  205 1    
   167   85   86 1    
   168   85   87 1    
   169   85  206 1    
   170   86  207 1    
   171   86  208 1    
   172   86  209 1    
   173   87   88 2    
   174   87   89 am   BACKBONE|DICT|INTERRES
   175   89   90 1    
   176   89  210 1    
   177   90   91 1    
   178   90   92 1    
   179   90  211 1    
   180   91  212 1    
   181   91  213 1    
   182   91  214 1    
   183   92   93 2    
   184   92   94 am   BACKBONE|DICT|INTERRES
   185   94   95 1    
   186   94  215 1    
   187   95   96 1    
   188   95   97 1    
   189   95  216 1    
   190   96  217 1    
   191   96  218 1    
   192   96  219 1    
   193   97   98 2    
   194   97   99 am   BACKBONE|DICT|INTERRES
   195   99  100 1    
   196   99  220 1    
   197  100  101 1    
   198  100  102 1    
   199  100  221 1    
   200  101  222 1    
   201  101  223 1    
   202  101  224 1    
   203  102  103 2    
   204  102  104 am   BACKBONE|DICT|INTERRES
   205  104  105 1    
   206  104  225 1    
   207  105  106 1    
   208  105  107 1    
   209  105  226 1    
   210  106  227 1    
   211  106  228 1    
   212  106  229 1    
   213  107  108 2    
   214  107  109 am   BACKBONE|DICT|INTERRES
   215  109  110 1    
   216  109  230 1    
   217  110  111 1    
   218  110  112 1    
   219  110  231 1    
   220  111  232 1    
   221  111  233 1    
   222  111  234 1    
   223  112  113 2    
   224  112  114 am   BACKBONE|DICT|INTERRES
   225  114  115 1    
   226  114  235 1    
   227  115  116 1    
   228  115  117 1    
   229  115  236 1    
   230  116  237 1    
   231  116  238 1    
   232  116  239 1    
   233  117  118 2    
   234  117  119 am   BACKBONE|DICT|INTERRES
   235  119  120 1    
   236  119  240 1    
   237  120  121 1    
   238  120  124 1    
   239  120  241 1    
   240  121  122 am   BACKBONE|DICT|INTERRES
   241  121  123 2    
   242  122  242 1    
   243  122  243 1    
   244  124  125 1    
   245  124  244 1    
   246  124  245 1    
   247  125  126 1    
   248  126  246 1    
   249  126  247 1    
@<TRIPOS>SUBSTRUCTURE
     1 UNK         1 GROUP             0       ****    0 ROOT    
