@<TRIPOS>MOLECULE
3R540
247   249    1
SMALL
USER_CHARGES


@<TRIPOS>ATOM
      1 CA          4.3763   -9.8050  -50.1449 C.3       0 UNK        -0.1800 
      2 C           3.5985   -9.9285  -48.8421 C.2       0 UNK         0.5000 
      3 O           4.0515   -9.4344  -47.8091 O.2       0 UNK        -0.5000 
      4 N           2.4372  -10.5921  -48.8861 N.am      1 UNK        -0.5000 
      5 CA          1.5284  -10.7807  -47.7509 C.3       1 UNK         0.1400 
      6 C6          0.4286  -11.8294  -48.0565 C.3       23 UNK        -0.0398 
      7 S7          1.1017  -13.4502  -48.5546 S.3       23 UNK        -0.2404 
      8 C8         -0.2097  -14.5771  -47.9894 C.3       23 UNK        -0.0205 
      9 C9         -0.2141  -15.8513  -48.8197 C.ar      23 UNK        -0.0193 
     10 C10        -0.9957  -15.9227  -49.9755 C.ar      23 UNK        -0.1150 
     11 C11        -0.9698  -17.0644  -50.7786 C.ar      23 UNK        -0.0193 
     12 C12        -0.1652  -18.1472  -50.4141 C.ar      23 UNK        -0.1150 
     13 C13         0.6115  -18.0994  -49.2501 C.ar      23 UNK        -0.0193 
     14 C14         0.5804  -16.9443  -48.4587 C.ar      23 UNK        -0.1150 
     15 C15         1.5430  -19.2442  -48.8548 C.3       23 UNK        -0.0205 
     16 S16         1.0036  -20.9162  -49.3543 S.3       23 UNK        -0.2404 
     17 C17        -0.5364  -21.1512  -48.4072 C.3       23 UNK        -0.0398 
     18 CA         -0.5945  -22.5501  -47.7463 C.3       11 UNK         0.1400 
     19 N           0.2716  -22.6606  -46.5668 N.am      11 UNK        -0.5000 
     20 C           0.5574  -23.8176  -45.9508 C.2       10 UNK         0.5000 
     21 O           0.1583  -24.9154  -46.3394 O.2       10 UNK        -0.5000 
     22 CA          1.3787  -23.7296  -44.6538 C.3       10 UNK         0.1400 
     23 CB          2.8825  -23.6365  -44.9541 C.3       10 UNK        -0.1800 
     24 N           0.9600  -22.5998  -43.8235 N.am      10 UNK        -0.5000 
     25 C          -0.1902  -22.5595  -43.1352 C.2       9 UNK         0.5000 
     26 O          -0.9997  -23.4847  -43.1103 O.2       9 UNK        -0.5000 
     27 CA         -0.5178  -21.2534  -42.3875 C.3       9 UNK         0.1400 
     28 CB          0.1734  -21.2252  -41.0165 C.3       9 UNK        -0.1800 
     29 N          -0.1397  -20.0605  -43.1423 N.am      9 UNK        -0.5000 
     30 C          -0.6607  -19.7100  -44.3262 C.2       8 UNK         0.5000 
     31 O          -1.5714  -20.3203  -44.8831 O.2       8 UNK        -0.5000 
     32 CA         -0.0045  -18.5189  -45.0438 C.3       8 UNK         0.1400 
     33 CB         -0.7421  -17.2139  -44.7144 C.3       8 UNK        -0.1800 
     34 N           1.4283  -18.3837  -44.7530 N.am      8 UNK        -0.5000 
     35 C           2.3501  -19.3114  -45.0622 C.2       7 UNK         0.5000 
     36 O           2.0618  -20.4018  -45.5559 O.2       7 UNK        -0.5000 
     37 CA          3.8323  -18.9856  -44.8028 C.3       7 UNK         0.1400 
     38 CB          4.5238  -18.6194  -46.1249 C.3       7 UNK        -0.1800 
     39 N           4.0322  -17.8965  -43.8492 N.am      7 UNK        -0.5000 
     40 C           3.8681  -17.9954  -42.5229 C.2       6 UNK         0.5000 
     41 O           3.5665  -19.0404  -41.9457 O.2       6 UNK        -0.5000 
     42 CA          4.0255  -16.6882  -41.7178 C.3       6 UNK         0.1400 
     43 CB          5.4791  -16.5117  -41.2535 C.3       6 UNK        -0.1800 
     44 N           3.6068  -15.4958  -42.4672 N.am      6 UNK        -0.5000 
     45 C           2.3586  -15.2902  -42.9056 C.2       5 UNK         0.5000 
     46 O           1.4300  -16.0747  -42.6967 O.2       5 UNK        -0.5000 
     47 CA          2.1135  -14.0461  -43.7683 C.3       5 UNK         0.1400 
     48 CB          2.6989  -14.2358  -45.1808 C.3       5 UNK        -0.1800 
     49 N           0.6723  -13.8404  -43.8494 N.am      5 UNK        -0.5000 
     50 C           0.0594  -12.7060  -44.1866 C.2       4 UNK         0.5000 
     51 O           0.6557  -11.6756  -44.5202 O.2       4 UNK        -0.5000 
     52 CA         -1.4777  -12.7264  -44.1421 C.3       4 UNK         0.1400 
     53 CB         -1.9893  -12.8016  -42.6906 C.3       4 UNK        -0.1800 
     54 N          -1.9429  -11.5060  -44.7833 N.am      4 UNK        -0.5000 
     55 C          -3.1810  -11.1709  -45.1575 C.2       3 UNK         0.5000 
     56 O          -4.1571  -11.9084  -45.0163 O.2       3 UNK        -0.5000 
     57 CA         -3.3543   -9.7924  -45.8409 C.3       3 UNK         0.1400 
     58 CB         -4.4557   -8.9475  -45.1688 C.3       3 UNK        -0.1800 
     59 N          -2.0982   -9.0351  -45.9845 N.am      3 UNK        -0.5000 
     60 C          -1.3442   -8.4809  -45.0212 C.2       2 UNK         0.5000 
     61 O          -1.6775   -8.4110  -43.8379 O.2       2 UNK        -0.5000 
     62 CA          0.0663   -8.0436  -45.4579 C.3       2 UNK         0.1400 
     63 CB          0.9131   -7.5019  -44.2920 C.3       2 UNK        -0.1800 
     64 N           0.7545   -9.1973  -46.0423 N.am      2 UNK        -0.5000 
     65 C           0.8775   -9.4399  -47.3512 C.2       1 UNK         0.5000 
     66 O           0.4505   -8.6833  -48.2268 O.2       1 UNK        -0.5000 
     67 C          -2.0506  -22.9728  -47.4476 C.2       11 UNK         0.5000 
     68 O          -2.6853  -23.5963  -48.3007 O.2       11 UNK        -0.5000 
     69 N          -2.5429  -22.6561  -46.2416 N.am      12 UNK        -0.5000 
     70 CA         -3.8343  -23.1068  -45.7268 C.3       12 UNK         0.1400 
     71 CB         -4.2134  -22.2858  -44.4857 C.3       12 UNK        -0.1800 
     72 C          -3.8427  -24.6138  -45.4126 C.2       12 UNK         0.5000 
     73 O          -4.7917  -25.3006  -45.7900 O.2       12 UNK        -0.5000 
     74 N          -2.7816  -25.1094  -44.7562 N.am      13 UNK        -0.5000 
     75 CA         -2.6073  -26.5196  -44.3892 C.3       13 UNK         0.1400 
     76 CB         -1.3604  -26.6826  -43.5083 C.3       13 UNK        -0.1800 
     77 C          -2.5386  -27.4721  -45.5969 C.2       13 UNK         0.5000 
     78 O          -2.9912  -28.6130  -45.4923 O.2       13 UNK        -0.5000 
     79 N          -2.0348  -26.9805  -46.7368 N.am      14 UNK        -0.5000 
     80 CA         -2.0132  -27.6534  -48.0389 C.3       14 UNK         0.1400 
     81 CB         -0.9679  -26.9549  -48.9271 C.3       14 UNK        -0.1800 
     82 C          -3.4089  -27.7123  -48.7065 C.2       14 UNK         0.5000 
     83 O          -3.5532  -27.3405  -49.8728 O.2       14 UNK        -0.5000 
     84 N          -4.4237  -28.1422  -47.9400 N.am      15 UNK        -0.5000 
     85 CA         -5.8448  -28.2843  -48.2918 C.3       15 UNK         0.1400 
     86 CB         -6.0233  -29.4598  -49.2745 C.3       15 UNK        -0.1800 
     87 C          -6.5029  -26.9860  -48.8140 C.2       15 UNK         0.5000 
     88 O          -7.4882  -27.0520  -49.5504 O.2       15 UNK        -0.5000 
     89 N          -5.9106  -25.8340  -48.4650 N.am      16 UNK        -0.5000 
     90 CA         -6.1553  -24.4867  -48.9896 C.3       16 UNK         0.1400 
     91 CB         -7.5488  -23.9800  -48.5703 C.3       16 UNK        -0.1800 
     92 C          -5.9108  -24.3340  -50.5088 C.2       16 UNK         0.5000 
     93 O          -6.2401  -23.2872  -51.0662 O.2       16 UNK        -0.5000 
     94 N          -5.3222  -25.3464  -51.1622 N.am      17 UNK        -0.5000 
     95 CA         -5.0896  -25.3775  -52.6045 C.3       17 UNK         0.1400 
     96 CB         -4.7638  -26.8124  -53.0445 C.3       17 UNK        -0.1800 
     97 C          -3.9753  -24.4081  -53.0168 C.2       17 UNK         0.5000 
     98 O          -4.1270  -23.6889  -54.0032 O.2       17 UNK        -0.5000 
     99 N          -2.9001  -24.3652  -52.2190 N.am      18 UNK        -0.5000 
    100 CA        -1.7929  -23.4262  -52.3891 C.3       18 UNK         0.1400 
    101 CB        -0.6212  -23.8561  -51.4992 C.3       18 UNK        -0.1800 
    102 C         -2.2092  -21.9730  -52.0994 C.2       18 UNK         0.5000 
    103 O         -1.7436  -21.0667  -52.7885 O.2       18 UNK        -0.5000 
    104 N         -3.1103  -21.7815  -51.1241 N.am      19 UNK        -0.5000 
    105 CA        -3.7152  -20.4869  -50.8052 C.3       19 UNK         0.1400 
    106 CB        -4.4661  -20.5779  -49.4671 C.3       19 UNK        -0.1800 
    107 C         -4.6440  -19.9784  -51.9244 C.2       19 UNK         0.5000 
    108 O         -4.6387  -18.7835  -52.2189 O.2       19 UNK        -0.5000 
    109 N         -5.4123  -20.8907  -52.5349 N.am      20 UNK        -0.5000 
    110 CA        -6.2974  -20.6029  -53.6618 C.3       20 UNK         0.1400 
    111 CB        -7.2725  -21.7736  -53.8622 C.3       20 UNK        -0.1800 
    112 C         -5.5253  -20.3043  -54.9595 C.2       20 UNK         0.5000 
    113 O         -5.8523  -19.3358  -55.6468 O.2       20 UNK        -0.5000 
    114 N         -4.5264  -21.1405  -55.2763 N.am      21 UNK        -0.5000 
    115 CA        -3.7056  -21.0251  -56.4820 C.3       21 UNK         0.1400 
    116 CB        -2.9340  -22.3351  -56.7079 C.3       21 UNK        -0.1800 
    117 C         -2.7423  -19.8275  -56.4300 C.2       21 UNK         0.5000 
    118 O         -2.6943  -19.0436  -57.3786 O.2       21 UNK        -0.5000 
    119 N         -1.9995  -19.7117  -55.3217 N.am      22 UNK        -0.5000 
    120 CA        -1.0071  -18.6610  -55.0487 C.3       22 UNK         0.1400 
    121 C          0.2237  -18.6335  -56.0097 C.2       22 UNK         0.5000 
    122 N          0.5453  -19.7259  -56.6928 N.am      22 UNK        -0.7600 
    123 O          0.9149  -17.6253  -56.1267 O.2       22 UNK        -0.5000 
    124 C124       -1.6753  -17.2719  -54.8304 C.3       23 UNK        -0.0398 
    125 S125       -0.9090  -16.3658  -53.4464 S.3       23 UNK        -0.2404 
    126 C126       -1.7952  -17.1243  -52.0511 C.3       23 UNK        -0.0205 
    127 H127        3.8641  -10.2985  -50.9713 H         1 UNK         0.0600 
    128 H128        5.3623  -10.2572  -50.0378 H         1 UNK         0.0600 
    129 H129        4.5078   -8.7548  -50.4051 H         1 UNK         0.0600 
    130 H130        2.1162  -10.9719  -49.7649 H         1 UNK         0.3000 
    131 H131        2.1213  -11.1423  -46.9080 H         1 UNK         0.0600 
    132 H132       -0.2278  -11.4803  -48.8561 H         1 UNK         0.0800 
    133 H133       -0.2059  -11.9713  -47.1808 H         1 UNK         0.0800 
    134 H134       -1.1816  -14.0868  -48.0666 H         1 UNK         0.0800 
    135 H135       -0.0596  -14.8039  -46.9340 H         1 UNK         0.0800 
    136 H136       -1.6044  -15.0781  -50.2666 H         1 UNK         0.1150 
    137 H137       -0.1354  -19.0193  -51.0521 H         1 UNK         0.1150 
    138 H138        1.1964  -16.8825  -47.5724 H         1 UNK         0.1150 
    139 H139        2.5206  -19.0543  -49.2990 H         1 UNK         0.0800 
    140 H140        1.6936  -19.2399  -47.7800 H         1 UNK         0.0800 
    141 H141       -1.3530  -21.0167  -49.1155 H         1 UNK         0.0800 
    142 H142       -0.6527  -20.3653  -47.6612 H         1 UNK         0.0800 
    143 H143       -0.2167  -23.2768  -48.4661 H         1 UNK         0.0600 
    144 H144        0.6847  -21.8059  -46.2097 H         1 UNK         0.3000 
    145 H145        1.2115  -24.6476  -44.0872 H         1 UNK         0.0600 
    146 H146        3.4661  -23.5818  -44.0351 H         1 UNK         0.0600 
    147 H147        3.2211  -24.5166  -45.5021 H         1 UNK         0.0600 
    148 H148        3.1274  -22.7645  -45.5600 H         1 UNK         0.0600 
    149 H149        1.5334  -21.7686  -43.8711 H         1 UNK         0.3000 
    150 H150       -1.5977  -21.2228  -42.2284 H         1 UNK         0.0600 
    151 H151       -0.0969  -22.1008  -40.4247 H         1 UNK         0.0600 
    152 H152       -0.1203  -20.3443  -40.4453 H         1 UNK         0.0600 
    153 H153        1.2601  -21.2152  -41.1127 H         1 UNK         0.0600 
    154 H154        0.6160  -19.5037  -42.7693 H         1 UNK         0.3000 
    155 H155       -0.1013  -18.6900  -46.1164 H         1 UNK         0.0600 
    156 H156       -0.7949  -17.0400  -43.6395 H         1 UNK         0.0600 
    157 H157       -1.7664  -17.2451  -45.0878 H         1 UNK         0.0600 
    158 H158       -0.2541  -16.3562  -45.1746 H         1 UNK         0.0600 
    159 H159        1.7146  -17.5413  -44.2718 H         1 UNK         0.3000 
    160 H160        4.3028  -19.8882  -44.4071 H         1 UNK         0.0600 
    161 H161        4.0955  -17.7195  -46.5686 H         1 UNK         0.0600 
    162 H162        4.4233  -19.4240  -46.8550 H         1 UNK         0.0600 
    163 H163        5.5903  -18.4479  -45.9785 H         1 UNK         0.0600 
    164 H164        4.2877  -16.9990  -44.2333 H         1 UNK         0.3000 
    165 H165        3.3909  -16.7694  -40.8327 H         1 UNK         0.0600 
    166 H166        5.5858  -15.6342  -40.6155 H         1 UNK         0.0600 
    167 H167        5.8114  -17.3747  -40.6747 H         1 UNK         0.0600 
    168 H168        6.1613  -16.3997  -42.0971 H         1 UNK         0.0600 
    169 H169        4.3239  -14.8148  -42.6733 H         1 UNK         0.3000 
    170 H170        2.5782  -13.1865  -43.2809 H         1 UNK         0.0600 
    171 H171        3.7747  -14.4097  -45.1445 H         1 UNK         0.0600 
    172 H172        2.2447  -15.0838  -45.6949 H         1 UNK         0.0600 
    173 H173        2.5410  -13.3509  -45.7963 H         1 UNK         0.0600 
    174 H174        0.1375  -14.6373  -43.5251 H         1 UNK         0.3000 
    175 H175       -1.8341  -13.5867  -44.7119 H         1 UNK         0.0600 
    176 H176       -1.6560  -11.9437  -42.1051 H         1 UNK         0.0600 
    177 H177       -3.0781  -12.8288  -42.6512 H         1 UNK         0.0600 
    178 H178       -1.6303  -13.7015  -42.1901 H         1 UNK         0.0600 
    179 H179       -1.1972  -10.8410  -44.9409 H         1 UNK         0.3000 
    180 H180       -3.6854  -10.0062  -46.8581 H         1 UNK         0.0600 
    181 H181       -4.5633   -7.9783  -45.6557 H         1 UNK         0.0600 
    182 H182       -4.2513   -8.7738  -44.1123 H         1 UNK         0.0600 
    183 H183       -5.4218   -9.4498  -45.2306 H         1 UNK         0.0600 
    184 H184       -1.7151   -9.0279  -46.9206 H         1 UNK         0.3000 
    185 H185       -0.0467   -7.2432  -46.1920 H         1 UNK         0.0600 
    186 H186        1.8978   -7.1863  -44.6369 H         1 UNK         0.0600 
    187 H187        0.4371   -6.6352  -43.8317 H         1 UNK         0.0600 
    188 H188        1.0569   -8.2530  -43.5141 H         1 UNK         0.0600 
    189 H189        1.0527   -9.9145  -45.3868 H         1 UNK         0.3000 
    190 H190       -1.9973  -22.0561  -45.6300 H         1 UNK         0.3000 
    191 H191       -4.5893  -22.9185  -46.4920 H         1 UNK         0.0600 
    192 H192       -5.1823  -22.5965  -44.0928 H         1 UNK         0.0600 
    193 H193       -4.2841  -21.2243  -44.7238 H         1 UNK         0.0600 
    194 H194       -3.4818  -22.3997  -43.6856 H         1 UNK         0.0600 
    195 H195       -2.0648  -24.4701  -44.4265 H         1 UNK         0.3000 
    196 H196       -3.4773  -26.8113  -43.7975 H         1 UNK         0.0600 
    197 H197       -0.4567  -26.3713  -44.0315 H         1 UNK         0.0600 
    198 H198       -1.4423  -26.0952  -42.5940 H         1 UNK         0.0600 
    199 H199       -1.2246  -27.7233  -43.2113 H         1 UNK         0.0600 
    200 H200       -1.6393  -26.0476  -46.7107 H         1 UNK         0.3000 
    201 H201       -1.6885  -28.6848  -47.8889 H         1 UNK         0.0600 
    202 H202       -1.2343  -25.9137  -49.1090 H         1 UNK         0.0600 
    203 H203       -0.8767  -27.4483  -49.8955 H         1 UNK         0.0600 
    204 H204        0.0179  -26.9694  -48.4619 H         1 UNK         0.0600 
    205 H205       -4.1822  -28.4065  -46.9889 H         1 UNK         0.3000 
    206 H206       -6.3655  -28.5375  -47.3675 H         1 UNK         0.0600 
    207 H207       -5.5657  -30.3702  -48.8874 H         1 UNK         0.0600 
    208 H208       -7.0787  -29.6769  -49.4429 H         1 UNK         0.0600 
    209 H209       -5.5737  -29.2448  -50.2447 H         1 UNK         0.0600 
    210 H210       -5.1565  -25.8927  -47.7900 H         1 UNK         0.3000 
    211 H211       -5.4162  -23.8449  -48.5113 H         1 UNK         0.0600 
    212 H212       -7.6788  -22.9290  -48.8311 H         1 UNK         0.0600 
    213 H213       -7.6896  -24.0648  -47.4927 H         1 UNK         0.0600 
    214 H214       -8.3472  -24.5382  -49.0596 H         1 UNK         0.0600 
    215 H215       -4.9946  -26.1478  -50.6328 H         1 UNK         0.3000 
    216 H216       -6.0087  -25.0683  -53.1070 H         1 UNK         0.0600 
    217 H217       -3.8446  -27.1786  -52.5859 H         1 UNK         0.0600 
    218 H218       -4.6354  -26.8679  -54.1262 H         1 UNK         0.0600 
    219 H219       -5.5672  -27.4984  -52.7754 H         1 UNK         0.0600 
    220 H220       -2.8645  -24.9862  -51.4226 H         1 UNK         0.3000 
    221 H221       -1.4623  -23.4711  -53.4290 H         1 UNK         0.0600 
    222 H222       -0.2310  -24.8273  -51.8037 H         1 UNK         0.0600 
    223 H223       -0.9286  -23.9331  -50.4591 H         1 UNK         0.0600 
    224 H224        0.2009  -23.1410  -51.5533 H         1 UNK         0.0600 
    225 H225       -3.4393  -22.5828  -50.6052 H         1 UNK         0.3000 
    226 H226       -2.9101  -19.7593  -50.6868 H         1 UNK         0.0600 
    227 H227       -5.2689  -21.3142  -49.5003 H         1 UNK         0.0600 
    228 H228       -3.7972  -20.8485  -48.6513 H         1 UNK         0.0600 
    229 H229       -4.9149  -19.6180  -49.2087 H         1 UNK         0.0600 
    230 H230       -5.4243  -21.8411  -52.1800 H         1 UNK         0.3000 
    231 H231       -6.8857  -19.7171  -53.4132 H         1 UNK         0.0600 
    232 H232       -6.7479  -22.7052  -54.0759 H         1 UNK         0.0600 
    233 H233       -7.9512  -21.5795  -54.6937 H         1 UNK         0.0600 
    234 H234       -7.8838  -21.9322  -52.9736 H         1 UNK         0.0600 
    235 H235       -4.3509  -21.9476  -54.6826 H         1 UNK         0.3000 
    236 H236       -4.3729  -20.8795  -57.3343 H         1 UNK         0.0600 
    237 H237       -3.6167  -23.1760  -56.8314 H         1 UNK         0.0600 
    238 H238       -2.3214  -22.2788  -57.6085 H         1 UNK         0.0600 
    239 H239       -2.2724  -22.5647  -55.8717 H         1 UNK         0.0600 
    240 H240       -2.1070  -20.3915  -54.5748 H         1 UNK         0.3000 
    241 H241       -0.5738  -18.9750  -54.0989 H         1 UNK         0.0600 
    242 H242        1.3438  -19.7089  -57.3077 H         1 UNK         0.3800 
    243 H243       -0.0014  -20.5669  -56.6030 H         1 UNK         0.3800 
    244 H244       -2.7377  -17.3817  -54.6048 H         1 UNK         0.0800 
    245 H245       -1.6324  -16.6625  -55.7345 H         1 UNK         0.0800 
    246 H246       -2.7543  -16.6238  -51.9093 H         1 UNK         0.0800 
    247 H247       -2.0224  -18.1646  -52.2857 H         1 UNK         0.0800 
@<TRIPOS>BOND
     1    1    2 1    
     2    1  127 1    
     3    1  128 1    
     4    1  129 1    
     5    2    3 2    
     6    2    4 am   BACKBONE|DICT|INTERRES
     7    4    5 1    
     8    4  130 1    
     9    5    6 1    
    10    5   65 1    
    11    5  131 1    
    12    6    7 1    
    13    6  132 1    
    14    6  133 1    
    15    7    8 1    
    16    8    9 1    
    17    8  134 1    
    18    8  135 1    
    19    9   10 ar   
    20    9   14 ar   
    21   10   11 ar   
    22   10  136 1    
    23   11   12 ar   
    24   11  126 1    
    25   12   13 ar   
    26   12  137 1    
    27   13   14 ar   
    28   13   15 1    
    29   14  138 1    
    30   15   16 1    
    31   15  139 1    
    32   15  140 1    
    33   16   17 1    
    34   17   18 1    
    35   17  141 1    
    36   17  142 1    
    37   18   19 1    
    38   18   67 1    
    39   18  143 1    
    40   19   20 am   BACKBONE|DICT|INTERRES
    41   19  144 1    
    42   20   21 2    
    43   20   22 1    
    44   22   23 1    
    45   22   24 1    
    46   22  145 1    
    47   23  146 1    
    48   23  147 1    
    49   23  148 1    
    50   24   25 am   BACKBONE|DICT|INTERRES
    51   24  149 1    
    52   25   26 2    
    53   25   27 1    
    54   27   28 1    
    55   27   29 1    
    56   27  150 1    
    57   28  151 1    
    58   28  152 1    
    59   28  153 1    
    60   29   30 am   BACKBONE|DICT|INTERRES
    61   29  154 1    
    62   30   31 2    
    63   30   32 1    
    64   32   33 1    
    65   32   34 1    
    66   32  155 1    
    67   33  156 1    
    68   33  157 1    
    69   33  158 1    
    70   34   35 am   BACKBONE|DICT|INTERRES
    71   34  159 1    
    72   35   36 2    
    73   35   37 1    
    74   37   38 1    
    75   37   39 1    
    76   37  160 1    
    77   38  161 1    
    78   38  162 1    
    79   38  163 1    
    80   39   40 am   BACKBONE|DICT|INTERRES
    81   39  164 1    
    82   40   41 2    
    83   40   42 1    
    84   42   43 1    
    85   42   44 1    
    86   42  165 1    
    87   43  166 1    
    88   43  167 1    
    89   43  168 1    
    90   44   45 am   BACKBONE|DICT|INTERRES
    91   44  169 1    
    92   45   46 2    
    93   45   47 1    
    94   47   48 1    
    95   47   49 1    
    96   47  170 1    
    97   48  171 1    
    98   48  172 1    
    99   48  173 1    
   100   49   50 am   BACKBONE|DICT|INTERRES
   101   49  174 1    
   102   50   51 2    
   103   50   52 1    
   104   52   53 1    
   105   52   54 1    
   106   52  175 1    
   107   53  176 1    
   108   53  177 1    
   109   53  178 1    
   110   54   55 am   BACKBONE|DICT|INTERRES
   111   54  179 1    
   112   55   56 2    
   113   55   57 1    
   114   57   58 1    
   115   57   59 1    
   116   57  180 1    
   117   58  181 1    
   118   58  182 1    
   119   58  183 1    
   120   59   60 am   BACKBONE|DICT|INTERRES
   121   59  184 1    
   122   60   61 2    
   123   60   62 1    
   124   62   63 1    
   125   62   64 1    
   126   62  185 1    
   127   63  186 1    
   128   63  187 1    
   129   63  188 1    
   130   64   65 am   BACKBONE|DICT|INTERRES
   131   64  189 1    
   132   65   66 2    
   133   67   68 2    
   134   67   69 am   BACKBONE|DICT|INTERRES
   135   69   70 1    
   136   69  190 1    
   137   70   71 1    
   138   70   72 1    
   139   70  191 1    
   140   71  192 1    
   141   71  193 1    
   142   71  194 1    
   143   72   73 2    
   144   72   74 am   BACKBONE|DICT|INTERRES
   145   74   75 1    
   146   74  195 1    
   147   75   76 1    
   148   75   77 1    
   149   75  196 1    
   150   76  197 1    
   151   76  198 1    
   152   76  199 1    
   153   77   78 2    
   154   77   79 am   BACKBONE|DICT|INTERRES
   155   79   80 1    
   156   79  200 1    
   157   80   81 1    
   158   80   82 1    
   159   80  201 1    
   160   81  202 1    
   161   81  203 1    
   162   81  204 1    
   163   82   83 2    
   164   82   84 am   BACKBONE|DICT|INTERRES
   165   84   85 1    
   166   84  205 1    
   167   85   86 1    
   168   85   87 1    
   169   85  206 1    
   170   86  207 1    
   171   86  208 1    
   172   86  209 1    
   173   87   88 2    
   174   87   89 am   BACKBONE|DICT|INTERRES
   175   89   90 1    
   176   89  210 1    
   177   90   91 1    
   178   90   92 1    
   179   90  211 1    
   180   91  212 1    
   181   91  213 1    
   182   91  214 1    
   183   92   93 2    
   184   92   94 am   BACKBONE|DICT|INTERRES
   185   94   95 1    
   186   94  215 1    
   187   95   96 1    
   188   95   97 1    
   189   95  216 1    
   190   96  217 1    
   191   96  218 1    
   192   96  219 1    
   193   97   98 2    
   194   97   99 am   BACKBONE|DICT|INTERRES
   195   99  100 1    
   196   99  220 1    
   197  100  101 1    
   198  100  102 1    
   199  100  221 1    
   200  101  222 1    
   201  101  223 1    
   202  101  224 1    
   203  102  103 2    
   204  102  104 am   BACKBONE|DICT|INTERRES
   205  104  105 1    
   206  104  225 1    
   207  105  106 1    
   208  105  107 1    
   209  105  226 1    
   210  106  227 1    
   211  106  228 1    
   212  106  229 1    
   213  107  108 2    
   214  107  109 am   BACKBONE|DICT|INTERRES
   215  109  110 1    
   216  109  230 1    
   217  110  111 1    
   218  110  112 1    
   219  110  231 1    
   220  111  232 1    
   221  111  233 1    
   222  111  234 1    
   223  112  113 2    
   224  112  114 am   BACKBONE|DICT|INTERRES
   225  114  115 1    
   226  114  235 1    
   227  115  116 1    
   228  115  117 1    
   229  115  236 1    
   230  116  237 1    
   231  116  238 1    
   232  116  239 1    
   233  117  118 2    
   234  117  119 am   BACKBONE|DICT|INTERRES
   235  119  120 1    
   236  119  240 1    
   237  120  121 1    
   238  120  124 1    
   239  120  241 1    
   240  121  122 am   BACKBONE|DICT|INTERRES
   241  121  123 2    
   242  122  242 1    
   243  122  243 1    
   244  124  125 1    
   245  124  244 1    
   246  124  245 1    
   247  125  126 1    
   248  126  246 1    
   249  126  247 1    
@<TRIPOS>SUBSTRUCTURE
     1 UNK         1 GROUP             0       ****    0 ROOT    
