@<TRIPOS>MOLECULE
3R540
247   249    1
SMALL
USER_CHARGES


@<TRIPOS>ATOM
      1 CA         -7.3306  -14.4412  -48.6997 C.3       0 UNK        -0.1800 
      2 C          -5.9234  -14.2103  -48.1671 C.2       0 UNK         0.5000 
      3 O          -5.7254  -13.3384  -47.3207 O.2       0 UNK        -0.5000 
      4 N          -4.9496  -14.9862  -48.6562 N.am      1 UNK        -0.5000 
      5 CA         -3.5678  -14.9915  -48.1807 C.3       1 UNK         0.1400 
      6 C6         -2.5774  -15.4190  -49.2938 C.3       23 UNK        -0.0398 
      7 S7         -0.9042  -14.7760  -48.9642 S.3       23 UNK        -0.2404 
      8 C8         -0.1203  -14.9318  -50.6056 C.3       23 UNK        -0.0205 
      9 C9          0.4647  -16.3039  -50.9500 C.ar      23 UNK        -0.0193 
     10 C10         0.9055  -16.5164  -52.2594 C.ar      23 UNK        -0.1150 
     11 C11         1.5154  -17.7179  -52.6286 C.ar      23 UNK        -0.0193 
     12 C12         1.6767  -18.7269  -51.6763 C.ar      23 UNK        -0.1150 
     13 C13         1.2419  -18.5351  -50.3615 C.ar      23 UNK        -0.0193 
     14 C14         0.6338  -17.3270  -50.0064 C.ar      23 UNK        -0.1150 
     15 C15         1.4890  -19.6116  -49.3156 C.3       23 UNK        -0.0205 
     16 S16         0.3513  -21.0164  -49.4829 S.3       23 UNK        -0.2404 
     17 C17        -1.1345  -20.4620  -48.5806 C.3       23 UNK        -0.0398 
     18 CA         -1.5519  -21.5194  -47.5307 C.3       11 UNK         0.1400 
     19 N          -0.5898  -21.6424  -46.4231 N.am      11 UNK        -0.5000 
     20 C          -0.6128  -22.6012  -45.4835 C.2       10 UNK         0.5000 
     21 O          -1.4799  -23.4732  -45.4180 O.2       10 UNK        -0.5000 
     22 CA          0.4858  -22.5499  -44.4104 C.3       10 UNK         0.1400 
     23 CB          1.8414  -22.9902  -44.9844 C.3       10 UNK        -0.1800 
     24 N           0.5878  -21.2084  -43.8377 N.am      10 UNK        -0.5000 
     25 C          -0.2405  -20.7399  -42.8911 C.2       9 UNK         0.5000 
     26 O          -1.0891  -21.4328  -42.3297 O.2       9 UNK        -0.5000 
     27 CA         -0.1315  -19.2469  -42.5119 C.3       9 UNK         0.1400 
     28 CB          0.7381  -19.0728  -41.2588 C.3       9 UNK        -0.1800 
     29 N           0.3918  -18.3891  -43.5758 N.am      9 UNK        -0.5000 
     30 C          -0.1531  -18.2421  -44.7890 C.2       8 UNK         0.5000 
     31 O          -1.1923  -18.7948  -45.1409 O.2       8 UNK        -0.5000 
     32 CA          0.6260  -17.3863  -45.8005 C.3       8 UNK         0.1400 
     33 CB          0.2416  -15.9105  -45.6650 C.3       8 UNK        -0.1800 
     34 N           2.0839  -17.5145  -45.7099 N.am      8 UNK        -0.5000 
     35 C           2.7695  -18.6631  -45.8031 C.2       7 UNK         0.5000 
     36 O           2.2396  -19.7731  -45.8572 O.2       7 UNK        -0.5000 
     37 CA          4.2961  -18.5499  -45.8749 C.3       7 UNK         0.1400 
     38 CB          4.7137  -18.1972  -47.3185 C.3       7 UNK        -0.1800 
     39 N           4.8037  -17.5699  -44.9109 N.am      7 UNK        -0.5000 
     40 C           6.1007  -17.3742  -44.6311 C.2       6 UNK         0.5000 
     41 O           7.0211  -17.9885  -45.1723 O.2       6 UNK        -0.5000 
     42 CA          6.4412  -16.3241  -43.5554 C.3       6 UNK         0.1400 
     43 CB          6.6374  -14.9429  -44.1992 C.3       6 UNK        -0.1800 
     44 N           5.4399  -16.2149  -42.4951 N.am      6 UNK        -0.5000 
     45 C           5.1186  -17.1837  -41.6266 C.2       5 UNK         0.5000 
     46 O           5.6563  -18.2914  -41.6107 O.2       5 UNK        -0.5000 
     47 CA          4.0153  -16.8683  -40.5961 C.3       5 UNK         0.1400 
     48 CB          4.6205  -16.7086  -39.1926 C.3       5 UNK        -0.1800 
     49 N           3.2089  -15.6799  -40.8954 N.am      5 UNK        -0.5000 
     50 C           2.3818  -15.5441  -41.9388 C.2       4 UNK         0.5000 
     51 O           2.2765  -16.3775  -42.8413 O.2       4 UNK        -0.5000 
     52 CA          1.5368  -14.2577  -41.9772 C.3       4 UNK         0.1400 
     53 CB          1.8733  -13.4008  -43.2078 C.3       4 UNK        -0.1800 
     54 N           0.1027  -14.5560  -41.9389 N.am      4 UNK        -0.5000 
     55 C          -0.5258  -15.0603  -40.8687 C.2       3 UNK         0.5000 
     56 O           0.0514  -15.3341  -39.8156 O.2       3 UNK        -0.5000 
     57 CA         -2.0468  -15.2917  -40.9486 C.3       3 UNK         0.1400 
     58 CB         -2.8185  -14.0290  -40.5190 C.3       3 UNK        -0.1800 
     59 N          -2.5602  -15.8255  -42.2170 N.am      3 UNK        -0.5000 
     60 C          -2.6651  -15.2255  -43.4097 C.2       2 UNK         0.5000 
     61 O          -2.1948  -14.1164  -43.6740 O.2       2 UNK        -0.5000 
     62 CA         -3.4400  -16.0141  -44.4771 C.3       2 UNK         0.1400 
     63 CB         -4.8992  -16.2784  -44.0546 C.3       2 UNK        -0.1800 
     64 N          -3.4339  -15.3083  -45.7529 N.am      2 UNK        -0.5000 
     65 C          -3.4944  -15.9076  -46.9463 C.2       1 UNK         0.5000 
     66 O          -3.5339  -17.1295  -47.0959 O.2       1 UNK        -0.5000 
     67 C          -3.0037  -21.3056  -47.0560 C.2       11 UNK         0.5000 
     68 O          -3.9263  -21.7625  -47.7330 O.2       11 UNK        -0.5000 
     69 N          -3.1816  -20.7024  -45.8724 N.am      12 UNK        -0.5000 
     70 CA         -4.4467  -20.5799  -45.1443 C.3       12 UNK         0.1400 
     71 CB         -4.1808  -19.9175  -43.7849 C.3       12 UNK        -0.1800 
     72 C          -5.1770  -21.9204  -44.9292 C.2       12 UNK         0.5000 
     73 O          -6.4069  -21.9484  -44.9662 O.2       12 UNK        -0.5000 
     74 N          -4.4077  -22.9981  -44.7279 N.am      13 UNK        -0.5000 
     75 CA         -4.9089  -24.3594  -44.5709 C.3       13 UNK         0.1400 
     76 CB         -4.1743  -25.0332  -43.4008 C.3       13 UNK        -0.1800 
     77 C          -4.7223  -25.1673  -45.8643 C.2       13 UNK         0.5000 
     78 O          -5.6672  -25.8148  -46.3148 O.2       13 UNK        -0.5000 
     79 N          -3.5110  -25.1209  -46.4370 N.am      14 UNK        -0.5000 
     80 CA         -3.0830  -25.9620  -47.5573 C.3       14 UNK         0.1400 
     81 CB         -1.5567  -25.8626  -47.7068 C.3       14 UNK        -0.1800 
     82 C          -3.7733  -25.6425  -48.8948 C.2       14 UNK         0.5000 
     83 O          -3.9421  -26.5487  -49.7117 O.2       14 UNK        -0.5000 
     84 N          -4.1538  -24.3760  -49.0970 N.am      15 UNK        -0.5000 
     85 CA         -4.8064  -23.8827  -50.3102 C.3       15 UNK         0.1400 
     86 CB         -3.8027  -23.0193  -51.0945 C.3       15 UNK        -0.1800 
     87 C          -6.0978  -23.1111  -49.9875 C.2       15 UNK         0.5000 
     88 O          -6.6171  -22.4187  -50.8610 O.2       15 UNK        -0.5000 
     89 N          -6.5892  -23.2146  -48.7420 N.am      16 UNK        -0.5000 
     90 CA         -7.7693  -22.5235  -48.2036 C.3       16 UNK         0.1400 
     91 CB         -9.0582  -23.1077  -48.8181 C.3       16 UNK        -0.1800 
     92 C          -7.6877  -20.9836  -48.3325 C.2       16 UNK         0.5000 
     93 O          -8.7024  -20.3280  -48.5736 O.2       16 UNK        -0.5000 
     94 N          -6.4654  -20.4498  -48.1946 N.am      17 UNK        -0.5000 
     95 CA         -6.0607  -19.0471  -48.3322 C.3       17 UNK         0.1400 
     96 CB         -6.8677  -18.1229  -47.3949 C.3       17 UNK        -0.1800 
     97 C          -6.0258  -18.5262  -49.7844 C.2       17 UNK         0.5000 
     98 O          -5.7661  -17.3384  -49.9855 O.2       17 UNK        -0.5000 
     99 N          -6.2467  -19.3974  -50.7779 N.am      18 UNK        -0.5000 
    100 CA        -6.0551  -19.0834  -52.1936 C.3       18 UNK         0.1400 
    101 CB        -6.9245  -20.0273  -53.0420 C.3       18 UNK        -0.1800 
    102 C         -4.5690  -19.1956  -52.5885 C.2       18 UNK         0.5000 
    103 O         -3.7375  -19.6370  -51.7908 O.2       18 UNK        -0.5000 
    104 N         -4.2647  -18.8046  -53.8319 N.am      19 UNK        -0.5000 
    105 CA        -2.9510  -18.9567  -54.4535 C.3       19 UNK         0.1400 
    106 CB        -2.9478  -18.2058  -55.7957 C.3       19 UNK        -0.1800 
    107 C         -2.6087  -20.4459  -54.6505 C.2       19 UNK         0.5000 
    108 O         -3.2908  -21.1331  -55.4145 O.2       19 UNK        -0.5000 
    109 N         -1.5643  -20.9191  -53.9632 N.am      20 UNK        -0.5000 
    110 CA        -1.0940  -22.3047  -53.9707 C.3       20 UNK         0.1400 
    111 CB        -0.3223  -22.5601  -52.6650 C.3       20 UNK        -0.1800 
    112 C         -0.2551  -22.6254  -55.2256 C.2       20 UNK         0.5000 
    113 O          0.9143  -22.9961  -55.1070 O.2       20 UNK        -0.5000 
    114 N         -0.8698  -22.4574  -56.4066 N.am      21 UNK        -0.5000 
    115 CA        -0.2895  -22.6325  -57.7450 C.3       21 UNK         0.1400 
    116 CB         0.0045  -24.1219  -58.0216 C.3       21 UNK        -0.1800 
    117 C          0.9334  -21.7174  -57.9734 C.2       21 UNK         0.5000 
    118 O          1.9856  -22.1735  -58.4250 O.2       21 UNK        -0.5000 
    119 N          0.7664  -20.4386  -57.6142 N.am      22 UNK        -0.5000 
    120 CA         1.8187  -19.4081  -57.5883 C.3       22 UNK         0.1400 
    121 C          2.3804  -18.9848  -58.9789 C.2       22 UNK         0.5000 
    122 N          1.7359  -19.3181  -60.0904 N.am      22 UNK        -0.7600 
    123 O          3.4235  -18.3405  -59.0488 O.2       22 UNK        -0.5000 
    124 C124        1.3682  -18.1551  -56.7927 C.3       23 UNK        -0.0398 
    125 S125        0.7100  -18.5329  -55.1302 S.3       23 UNK        -0.2404 
    126 C126        2.0243  -17.9022  -54.0491 C.3       23 UNK        -0.0205 
    127 H127       -7.9738  -14.8200  -47.9054 H         1 UNK         0.0600 
    128 H128       -7.3418  -15.1607  -49.5185 H         1 UNK         0.0600 
    129 H129       -7.7527  -13.5056  -49.0663 H         1 UNK         0.0600 
    130 H130       -5.1990  -15.7522  -49.2808 H         1 UNK         0.3000 
    131 H131       -3.3114  -13.9732  -47.8787 H         1 UNK         0.0600 
    132 H132       -2.5428  -16.5017  -49.4319 H         1 UNK         0.0800 
    133 H133       -2.9058  -15.0070  -50.2489 H         1 UNK         0.0800 
    134 H134        0.6927  -14.2060  -50.6506 H         1 UNK         0.0800 
    135 H135       -0.8341  -14.6334  -51.3747 H         1 UNK         0.0800 
    136 H136        0.7919  -15.7320  -52.9949 H         1 UNK         0.1150 
    137 H137        2.1548  -19.6563  -51.9526 H         1 UNK         0.1150 
    138 H138        0.3204  -17.1819  -48.9853 H         1 UNK         0.1150 
    139 H139        2.5097  -19.9811  -49.4209 H         1 UNK         0.0800 
    140 H140        1.4193  -19.2004  -48.3112 H         1 UNK         0.0800 
    141 H141       -1.9228  -20.3122  -49.3218 H         1 UNK         0.0800 
    142 H142       -0.9678  -19.4917  -48.1103 H         1 UNK         0.0800 
    143 H143       -1.5619  -22.4870  -48.0362 H         1 UNK         0.0600 
    144 H144        0.1523  -20.9567  -46.3920 H         1 UNK         0.3000 
    145 H145        0.2189  -23.2553  -43.6203 H         1 UNK         0.0600 
    146 H146        2.6246  -22.9410  -44.2278 H         1 UNK         0.0600 
    147 H147        1.7938  -24.0211  -45.3371 H         1 UNK         0.0600 
    148 H148        2.1517  -22.3742  -45.8284 H         1 UNK         0.0600 
    149 H149        1.2336  -20.5711  -44.2915 H         1 UNK         0.3000 
    150 H150       -1.1397  -18.8984  -42.2794 H         1 UNK         0.0600 
    151 H151        0.3629  -19.6787  -40.4332 H         1 UNK         0.0600 
    152 H152        0.7437  -18.0361  -40.9222 H         1 UNK         0.0600 
    153 H153        1.7695  -19.3733  -41.4462 H         1 UNK         0.0600 
    154 H154        1.2242  -17.8449  -43.3617 H         1 UNK         0.3000 
    155 H155        0.3349  -17.7209  -46.7955 H         1 UNK         0.0600 
    156 H156        0.3119  -15.5752  -44.6323 H         1 UNK         0.0600 
    157 H157        0.8699  -15.2677  -46.2816 H         1 UNK         0.0600 
    158 H158       -0.7847  -15.7534  -45.9851 H         1 UNK         0.0600 
    159 H159        2.5981  -16.6478  -45.6678 H         1 UNK         0.3000 
    160 H160        4.7082  -19.5277  -45.6170 H         1 UNK         0.0600 
    161 H161        4.3997  -17.1897  -47.5936 H         1 UNK         0.0600 
    162 H162        4.2657  -18.8868  -48.0346 H         1 UNK         0.0600 
    163 H163        5.7922  -18.2600  -47.4581 H         1 UNK         0.0600 
    164 H164        4.1118  -17.0823  -44.3559 H         1 UNK         0.3000 
    165 H165        7.3842  -16.6221  -43.0923 H         1 UNK         0.0600 
    166 H166        6.9677  -14.2079  -43.4649 H         1 UNK         0.0600 
    167 H167        7.3960  -14.9810  -44.9823 H         1 UNK         0.0600 
    168 H168        5.7159  -14.5753  -44.6526 H         1 UNK         0.0600 
    169 H169        4.9487  -15.3367  -42.4231 H         1 UNK         0.3000 
    170 H170        3.3438  -17.7279  -40.5779 H         1 UNK         0.0600 
    171 H171        5.1984  -17.5899  -38.9109 H         1 UNK         0.0600 
    172 H172        5.2877  -15.8475  -39.1387 H         1 UNK         0.0600 
    173 H173        3.8426  -16.5800  -38.4396 H         1 UNK         0.0600 
    174 H174        3.2292  -14.9488  -40.1990 H         1 UNK         0.3000 
    175 H175        1.7695  -13.6585  -41.0942 H         1 UNK         0.0600 
    176 H176        1.7383  -13.9409  -44.1428 H         1 UNK         0.0600 
    177 H177        1.2538  -12.5046  -43.2463 H         1 UNK         0.0600 
    178 H178        2.9132  -13.0736  -43.1754 H         1 UNK         0.0600 
    179 H179       -0.4521  -14.3361  -42.7593 H         1 UNK         0.3000 
    180 H180       -2.2695  -16.0642  -40.2106 H         1 UNK         0.0600 
    181 H181       -3.8923  -14.2136  -40.4891 H         1 UNK         0.0600 
    182 H182       -2.6399  -13.1915  -41.1938 H         1 UNK         0.0600 
    183 H183       -2.5164  -13.7099  -39.5207 H         1 UNK         0.0600 
    184 H184       -2.9512  -16.7531  -42.1361 H         1 UNK         0.3000 
    185 H185       -2.9222  -16.9640  -44.5974 H         1 UNK         0.0600 
    186 H186       -4.9566  -16.8233  -43.1122 H         1 UNK         0.0600 
    187 H187       -5.4528  -15.3469  -43.9308 H         1 UNK         0.0600 
    188 H188       -5.4212  -16.8791  -44.7997 H         1 UNK         0.0600 
    189 H189       -3.3661  -14.3008  -45.6858 H         1 UNK         0.3000 
    190 H190       -2.3732  -20.2597  -45.4433 H         1 UNK         0.3000 
    191 H191       -5.0978  -19.9257  -45.7224 H         1 UNK         0.0600 
    192 H192       -3.5690  -20.5513  -43.1423 H         1 UNK         0.0600 
    193 H193       -5.1147  -19.7176  -43.2581 H         1 UNK         0.0600 
    194 H194       -3.6626  -18.9693  -43.9009 H         1 UNK         0.0600 
    195 H195       -3.4008  -22.8886  -44.7559 H         1 UNK         0.3000 
    196 H196       -5.9748  -24.3495  -44.3333 H         1 UNK         0.0600 
    197 H197       -4.5159  -26.0599  -43.2636 H         1 UNK         0.0600 
    198 H198       -4.3572  -24.5021  -42.4665 H         1 UNK         0.0600 
    199 H199       -3.0956  -25.0630  -43.5604 H         1 UNK         0.0600 
    200 H200       -2.7852  -24.5488  -46.0092 H         1 UNK         0.3000 
    201 H201       -3.3283  -26.9958  -47.3052 H         1 UNK         0.0600 
    202 H202       -1.0501  -26.1519  -46.7859 H         1 UNK         0.0600 
    203 H203       -1.2407  -24.8501  -47.9579 H         1 UNK         0.0600 
    204 H204       -1.1972  -26.5231  -48.4968 H         1 UNK         0.0600 
    205 H205       -3.9760  -23.6785  -48.3818 H         1 UNK         0.3000 
    206 H206       -5.1098  -24.7140  -50.9493 H         1 UNK         0.0600 
    207 H207       -2.9221  -23.6010  -51.3644 H         1 UNK         0.0600 
    208 H208       -4.2361  -22.6420  -52.0217 H         1 UNK         0.0600 
    209 H209       -3.4724  -22.1578  -50.5129 H         1 UNK         0.0600 
    210 H210       -6.1035  -23.8215  -48.0969 H         1 UNK         0.3000 
    211 H211       -7.7900  -22.7389  -47.1350 H         1 UNK         0.0600 
    212 H212       -9.1367  -22.8836  -49.8824 H         1 UNK         0.0600 
    213 H213       -9.9445  -22.6992  -48.3313 H         1 UNK         0.0600 
    214 H214       -9.0953  -24.1906  -48.6996 H         1 UNK         0.0600 
    215 H215       -5.6913  -21.0910  -48.0395 H         1 UNK         0.3000 
    216 H216       -5.0241  -19.0265  -47.9979 H         1 UNK         0.0600 
    217 H217       -6.3940  -17.1454  -47.3126 H         1 UNK         0.0600 
    218 H218       -6.9342  -18.5321  -46.3873 H         1 UNK         0.0600 
    219 H219       -7.8819  -17.9595  -47.7594 H         1 UNK         0.0600 
    220 H220       -6.4121  -20.3730  -50.5572 H         1 UNK         0.3000 
    221 H221       -6.3837  -18.0586  -52.3790 H         1 UNK         0.0600 
    222 H222       -6.5304  -21.0437  -53.0488 H         1 UNK         0.0600 
    223 H223       -7.9489  -20.0662  -52.6710 H         1 UNK         0.0600 
    224 H224       -6.9696  -19.6931  -54.0788 H         1 UNK         0.0600 
    225 H225       -5.0051  -18.4778  -54.4348 H         1 UNK         0.3000 
    226 H226       -2.2036  -18.4988  -53.8015 H         1 UNK         0.0600 
    227 H227       -3.1018  -17.1368  -55.6484 H         1 UNK         0.0600 
    228 H228       -1.9973  -18.3273  -56.3148 H         1 UNK         0.0600 
    229 H229       -3.7300  -18.5688  -56.4637 H         1 UNK         0.0600 
    230 H230       -1.0439  -20.2821  -53.3770 H         1 UNK         0.3000 
    231 H231       -1.9596  -22.9706  -53.9787 H         1 UNK         0.0600 
    232 H232        0.0023  -23.5989  -52.5952 H         1 UNK         0.0600 
    233 H233       -0.9466  -22.3573  -51.7960 H         1 UNK         0.0600 
    234 H234        0.5647  -21.9295  -52.5907 H         1 UNK         0.0600 
    235 H235       -1.8281  -22.1223  -56.3762 H         1 UNK         0.3000 
    236 H236       -1.0506  -22.3106  -58.4571 H         1 UNK         0.0600 
    237 H237        0.3327  -24.2699  -59.0510 H         1 UNK         0.0600 
    238 H238        0.7880  -24.5101  -57.3701 H         1 UNK         0.0600 
    239 H239       -0.8862  -24.7327  -57.8749 H         1 UNK         0.0600 
    240 H240       -0.1248  -20.1609  -57.2324 H         1 UNK         0.3000 
    241 H241        2.6627  -19.8444  -57.0506 H         1 UNK         0.0600 
    242 H242        2.1106  -19.0418  -60.9846 H         1 UNK         0.3800 
    243 H243        0.8830  -19.8524  -60.0478 H         1 UNK         0.3800 
    244 H244        2.1938  -17.4474  -56.7016 H         1 UNK         0.0800 
    245 H245        0.5851  -17.6278  -57.3403 H         1 UNK         0.0800 
    246 H246        2.3913  -16.9466  -54.4266 H         1 UNK         0.0800 
    247 H247        2.8713  -18.5898  -54.0685 H         1 UNK         0.0800 
@<TRIPOS>BOND
     1    1    2 1    
     2    1  127 1    
     3    1  128 1    
     4    1  129 1    
     5    2    3 2    
     6    2    4 am   BACKBONE|DICT|INTERRES
     7    4    5 1    
     8    4  130 1    
     9    5    6 1    
    10    5   65 1    
    11    5  131 1    
    12    6    7 1    
    13    6  132 1    
    14    6  133 1    
    15    7    8 1    
    16    8    9 1    
    17    8  134 1    
    18    8  135 1    
    19    9   10 ar   
    20    9   14 ar   
    21   10   11 ar   
    22   10  136 1    
    23   11   12 ar   
    24   11  126 1    
    25   12   13 ar   
    26   12  137 1    
    27   13   14 ar   
    28   13   15 1    
    29   14  138 1    
    30   15   16 1    
    31   15  139 1    
    32   15  140 1    
    33   16   17 1    
    34   17   18 1    
    35   17  141 1    
    36   17  142 1    
    37   18   19 1    
    38   18   67 1    
    39   18  143 1    
    40   19   20 am   BACKBONE|DICT|INTERRES
    41   19  144 1    
    42   20   21 2    
    43   20   22 1    
    44   22   23 1    
    45   22   24 1    
    46   22  145 1    
    47   23  146 1    
    48   23  147 1    
    49   23  148 1    
    50   24   25 am   BACKBONE|DICT|INTERRES
    51   24  149 1    
    52   25   26 2    
    53   25   27 1    
    54   27   28 1    
    55   27   29 1    
    56   27  150 1    
    57   28  151 1    
    58   28  152 1    
    59   28  153 1    
    60   29   30 am   BACKBONE|DICT|INTERRES
    61   29  154 1    
    62   30   31 2    
    63   30   32 1    
    64   32   33 1    
    65   32   34 1    
    66   32  155 1    
    67   33  156 1    
    68   33  157 1    
    69   33  158 1    
    70   34   35 am   BACKBONE|DICT|INTERRES
    71   34  159 1    
    72   35   36 2    
    73   35   37 1    
    74   37   38 1    
    75   37   39 1    
    76   37  160 1    
    77   38  161 1    
    78   38  162 1    
    79   38  163 1    
    80   39   40 am   BACKBONE|DICT|INTERRES
    81   39  164 1    
    82   40   41 2    
    83   40   42 1    
    84   42   43 1    
    85   42   44 1    
    86   42  165 1    
    87   43  166 1    
    88   43  167 1    
    89   43  168 1    
    90   44   45 am   BACKBONE|DICT|INTERRES
    91   44  169 1    
    92   45   46 2    
    93   45   47 1    
    94   47   48 1    
    95   47   49 1    
    96   47  170 1    
    97   48  171 1    
    98   48  172 1    
    99   48  173 1    
   100   49   50 am   BACKBONE|DICT|INTERRES
   101   49  174 1    
   102   50   51 2    
   103   50   52 1    
   104   52   53 1    
   105   52   54 1    
   106   52  175 1    
   107   53  176 1    
   108   53  177 1    
   109   53  178 1    
   110   54   55 am   BACKBONE|DICT|INTERRES
   111   54  179 1    
   112   55   56 2    
   113   55   57 1    
   114   57   58 1    
   115   57   59 1    
   116   57  180 1    
   117   58  181 1    
   118   58  182 1    
   119   58  183 1    
   120   59   60 am   BACKBONE|DICT|INTERRES
   121   59  184 1    
   122   60   61 2    
   123   60   62 1    
   124   62   63 1    
   125   62   64 1    
   126   62  185 1    
   127   63  186 1    
   128   63  187 1    
   129   63  188 1    
   130   64   65 am   BACKBONE|DICT|INTERRES
   131   64  189 1    
   132   65   66 2    
   133   67   68 2    
   134   67   69 am   BACKBONE|DICT|INTERRES
   135   69   70 1    
   136   69  190 1    
   137   70   71 1    
   138   70   72 1    
   139   70  191 1    
   140   71  192 1    
   141   71  193 1    
   142   71  194 1    
   143   72   73 2    
   144   72   74 am   BACKBONE|DICT|INTERRES
   145   74   75 1    
   146   74  195 1    
   147   75   76 1    
   148   75   77 1    
   149   75  196 1    
   150   76  197 1    
   151   76  198 1    
   152   76  199 1    
   153   77   78 2    
   154   77   79 am   BACKBONE|DICT|INTERRES
   155   79   80 1    
   156   79  200 1    
   157   80   81 1    
   158   80   82 1    
   159   80  201 1    
   160   81  202 1    
   161   81  203 1    
   162   81  204 1    
   163   82   83 2    
   164   82   84 am   BACKBONE|DICT|INTERRES
   165   84   85 1    
   166   84  205 1    
   167   85   86 1    
   168   85   87 1    
   169   85  206 1    
   170   86  207 1    
   171   86  208 1    
   172   86  209 1    
   173   87   88 2    
   174   87   89 am   BACKBONE|DICT|INTERRES
   175   89   90 1    
   176   89  210 1    
   177   90   91 1    
   178   90   92 1    
   179   90  211 1    
   180   91  212 1    
   181   91  213 1    
   182   91  214 1    
   183   92   93 2    
   184   92   94 am   BACKBONE|DICT|INTERRES
   185   94   95 1    
   186   94  215 1    
   187   95   96 1    
   188   95   97 1    
   189   95  216 1    
   190   96  217 1    
   191   96  218 1    
   192   96  219 1    
   193   97   98 2    
   194   97   99 am   BACKBONE|DICT|INTERRES
   195   99  100 1    
   196   99  220 1    
   197  100  101 1    
   198  100  102 1    
   199  100  221 1    
   200  101  222 1    
   201  101  223 1    
   202  101  224 1    
   203  102  103 2    
   204  102  104 am   BACKBONE|DICT|INTERRES
   205  104  105 1    
   206  104  225 1    
   207  105  106 1    
   208  105  107 1    
   209  105  226 1    
   210  106  227 1    
   211  106  228 1    
   212  106  229 1    
   213  107  108 2    
   214  107  109 am   BACKBONE|DICT|INTERRES
   215  109  110 1    
   216  109  230 1    
   217  110  111 1    
   218  110  112 1    
   219  110  231 1    
   220  111  232 1    
   221  111  233 1    
   222  111  234 1    
   223  112  113 2    
   224  112  114 am   BACKBONE|DICT|INTERRES
   225  114  115 1    
   226  114  235 1    
   227  115  116 1    
   228  115  117 1    
   229  115  236 1    
   230  116  237 1    
   231  116  238 1    
   232  116  239 1    
   233  117  118 2    
   234  117  119 am   BACKBONE|DICT|INTERRES
   235  119  120 1    
   236  119  240 1    
   237  120  121 1    
   238  120  124 1    
   239  120  241 1    
   240  121  122 am   BACKBONE|DICT|INTERRES
   241  121  123 2    
   242  122  242 1    
   243  122  243 1    
   244  124  125 1    
   245  124  244 1    
   246  124  245 1    
   247  125  126 1    
   248  126  246 1    
   249  126  247 1    
@<TRIPOS>SUBSTRUCTURE
     1 UNK         1 GROUP             0       ****    0 ROOT    
