@<TRIPOS>MOLECULE
3R540
247   249    1
SMALL
USER_CHARGES


@<TRIPOS>ATOM
      1 CA          6.0569  -13.1340  -45.0675 C.3       0 UNK        -0.1800 
      2 C           4.8583  -12.5228  -45.7776 C.2       0 UNK         0.5000 
      3 O           4.9193  -11.3662  -46.1952 O.2       0 UNK        -0.5000 
      4 N           3.7681  -13.2902  -45.8979 N.am      1 UNK        -0.5000 
      5 CA          2.5055  -12.9486  -46.5638 C.3       1 UNK         0.1400 
      6 C6          2.6337  -12.7216  -48.0956 C.3       23 UNK        -0.0398 
      7 S7          3.2868  -14.1774  -48.9780 S.3       23 UNK        -0.2404 
      8 C8          1.7517  -15.0899  -49.3212 C.3       23 UNK        -0.0205 
      9 C9          2.0024  -16.2611  -50.2571 C.ar      23 UNK        -0.0193 
     10 C10         1.6124  -16.1892  -51.5978 C.ar      23 UNK        -0.1150 
     11 C11         1.8402  -17.2642  -52.4618 C.ar      23 UNK        -0.0193 
     12 C12         2.4620  -18.4166  -51.9738 C.ar      23 UNK        -0.1150 
     13 C13         2.8497  -18.5066  -50.6343 C.ar      23 UNK        -0.0193 
     14 C14         2.6224  -17.4201  -49.7820 C.ar      23 UNK        -0.1150 
     15 C15         3.5261  -19.7777  -50.1315 C.3       23 UNK        -0.0205 
     16 S16         2.8527  -20.3849  -48.5511 S.3       23 UNK        -0.2404 
     17 C17         1.0689  -20.5044  -48.9219 C.3       23 UNK        -0.0398 
     18 CA          0.4113  -21.6944  -48.1906 C.3       11 UNK         0.1400 
     19 N           0.4460  -21.5517  -46.7311 N.am      11 UNK        -0.5000 
     20 C           0.1602  -22.5391  -45.8719 C.2       10 UNK         0.5000 
     21 O          -0.1495  -23.6783  -46.2210 O.2       10 UNK        -0.5000 
     22 CA          0.1795  -22.1887  -44.3739 C.3       10 UNK         0.1400 
     23 CB          1.6196  -22.1231  -43.8440 C.3       10 UNK        -0.1800 
     24 N          -0.5197  -20.9377  -44.0773 N.am      10 UNK        -0.5000 
     25 C          -1.8320  -20.7412  -44.2709 C.2       9 UNK         0.5000 
     26 O          -2.5967  -21.6085  -44.6922 O.2       9 UNK        -0.5000 
     27 CA         -2.3793  -19.3298  -43.9895 C.3       9 UNK         0.1400 
     28 CB         -2.5913  -19.1142  -42.4840 C.3       9 UNK        -0.1800 
     29 N          -1.5222  -18.2715  -44.5232 N.am      9 UNK        -0.5000 
     30 C          -1.2357  -18.1065  -45.8225 C.2       8 UNK         0.5000 
     31 O          -1.6952  -18.8092  -46.7206 O.2       8 UNK        -0.5000 
     32 CA         -0.2172  -17.0080  -46.1722 C.3       8 UNK         0.1400 
     33 CB         -0.8848  -15.6238  -46.1868 C.3       8 UNK        -0.1800 
     34 N           0.9294  -17.0055  -45.2616 N.am      8 UNK        -0.5000 
     35 C           1.7853  -18.0309  -45.1330 C.2       7 UNK         0.5000 
     36 O           1.7156  -19.0664  -45.7915 O.2       7 UNK        -0.5000 
     37 CA          2.8553  -17.9041  -44.0377 C.3       7 UNK         0.1400 
     38 CB          4.0125  -17.0060  -44.5011 C.3       7 UNK        -0.1800 
     39 N           2.2842  -17.3904  -42.7925 N.am      7 UNK        -0.5000 
     40 C           1.4455  -18.0927  -42.0135 C.2       6 UNK         0.5000 
     41 O           1.1124  -19.2541  -42.2473 O.2       6 UNK        -0.5000 
     42 CA          0.8411  -17.3731  -40.7920 C.3       6 UNK         0.1400 
     43 CB          1.7424  -17.5546  -39.5620 C.3       6 UNK        -0.1800 
     44 N           0.6172  -15.9456  -41.0162 N.am      6 UNK        -0.5000 
     45 C          -0.1894  -15.4295  -41.9543 C.2       5 UNK         0.5000 
     46 O          -0.9070  -16.1126  -42.6844 O.2       5 UNK        -0.5000 
     47 CA         -0.1477  -13.9004  -42.1452 C.3       5 UNK         0.1400 
     48 CB         -1.3289  -13.2364  -41.4230 C.3       5 UNK        -0.1800 
     49 N           1.1037  -13.2754  -41.6985 N.am      5 UNK        -0.5000 
     50 C           2.3171  -13.5422  -42.1996 C.2       4 UNK         0.5000 
     51 O           2.5246  -14.3634  -43.0958 O.2       4 UNK        -0.5000 
     52 CA          3.4871  -12.7563  -41.6005 C.3       4 UNK         0.1400 
     53 CB          4.7603  -13.6174  -41.4861 C.3       4 UNK        -0.1800 
     54 N           3.7271  -11.5879  -42.4391 N.am      4 UNK        -0.5000 
     55 C           4.3459  -10.4692  -42.0403 C.2       3 UNK         0.5000 
     56 O           4.7867  -10.3077  -40.9015 O.2       3 UNK        -0.5000 
     57 CA          4.5111   -9.3361  -43.0719 C.3       3 UNK         0.1400 
     58 CB          5.9680   -9.2509  -43.5538 C.3       3 UNK        -0.1800 
     59 N           3.6353   -9.4872  -44.2352 N.am      3 UNK        -0.5000 
     60 C           2.3661   -9.0571  -44.2897 C.2       2 UNK         0.5000 
     61 O           1.8013   -8.4762  -43.3625 O.2       2 UNK        -0.5000 
     62 CA          1.5929   -9.3289  -45.5952 C.3       2 UNK         0.1400 
     63 CB          1.7239   -8.1386  -46.5573 C.3       2 UNK        -0.1800 
     64 N           2.0517  -10.5428  -46.2710 N.am      2 UNK        -0.5000 
     65 C           1.8013  -11.7850  -45.8370 C.2       1 UNK         0.5000 
     66 O           1.0739  -12.0288  -44.8759 O.2       1 UNK        -0.5000 
     67 C          -1.0152  -21.9459  -48.7179 C.2       11 UNK         0.5000 
     68 O          -1.1724  -22.7152  -49.6673 O.2       11 UNK        -0.5000 
     69 N          -2.0289  -21.3309  -48.0918 N.am      12 UNK        -0.5000 
     70 CA         -3.4389  -21.5764  -48.3855 C.3       12 UNK         0.1400 
     71 CB         -4.3183  -20.5190  -47.7033 C.3       12 UNK        -0.1800 
     72 C          -3.8669  -22.9929  -47.9729 C.2       12 UNK         0.5000 
     73 O          -4.5090  -23.6795  -48.7664 O.2       12 UNK        -0.5000 
     74 N          -3.4790  -23.4250  -46.7643 N.am      13 UNK        -0.5000 
     75 CA         -3.7347  -24.7677  -46.2369 C.3       13 UNK         0.1400 
     76 CB         -3.2681  -24.8523  -44.7764 C.3       13 UNK        -0.1800 
     77 C          -3.0864  -25.8757  -47.0864 C.2       13 UNK         0.5000 
     78 O          -3.7420  -26.8769  -47.3778 O.2       13 UNK        -0.5000 
     79 N          -1.8403  -25.6465  -47.5258 N.am      14 UNK        -0.5000 
     80 CA         -1.1031  -26.5102  -48.4533 C.3       14 UNK         0.1400 
     81 CB          0.3381  -25.9961  -48.5849 C.3       14 UNK        -0.1800 
     82 C          -1.7641  -26.6218  -49.8427 C.2       14 UNK         0.5000 
     83 O          -1.6337  -27.6569  -50.4962 O.2       14 UNK        -0.5000 
     84 N          -2.4922  -25.5738  -50.2461 N.am      15 UNK        -0.5000 
     85 CA         -3.2939  -25.5011  -51.4657 C.3       15 UNK         0.1400 
     86 CB         -3.1823  -24.0805  -52.0419 C.3       15 UNK        -0.1800 
     87 C          -4.7624  -25.9154  -51.2350 C.2       15 UNK         0.5000 
     88 O          -5.6270  -25.5054  -52.0084 O.2       15 UNK        -0.5000 
     89 N          -5.0289  -26.7082  -50.1850 N.am      16 UNK        -0.5000 
     90 CA         -6.3287  -27.2807  -49.8150 C.3       16 UNK         0.1400 
     91 CB         -6.7870  -28.3109  -50.8690 C.3       16 UNK        -0.1800 
     92 C          -7.3940  -26.2061  -49.5148 C.2       16 UNK         0.5000 
     93 O          -8.5140  -26.2800  -50.0230 O.2       16 UNK        -0.5000 
     94 N          -7.0012  -25.2216  -48.6947 N.am      17 UNK        -0.5000 
     95 CA         -7.7511  -24.0170  -48.3243 C.3       17 UNK         0.1400 
     96 CB         -9.0700  -24.3598  -47.5990 C.3       17 UNK        -0.1800 
     97 C          -7.9277  -23.0680  -49.5267 C.2       17 UNK         0.5000 
     98 O          -9.0279  -22.5723  -49.7764 O.2       17 UNK        -0.5000 
     99 N          -6.8119  -22.8369  -50.2339 N.am      18 UNK        -0.5000 
    100 CA        -6.6470  -21.9645  -51.3986 C.3       18 UNK         0.1400 
    101 CB        -6.7779  -20.4841  -50.9829 C.3       18 UNK        -0.1800 
    102 C         -7.5683  -22.3491  -52.5749 C.2       18 UNK         0.5000 
    103 O         -8.2931  -21.5034  -53.1055 O.2       18 UNK        -0.5000 
    104 N         -7.5342  -23.6313  -52.9606 N.am      19 UNK        -0.5000 
    105 CA        -8.3109  -24.2065  -54.0576 C.3       19 UNK         0.1400 
    106 CB        -8.3736  -25.7339  -53.8787 C.3       19 UNK        -0.1800 
    107 C         -7.7332  -23.7940  -55.4270 C.2       19 UNK         0.5000 
    108 O         -7.0445  -24.5845  -56.0748 O.2       19 UNK        -0.5000 
    109 N         -8.0141  -22.5439  -55.8212 N.am      20 UNK        -0.5000 
    110 CA        -7.5881  -21.8756  -57.0575 C.3       20 UNK         0.1400 
    111 CB        -8.1839  -22.5728  -58.2992 C.3       20 UNK        -0.1800 
    112 C         -6.0594  -21.6733  -57.1497 C.2       20 UNK         0.5000 
    113 O         -5.4950  -21.6930  -58.2454 O.2       20 UNK        -0.5000 
    114 N         -5.4197  -21.4597  -55.9956 N.am      21 UNK        -0.5000 
    115 CA        -3.9974  -21.1810  -55.8369 C.3       21 UNK         0.1400 
    116 CB        -3.1934  -22.4923  -55.8928 C.3       21 UNK        -0.1800 
    117 C         -3.7933  -20.4548  -54.5004 C.2       21 UNK         0.5000 
    118 O         -4.6537  -20.5426  -53.6221 O.2       21 UNK        -0.5000 
    119 N         -2.6623  -19.7546  -54.3704 N.am      22 UNK        -0.5000 
    120 CA        -2.2751  -18.9853  -53.1738 C.3       22 UNK         0.1400 
    121 C         -1.7975  -19.8313  -51.9553 C.2       22 UNK         0.5000 
    122 N         -1.5950  -21.1355  -52.0916 N.am      22 UNK        -0.7600 
    123 O         -1.6339  -19.2957  -50.8639 O.2       22 UNK        -0.5000 
    124 C124       -1.2787  -17.8503  -53.5288 C.3       23 UNK        -0.0398 
    125 S125        0.2166  -18.4355  -54.4031 S.3       23 UNK        -0.2404 
    126 C126        1.4412  -17.1733  -53.9284 C.3       23 UNK        -0.0205 
    127 H127        6.9395  -13.0718  -45.7036 H         1 UNK         0.0600 
    128 H128        5.8901  -14.1831  -44.8220 H         1 UNK         0.0600 
    129 H129        6.2632  -12.5951  -44.1433 H         1 UNK         0.0600 
    130 H130        3.7742  -14.2014  -45.4631 H         1 UNK         0.3000 
    131 H131        1.8643  -13.8180  -46.4200 H         1 UNK         0.0600 
    132 H132        1.6680  -12.4524  -48.5272 H         1 UNK         0.0800 
    133 H133        3.3026  -11.8881  -48.3130 H         1 UNK         0.0800 
    134 H134        1.0098  -14.4155  -49.7515 H         1 UNK         0.0800 
    135 H135        1.3340  -15.4558  -48.3836 H         1 UNK         0.0800 
    136 H136        1.1371  -15.2925  -51.9701 H         1 UNK         0.1150 
    137 H137        2.6403  -19.2462  -52.6438 H         1 UNK         0.1150 
    138 H138        2.9264  -17.4756  -48.7459 H         1 UNK         0.1150 
    139 H139        3.4422  -20.5768  -50.8697 H         1 UNK         0.0800 
    140 H140        4.5917  -19.5817  -50.0076 H         1 UNK         0.0800 
    141 H141        0.9444  -20.6072  -50.0019 H         1 UNK         0.0800 
    142 H142        0.5860  -19.5650  -48.6457 H         1 UNK         0.0800 
    143 H143        0.9891  -22.5878  -48.4374 H         1 UNK         0.0600 
    144 H144        0.7403  -20.6474  -46.3708 H         1 UNK         0.3000 
    145 H145       -0.3372  -22.9902  -43.8418 H         1 UNK         0.0600 
    146 H146        1.6349  -21.9725  -42.7645 H         1 UNK         0.0600 
    147 H147        2.1545  -23.0509  -44.0504 H         1 UNK         0.0600 
    148 H148        2.1828  -21.3100  -44.3025 H         1 UNK         0.0600 
    149 H149        0.0408  -20.1859  -43.6894 H         1 UNK         0.3000 
    150 H150       -3.3497  -19.2462  -44.4829 H         1 UNK         0.0600 
    151 H151       -3.2718  -19.8622  -42.0756 H         1 UNK         0.0600 
    152 H152       -3.0243  -18.1342  -42.2824 H         1 UNK         0.0600 
    153 H153       -1.6550  -19.1864  -41.9312 H         1 UNK         0.0600 
    154 H154       -1.1388  -17.6108  -43.8526 H         1 UNK         0.3000 
    155 H155        0.1565  -17.2174  -47.1767 H         1 UNK         0.0600 
    156 H156       -1.2630  -15.3431  -45.2040 H         1 UNK         0.0600 
    157 H157       -1.7296  -15.6096  -46.8766 H         1 UNK         0.0600 
    158 H158       -0.1931  -14.8489  -46.5113 H         1 UNK         0.0600 
    159 H159        1.0265  -16.2132  -44.6433 H         1 UNK         0.3000 
    160 H160        3.2593  -18.9000  -43.8428 H         1 UNK         0.0600 
    161 H161        4.7676  -16.8983  -43.7222 H         1 UNK         0.0600 
    162 H162        3.6679  -16.0100  -44.7749 H         1 UNK         0.0600 
    163 H163        4.5045  -17.4312  -45.3769 H         1 UNK         0.0600 
    164 H164        2.4663  -16.4171  -42.5779 H         1 UNK         0.3000 
    165 H165       -0.1258  -17.8329  -40.5795 H         1 UNK         0.0600 
    166 H166        1.2883  -17.1189  -38.6718 H         1 UNK         0.0600 
    167 H167        1.9108  -18.6123  -39.3547 H         1 UNK         0.0600 
    168 H168        2.7182  -17.0885  -39.7050 H         1 UNK         0.0600 
    169 H169        1.1634  -15.3077  -40.4572 H         1 UNK         0.3000 
    170 H170       -0.2509  -13.7096  -43.2151 H         1 UNK         0.0600 
    171 H171       -2.2776  -13.6634  -41.7512 H         1 UNK         0.0600 
    172 H172       -1.2655  -13.3679  -40.3421 H         1 UNK         0.0600 
    173 H173       -1.3670  -12.1669  -41.6313 H         1 UNK         0.0600 
    174 H174        1.0176  -12.5724  -40.9787 H         1 UNK         0.3000 
    175 H175        3.2029  -12.4287  -40.5981 H         1 UNK         0.0600 
    176 H176        5.0968  -13.9772  -42.4578 H         1 UNK         0.0600 
    177 H177        5.5803  -13.0593  -41.0342 H         1 UNK         0.0600 
    178 H178        4.5807  -14.4923  -40.8603 H         1 UNK         0.0600 
    179 H179        3.3380  -11.6297  -43.3708 H         1 UNK         0.3000 
    180 H180        4.2741   -8.3984  -42.5646 H         1 UNK         0.0600 
    181 H181        6.2786  -10.1586  -44.0706 H         1 UNK         0.0600 
    182 H182        6.6498   -9.1017  -42.7155 H         1 UNK         0.0600 
    183 H183        6.1077   -8.4133  -44.2374 H         1 UNK         0.0600 
    184 H184        4.0279   -9.9710  -45.0369 H         1 UNK         0.3000 
    185 H185        0.5376   -9.4480  -45.3404 H         1 UNK         0.0600 
    186 H186        1.3682   -7.2189  -46.0908 H         1 UNK         0.0600 
    187 H187        2.7596   -7.9751  -46.8579 H         1 UNK         0.0600 
    188 H188        1.1322   -8.2940  -47.4596 H         1 UNK         0.0600 
    189 H189        2.7077  -10.4153  -47.0284 H         1 UNK         0.3000 
    190 H190       -1.8250  -20.6365  -47.3789 H         1 UNK         0.3000 
    191 H191       -3.5813  -21.4851  -49.4646 H         1 UNK         0.0600 
    192 H192       -4.1752  -20.5079  -46.6230 H         1 UNK         0.0600 
    193 H193       -5.3759  -20.7073  -47.8920 H         1 UNK         0.0600 
    194 H194       -4.0921  -19.5214  -48.0804 H         1 UNK         0.0600 
    195 H195       -2.9865  -22.7836  -46.1476 H         1 UNK         0.3000 
    196 H196       -4.8145  -24.9278  -46.2548 H         1 UNK         0.0600 
    197 H197       -3.4622  -25.8415  -44.3601 H         1 UNK         0.0600 
    198 H198       -3.7939  -24.1285  -44.1534 H         1 UNK         0.0600 
    199 H199       -2.1994  -24.6592  -44.6819 H         1 UNK         0.0600 
    200 H200       -1.3521  -24.8187  -47.1928 H         1 UNK         0.3000 
    201 H201       -1.0720  -27.5124  -48.0214 H         1 UNK         0.0600 
    202 H202        0.8409  -25.9780  -47.6178 H         1 UNK         0.0600 
    203 H203        0.3670  -24.9867  -48.9962 H         1 UNK         0.0600 
    204 H204        0.9242  -26.6371  -49.2446 H         1 UNK         0.0600 
    205 H205       -2.5443  -24.7653  -49.6397 H         1 UNK         0.3000 
    206 H206       -2.8912  -26.1908  -52.2098 H         1 UNK         0.0600 
    207 H207       -2.1486  -23.8545  -52.3007 H         1 UNK         0.0600 
    208 H208       -3.7743  -23.9669  -52.9497 H         1 UNK         0.0600 
    209 H209       -3.5231  -23.3288  -51.3301 H         1 UNK         0.0600 
    210 H210       -4.2657  -26.9348  -49.5599 H         1 UNK         0.3000 
    211 H211       -6.1690  -27.8190  -48.8796 H         1 UNK         0.0600 
    212 H212       -7.0064  -27.8412  -51.8283 H         1 UNK         0.0600 
    213 H213       -7.6915  -28.8260  -50.5437 H         1 UNK         0.0600 
    214 H214       -6.0235  -29.0709  -51.0349 H         1 UNK         0.0600 
    215 H215       -6.0270  -25.2151  -48.4190 H         1 UNK         0.3000 
    216 H216       -7.1245  -23.4819  -47.6092 H         1 UNK         0.0600 
    217 H217       -9.5348  -23.4590  -47.1968 H         1 UNK         0.0600 
    218 H218       -8.8956  -25.0361  -46.7623 H         1 UNK         0.0600 
    219 H219       -9.7959  -24.8274  -48.2644 H         1 UNK         0.0600 
    220 H220       -5.9667  -23.3033  -49.9161 H         1 UNK         0.3000 
    221 H221       -5.6263  -22.1189  -51.7483 H         1 UNK         0.0600 
    222 H222       -7.7725  -20.2551  -50.5995 H         1 UNK         0.0600 
    223 H223       -6.0513  -20.2262  -50.2136 H         1 UNK         0.0600 
    224 H224       -6.5948  -19.8225  -51.8301 H         1 UNK         0.0600 
    225 H225       -6.8840  -24.2681  -52.5022 H         1 UNK         0.3000 
    226 H226       -9.3336  -23.8284  -53.9966 H         1 UNK         0.0600 
    227 H227       -8.9858  -26.1925  -54.6560 H         1 UNK         0.0600 
    228 H228       -7.3842  -26.1895  -53.9289 H         1 UNK         0.0600 
    229 H229       -8.8131  -26.0000  -52.9170 H         1 UNK         0.0600 
    230 H230       -8.5118  -21.9600  -55.1573 H         1 UNK         0.3000 
    231 H231       -8.0152  -20.8727  -57.0153 H         1 UNK         0.0600 
    232 H232       -9.2634  -22.6911  -58.2054 H         1 UNK         0.0600 
    233 H233       -7.7501  -23.5603  -58.4584 H         1 UNK         0.0600 
    234 H234       -8.0008  -21.9880  -59.2013 H         1 UNK         0.0600 
    235 H235       -5.9469  -21.4115  -55.1325 H         1 UNK         0.3000 
    236 H236       -3.6698  -20.5156  -56.6385 H         1 UNK         0.0600 
    237 H237       -3.2844  -22.9687  -56.8690 H         1 UNK         0.0600 
    238 H238       -2.1316  -22.3148  -55.7185 H         1 UNK         0.0600 
    239 H239       -3.5384  -23.2051  -55.1445 H         1 UNK         0.0600 
    240 H240       -1.9908  -19.7456  -55.1248 H         1 UNK         0.3000 
    241 H241       -3.1812  -18.4906  -52.8181 H         1 UNK         0.0600 
    242 H242       -1.3444  -21.6917  -51.2813 H         1 UNK         0.3800 
    243 H243       -1.7226  -21.5771  -52.9856 H         1 UNK         0.3800 
    244 H244       -1.7741  -17.1231  -54.1732 H         1 UNK         0.0800 
    245 H245       -0.9939  -17.2985  -52.6315 H         1 UNK         0.0800 
    246 H246        2.3337  -17.3035  -54.5419 H         1 UNK         0.0800 
    247 H247        1.0471  -16.1844  -54.1682 H         1 UNK         0.0800 
@<TRIPOS>BOND
     1    1    2 1    
     2    1  127 1    
     3    1  128 1    
     4    1  129 1    
     5    2    3 2    
     6    2    4 am   BACKBONE|DICT|INTERRES
     7    4    5 1    
     8    4  130 1    
     9    5    6 1    
    10    5   65 1    
    11    5  131 1    
    12    6    7 1    
    13    6  132 1    
    14    6  133 1    
    15    7    8 1    
    16    8    9 1    
    17    8  134 1    
    18    8  135 1    
    19    9   10 ar   
    20    9   14 ar   
    21   10   11 ar   
    22   10  136 1    
    23   11   12 ar   
    24   11  126 1    
    25   12   13 ar   
    26   12  137 1    
    27   13   14 ar   
    28   13   15 1    
    29   14  138 1    
    30   15   16 1    
    31   15  139 1    
    32   15  140 1    
    33   16   17 1    
    34   17   18 1    
    35   17  141 1    
    36   17  142 1    
    37   18   19 1    
    38   18   67 1    
    39   18  143 1    
    40   19   20 am   BACKBONE|DICT|INTERRES
    41   19  144 1    
    42   20   21 2    
    43   20   22 1    
    44   22   23 1    
    45   22   24 1    
    46   22  145 1    
    47   23  146 1    
    48   23  147 1    
    49   23  148 1    
    50   24   25 am   BACKBONE|DICT|INTERRES
    51   24  149 1    
    52   25   26 2    
    53   25   27 1    
    54   27   28 1    
    55   27   29 1    
    56   27  150 1    
    57   28  151 1    
    58   28  152 1    
    59   28  153 1    
    60   29   30 am   BACKBONE|DICT|INTERRES
    61   29  154 1    
    62   30   31 2    
    63   30   32 1    
    64   32   33 1    
    65   32   34 1    
    66   32  155 1    
    67   33  156 1    
    68   33  157 1    
    69   33  158 1    
    70   34   35 am   BACKBONE|DICT|INTERRES
    71   34  159 1    
    72   35   36 2    
    73   35   37 1    
    74   37   38 1    
    75   37   39 1    
    76   37  160 1    
    77   38  161 1    
    78   38  162 1    
    79   38  163 1    
    80   39   40 am   BACKBONE|DICT|INTERRES
    81   39  164 1    
    82   40   41 2    
    83   40   42 1    
    84   42   43 1    
    85   42   44 1    
    86   42  165 1    
    87   43  166 1    
    88   43  167 1    
    89   43  168 1    
    90   44   45 am   BACKBONE|DICT|INTERRES
    91   44  169 1    
    92   45   46 2    
    93   45   47 1    
    94   47   48 1    
    95   47   49 1    
    96   47  170 1    
    97   48  171 1    
    98   48  172 1    
    99   48  173 1    
   100   49   50 am   BACKBONE|DICT|INTERRES
   101   49  174 1    
   102   50   51 2    
   103   50   52 1    
   104   52   53 1    
   105   52   54 1    
   106   52  175 1    
   107   53  176 1    
   108   53  177 1    
   109   53  178 1    
   110   54   55 am   BACKBONE|DICT|INTERRES
   111   54  179 1    
   112   55   56 2    
   113   55   57 1    
   114   57   58 1    
   115   57   59 1    
   116   57  180 1    
   117   58  181 1    
   118   58  182 1    
   119   58  183 1    
   120   59   60 am   BACKBONE|DICT|INTERRES
   121   59  184 1    
   122   60   61 2    
   123   60   62 1    
   124   62   63 1    
   125   62   64 1    
   126   62  185 1    
   127   63  186 1    
   128   63  187 1    
   129   63  188 1    
   130   64   65 am   BACKBONE|DICT|INTERRES
   131   64  189 1    
   132   65   66 2    
   133   67   68 2    
   134   67   69 am   BACKBONE|DICT|INTERRES
   135   69   70 1    
   136   69  190 1    
   137   70   71 1    
   138   70   72 1    
   139   70  191 1    
   140   71  192 1    
   141   71  193 1    
   142   71  194 1    
   143   72   73 2    
   144   72   74 am   BACKBONE|DICT|INTERRES
   145   74   75 1    
   146   74  195 1    
   147   75   76 1    
   148   75   77 1    
   149   75  196 1    
   150   76  197 1    
   151   76  198 1    
   152   76  199 1    
   153   77   78 2    
   154   77   79 am   BACKBONE|DICT|INTERRES
   155   79   80 1    
   156   79  200 1    
   157   80   81 1    
   158   80   82 1    
   159   80  201 1    
   160   81  202 1    
   161   81  203 1    
   162   81  204 1    
   163   82   83 2    
   164   82   84 am   BACKBONE|DICT|INTERRES
   165   84   85 1    
   166   84  205 1    
   167   85   86 1    
   168   85   87 1    
   169   85  206 1    
   170   86  207 1    
   171   86  208 1    
   172   86  209 1    
   173   87   88 2    
   174   87   89 am   BACKBONE|DICT|INTERRES
   175   89   90 1    
   176   89  210 1    
   177   90   91 1    
   178   90   92 1    
   179   90  211 1    
   180   91  212 1    
   181   91  213 1    
   182   91  214 1    
   183   92   93 2    
   184   92   94 am   BACKBONE|DICT|INTERRES
   185   94   95 1    
   186   94  215 1    
   187   95   96 1    
   188   95   97 1    
   189   95  216 1    
   190   96  217 1    
   191   96  218 1    
   192   96  219 1    
   193   97   98 2    
   194   97   99 am   BACKBONE|DICT|INTERRES
   195   99  100 1    
   196   99  220 1    
   197  100  101 1    
   198  100  102 1    
   199  100  221 1    
   200  101  222 1    
   201  101  223 1    
   202  101  224 1    
   203  102  103 2    
   204  102  104 am   BACKBONE|DICT|INTERRES
   205  104  105 1    
   206  104  225 1    
   207  105  106 1    
   208  105  107 1    
   209  105  226 1    
   210  106  227 1    
   211  106  228 1    
   212  106  229 1    
   213  107  108 2    
   214  107  109 am   BACKBONE|DICT|INTERRES
   215  109  110 1    
   216  109  230 1    
   217  110  111 1    
   218  110  112 1    
   219  110  231 1    
   220  111  232 1    
   221  111  233 1    
   222  111  234 1    
   223  112  113 2    
   224  112  114 am   BACKBONE|DICT|INTERRES
   225  114  115 1    
   226  114  235 1    
   227  115  116 1    
   228  115  117 1    
   229  115  236 1    
   230  116  237 1    
   231  116  238 1    
   232  116  239 1    
   233  117  118 2    
   234  117  119 am   BACKBONE|DICT|INTERRES
   235  119  120 1    
   236  119  240 1    
   237  120  121 1    
   238  120  124 1    
   239  120  241 1    
   240  121  122 am   BACKBONE|DICT|INTERRES
   241  121  123 2    
   242  122  242 1    
   243  122  243 1    
   244  124  125 1    
   245  124  244 1    
   246  124  245 1    
   247  125  126 1    
   248  126  246 1    
   249  126  247 1    
@<TRIPOS>SUBSTRUCTURE
     1 UNK         1 GROUP             0       ****    0 ROOT    
