@<TRIPOS>MOLECULE
3R540
247   249    1
SMALL
USER_CHARGES


@<TRIPOS>ATOM
      1 CA         -4.7946  -15.4507  -47.8330 C.3       0 UNK        -0.1800 
      2 C          -3.8871  -14.2294  -47.7726 C.2       0 UNK         0.5000 
      3 O          -4.3747  -13.1107  -47.6087 O.2       0 UNK        -0.5000 
      4 N          -2.5733  -14.4392  -47.9124 N.am      1 UNK        -0.5000 
      5 CA         -1.5343  -13.4161  -47.7755 C.3       1 UNK         0.1400 
      6 C6         -0.1842  -13.8980  -48.3665 C.3       23 UNK        -0.0398 
      7 S7          0.4609  -15.4310  -47.6114 S.3       23 UNK        -0.2404 
      8 C8          1.8058  -15.8653  -48.7534 C.3       23 UNK        -0.0205 
      9 C9          1.3083  -16.7888  -49.8510 C.ar      23 UNK        -0.0193 
     10 C10         0.9506  -16.2831  -51.1044 C.ar      23 UNK        -0.1150 
     11 C11         0.4718  -17.1389  -52.1013 C.ar      23 UNK        -0.0193 
     12 C12         0.3456  -18.5047  -51.8284 C.ar      23 UNK        -0.1150 
     13 C13         0.7132  -19.0230  -50.5848 C.ar      23 UNK        -0.0193 
     14 C14         1.1996  -18.1593  -49.6019 C.ar      23 UNK        -0.1150 
     15 C15         0.5903  -20.5139  -50.3141 C.3       23 UNK        -0.0205 
     16 S16        -1.0376  -20.9343  -49.6225 S.3       23 UNK        -0.2404 
     17 C17        -0.7525  -20.7479  -47.8275 C.3       23 UNK        -0.0398 
     18 CA         -0.5176  -22.1143  -47.1380 C.3       11 UNK         0.1400 
     19 N           0.1436  -21.9925  -45.8353 N.am      11 UNK        -0.5000 
     20 C           0.6376  -23.0273  -45.1364 C.2       10 UNK         0.5000 
     21 O           0.6448  -24.1876  -45.5462 O.2       10 UNK        -0.5000 
     22 CA          1.1544  -22.7257  -43.7190 C.3       10 UNK         0.1400 
     23 CB          2.6318  -22.3082  -43.7471 C.3       10 UNK        -0.1800 
     24 N           0.3518  -21.6909  -43.0662 N.am      10 UNK        -0.5000 
     25 C          -0.8896  -21.9031  -42.6050 C.2       9 UNK         0.5000 
     26 O          -1.4353  -23.0074  -42.6104 O.2       9 UNK        -0.5000 
     27 CA         -1.6710  -20.6778  -42.0948 C.3       9 UNK         0.1400 
     28 CB         -1.4269  -20.4693  -40.5945 C.3       9 UNK        -0.1800 
     29 N          -1.3625  -19.4486  -42.8330 N.am      9 UNK        -0.5000 
     30 C          -1.6827  -19.2535  -44.1210 C.2       8 UNK         0.5000 
     31 O          -2.2604  -20.1079  -44.7926 O.2       8 UNK        -0.5000 
     32 CA         -1.2671  -17.9383  -44.8132 C.3       8 UNK         0.1400 
     33 CB         -2.4166  -17.3480  -45.6511 C.3       8 UNK        -0.1800 
     34 N          -0.6795  -16.9220  -43.9385 N.am      8 UNK        -0.5000 
     35 C          -1.2613  -16.2424  -42.9419 C.2       7 UNK         0.5000 
     36 O          -2.4379  -16.3761  -42.6004 O.2       7 UNK        -0.5000 
     37 CA         -0.3180  -15.2975  -42.1677 C.3       7 UNK         0.1400 
     38 CB         -0.9806  -14.6260  -40.9482 C.3       7 UNK        -0.1800 
     39 N           0.9286  -15.9709  -41.7799 N.am      7 UNK        -0.5000 
     40 C           1.0532  -17.0934  -41.0560 C.2       6 UNK         0.5000 
     41 O           0.1092  -17.6637  -40.5103 O.2       6 UNK        -0.5000 
     42 CA          2.4723  -17.6983  -40.9885 C.3       6 UNK         0.1400 
     43 CB          2.5193  -19.0723  -40.2863 C.3       6 UNK        -0.1800 
     44 N           3.1012  -17.7722  -42.3128 N.am      6 UNK        -0.5000 
     45 C           2.6506  -18.4379  -43.3892 C.2       5 UNK         0.5000 
     46 O           1.6583  -19.1681  -43.3823 O.2       5 UNK        -0.5000 
     47 CA          3.4283  -18.2026  -44.7048 C.3       5 UNK         0.1400 
     48 CB          2.6473  -18.6506  -45.9593 C.3       5 UNK        -0.1800 
     49 N           3.8828  -16.8131  -44.8618 N.am      5 UNK        -0.5000 
     50 C           3.1092  -15.7180  -44.8233 C.2       4 UNK         0.5000 
     51 O           1.8882  -15.7465  -44.6580 O.2       4 UNK        -0.5000 
     52 CA          3.8318  -14.3669  -44.9716 C.3       4 UNK         0.1400 
     53 CB          3.9497  -13.9748  -46.4516 C.3       4 UNK        -0.1800 
     54 N           3.1529  -13.2872  -44.2568 N.am      4 UNK        -0.5000 
     55 C           2.9136  -13.2322  -42.9426 C.2       3 UNK         0.5000 
     56 O           3.2766  -14.1016  -42.1481 O.2       3 UNK        -0.5000 
     57 CA          2.1241  -12.0131  -42.4213 C.3       3 UNK         0.1400 
     58 CB          3.0227  -10.7642  -42.3473 C.3       3 UNK        -0.1800 
     59 N           0.8682  -11.7224  -43.1322 N.am      3 UNK        -0.5000 
     60 C           0.6821  -11.3554  -44.4083 C.2       2 UNK         0.5000 
     61 O           1.5881  -11.2167  -45.2342 O.2       2 UNK        -0.5000 
     62 CA         -0.7668  -11.0608  -44.8291 C.3       2 UNK         0.1400 
     63 CB         -1.0075   -9.5453  -44.9072 C.3       2 UNK        -0.1800 
     64 N          -1.0437  -11.6573  -46.1340 N.am      2 UNK        -0.5000 
     65 C          -1.3935  -12.9370  -46.3105 C.2       1 UNK         0.5000 
     66 O          -1.5936  -13.7179  -45.3765 O.2       1 UNK        -0.5000 
     67 C          -1.8169  -22.9345  -47.0240 C.2       11 UNK         0.5000 
     68 O          -2.0074  -23.8599  -47.8098 O.2       11 UNK        -0.5000 
     69 N          -2.6363  -22.6366  -46.0037 N.am      12 UNK        -0.5000 
     70 CA         -3.8867  -23.3312  -45.6891 C.3       12 UNK         0.1400 
     71 CB         -4.5403  -22.6838  -44.4594 C.3       12 UNK        -0.1800 
     72 C          -3.7175  -24.8479  -45.4866 C.2       12 UNK         0.5000 
     73 O          -4.5735  -25.6164  -45.9261 O.2       12 UNK        -0.5000 
     74 N          -2.6030  -25.2483  -44.8619 N.am      13 UNK        -0.5000 
     75 CA         -2.2111  -26.6451  -44.6992 C.3       13 UNK         0.1400 
     76 CB         -1.1612  -26.7461  -43.5814 C.3       13 UNK        -0.1800 
     77 C          -1.6802  -27.2667  -46.0060 C.2       13 UNK         0.5000 
     78 O          -2.0383  -28.4012  -46.3248 O.2       13 UNK        -0.5000 
     79 N          -0.8174  -26.5315  -46.7198 N.am      14 UNK        -0.5000 
     80 CA         -0.0837  -27.0243  -47.8849 C.3       14 UNK         0.1400 
     81 CB          1.1741  -26.1643  -48.0866 C.3       14 UNK        -0.1800 
     82 C          -0.9025  -27.0709  -49.1876 C.2       14 UNK         0.5000 
     83 O          -0.7812  -28.0444  -49.9332 O.2       14 UNK        -0.5000 
     84 N          -1.6681  -26.0103  -49.4727 N.am      15 UNK        -0.5000 
     85 CA         -2.2406  -25.7422  -50.7957 C.3       15 UNK         0.1400 
     86 CB         -1.2192  -24.9365  -51.6222 C.3       15 UNK        -0.1800 
     87 C          -3.6140  -25.0445  -50.7480 C.2       15 UNK         0.5000 
     88 O          -4.0866  -24.5910  -51.7912 O.2       15 UNK        -0.5000 
     89 N          -4.2422  -24.9884  -49.5651 N.am      16 UNK        -0.5000 
     90 CA         -5.5201  -24.3283  -49.2805 C.3       16 UNK         0.1400 
     91 CB         -6.6847  -25.0006  -50.0447 C.3       16 UNK        -0.1800 
     92 C          -5.4284  -22.7964  -49.4631 C.2       16 UNK         0.5000 
     93 O          -4.5320  -22.1787  -48.8894 O.2       16 UNK        -0.5000 
     94 N          -6.3696  -22.1919  -50.1997 N.am      17 UNK        -0.5000 
     95 CA         -6.4301  -20.7494  -50.4361 C.3       17 UNK         0.1400 
     96 CB         -7.7388  -20.4146  -51.1688 C.3       17 UNK        -0.1800 
     97 C          -5.2237  -20.2429  -51.2460 C.2       17 UNK         0.5000 
     98 O          -4.8939  -20.8347  -52.2756 O.2       17 UNK        -0.5000 
     99 N          -4.6309  -19.1228  -50.8097 N.am      18 UNK        -0.5000 
    100 CA        -3.4929  -18.4727  -51.4690 C.3       18 UNK         0.1400 
    101 CB        -3.0370  -17.2661  -50.6342 C.3       18 UNK        -0.1800 
    102 C         -3.7981  -18.0550  -52.9202 C.2       18 UNK         0.5000 
    103 O         -2.9536  -18.2240  -53.7983 O.2       18 UNK        -0.5000 
    104 N         -5.0307  -17.5837  -53.1548 N.am      19 UNK        -0.5000 
    105 CA        -5.5524  -17.2194  -54.4732 C.3       19 UNK         0.1400 
    106 CB        -6.9205  -16.5432  -54.2970 C.3       19 UNK        -0.1800 
    107 C         -5.6607  -18.4076  -55.4506 C.2       19 UNK         0.5000 
    108 O         -5.5798  -18.1955  -56.6607 O.2       19 UNK        -0.5000 
    109 N         -5.8315  -19.6267  -54.9193 N.am      20 UNK        -0.5000 
    110 CA        -5.8046  -20.8660  -55.6925 C.3       20 UNK         0.1400 
    111 CB        -6.6713  -21.9325  -55.0033 C.3       20 UNK        -0.1800 
    112 C         -4.3593  -21.3564  -55.8767 C.2       20 UNK         0.5000 
    113 O         -3.9789  -21.7109  -56.9927 O.2       20 UNK        -0.5000 
    114 N         -3.5724  -21.3356  -54.7912 N.am      21 UNK        -0.5000 
    115 CA        -2.1761  -21.7754  -54.7444 C.3       21 UNK         0.1400 
    116 CB        -1.6736  -21.7037  -53.2966 C.3       21 UNK        -0.1800 
    117 C         -1.2449  -20.9953  -55.6942 C.2       21 UNK         0.5000 
    118 O         -0.4209  -21.6138  -56.3693 O.2       21 UNK        -0.5000 
    119 N         -1.4206  -19.6696  -55.7643 N.am      22 UNK        -0.5000 
    120 CA        -0.7581  -18.7854  -56.7409 C.3       22 UNK         0.1400 
    121 C         -1.5118  -18.6746  -58.1023 C.2       22 UNK         0.5000 
    122 N         -2.5621  -19.4433  -58.3639 N.am      22 UNK        -0.7600 
    123 O         -1.1243  -17.8844  -58.9590 O.2       22 UNK        -0.5000 
    124 C124       -0.4365  -17.3885  -56.1422 C.3       23 UNK        -0.0398 
    125 S125        0.8382  -17.4805  -54.8371 S.3       23 UNK        -0.2404 
    126 C126        0.0502  -16.5875  -53.4564 C.3       23 UNK        -0.0205 
    127 H127       -4.2256  -16.3752  -47.9298 H         1 UNK         0.0600 
    128 H128       -5.4712  -15.3750  -48.6841 H         1 UNK         0.0600 
    129 H129       -5.3928  -15.5174  -46.9243 H         1 UNK         0.0600 
    130 H130       -2.2241  -15.3810  -48.0110 H         1 UNK         0.3000 
    131 H131       -1.8555  -12.5562  -48.3675 H         1 UNK         0.0600 
    132 H132        0.5743  -13.1188  -48.2731 H         1 UNK         0.0800 
    133 H133       -0.3048  -14.0690  -49.4368 H         1 UNK         0.0800 
    134 H134        2.2540  -14.9637  -49.1733 H         1 UNK         0.0800 
    135 H135        2.5954  -16.3630  -48.1887 H         1 UNK         0.0800 
    136 H136        1.0358  -15.2234  -51.2989 H         1 UNK         0.1150 
    137 H137       -0.0340  -19.1648  -52.5941 H         1 UNK         0.1150 
    138 H138        1.4855  -18.5484  -48.6366 H         1 UNK         0.1150 
    139 H139        0.7251  -21.0670  -51.2446 H         1 UNK         0.0800 
    140 H140        1.3842  -20.8516  -49.6462 H         1 UNK         0.0800 
    141 H141        0.1057  -20.0966  -47.6688 H         1 UNK         0.0800 
    142 H142       -1.6061  -20.2249  -47.3939 H         1 UNK         0.0800 
    143 H143        0.1674  -22.6856  -47.7688 H         1 UNK         0.0600 
    144 H144        0.1282  -21.0853  -45.3953 H         1 UNK         0.3000 
    145 H145        1.0782  -23.6437  -43.1322 H         1 UNK         0.0600 
    146 H146        2.9948  -22.0719  -42.7467 H         1 UNK         0.0600 
    147 H147        3.2537  -23.1140  -44.1388 H         1 UNK         0.0600 
    148 H148        2.7961  -21.4359  -44.3779 H         1 UNK         0.0600 
    149 H149        0.7370  -20.7481  -43.0527 H         1 UNK         0.3000 
    150 H150       -2.7340  -20.8862  -42.2327 H         1 UNK         0.0600 
    151 H151       -1.7407  -21.3443  -40.0242 H         1 UNK         0.0600 
    152 H152       -1.9891  -19.6150  -40.2169 H         1 UNK         0.0600 
    153 H153       -0.3724  -20.3006  -40.3780 H         1 UNK         0.0600 
    154 H154       -0.8567  -18.7268  -42.3351 H         1 UNK         0.3000 
    155 H155       -0.4738  -18.2126  -45.5077 H         1 UNK         0.0600 
    156 H156       -2.1054  -16.4212  -46.1277 H         1 UNK         0.0600 
    157 H157       -3.2953  -17.1326  -45.0430 H         1 UNK         0.0600 
    158 H158       -2.7239  -18.0344  -46.4407 H         1 UNK         0.0600 
    159 H159        0.2905  -16.6899  -44.1414 H         1 UNK         0.3000 
    160 H160       -0.0395  -14.5101  -42.8694 H         1 UNK         0.0600 
    161 H161       -0.2902  -13.9448  -40.4509 H         1 UNK         0.0600 
    162 H162       -1.8516  -14.0438  -41.2510 H         1 UNK         0.0600 
    163 H163       -1.3162  -15.3590  -40.2141 H         1 UNK         0.0600 
    164 H164        1.7691  -15.5901  -42.1999 H         1 UNK         0.3000 
    165 H165        3.0707  -17.0042  -40.3966 H         1 UNK         0.0600 
    166 H166        1.9396  -19.8249  -40.8205 H         1 UNK         0.0600 
    167 H167        3.5433  -19.4368  -40.2069 H         1 UNK         0.0600 
    168 H168        2.1187  -19.0084  -39.2741 H         1 UNK         0.0600 
    169 H169        3.9100  -17.1803  -42.4392 H         1 UNK         0.3000 
    170 H170        4.3239  -18.8215  -44.6363 H         1 UNK         0.0600 
    171 H171        1.7544  -18.0469  -46.1163 H         1 UNK         0.0600 
    172 H172        3.2659  -18.5625  -46.8521 H         1 UNK         0.0600 
    173 H173        2.3329  -19.6915  -45.8896 H         1 UNK         0.0600 
    174 H174        4.8780  -16.6947  -44.9929 H         1 UNK         0.3000 
    175 H175        4.8348  -14.4631  -44.5517 H         1 UNK         0.0600 
    176 H176        2.9702  -13.7874  -46.8927 H         1 UNK         0.0600 
    177 H177        4.5466  -13.0707  -46.5725 H         1 UNK         0.0600 
    178 H178        4.4303  -14.7621  -47.0337 H         1 UNK         0.0600 
    179 H179        2.7499  -12.5456  -44.8249 H         1 UNK         0.3000 
    180 H180        1.8282  -12.2564  -41.3994 H         1 UNK         0.0600 
    181 H181        3.3635  -10.4458  -43.3329 H         1 UNK         0.0600 
    182 H182        3.9103  -10.9590  -41.7440 H         1 UNK         0.0600 
    183 H183        2.4962   -9.9272  -41.8888 H         1 UNK         0.0600 
    184 H184        0.0423  -11.8053  -42.5564 H         1 UNK         0.3000 
    185 H185       -1.4523  -11.4762  -44.0868 H         1 UNK         0.0600 
    186 H186       -0.8240   -9.0712  -43.9422 H         1 UNK         0.0600 
    187 H187       -0.3514   -9.0685  -45.6368 H         1 UNK         0.0600 
    188 H188       -2.0376   -9.3238  -45.1871 H         1 UNK         0.0600 
    189 H189       -0.8537  -11.0765  -46.9377 H         1 UNK         0.3000 
    190 H190       -2.4222  -21.8199  -45.4358 H         1 UNK         0.3000 
    191 H191       -4.5601  -23.1888  -46.5322 H         1 UNK         0.0600 
    192 H192       -4.7219  -21.6213  -44.6226 H         1 UNK         0.0600 
    193 H193       -5.5022  -23.1484  -44.2394 H         1 UNK         0.0600 
    194 H194       -3.9176  -22.7847  -43.5710 H         1 UNK         0.0600 
    195 H195       -1.9613  -24.5459  -44.5193 H         1 UNK         0.3000 
    196 H196       -3.0880  -27.2171  -44.3883 H         1 UNK         0.0600 
    197 H197       -0.8637  -27.7826  -43.4178 H         1 UNK         0.0600 
    198 H198       -1.5538  -26.3668  -42.6377 H         1 UNK         0.0600 
    199 H199       -0.2605  -26.1791  -43.8191 H         1 UNK         0.0600 
    200 H200       -0.5555  -25.6122  -46.3795 H         1 UNK         0.3000 
    201 H201        0.2478  -28.0429  -47.6714 H         1 UNK         0.0600 
    202 H202        1.8216  -26.2019  -47.2104 H         1 UNK         0.0600 
    203 H203        0.9210  -25.1193  -48.2703 H         1 UNK         0.0600 
    204 H204        1.7584  -26.5159  -48.9379 H         1 UNK         0.0600 
    205 H205       -1.7244  -25.2420  -48.8014 H         1 UNK         0.3000 
    206 H206       -2.4208  -26.6883  -51.3099 H         1 UNK         0.0600 
    207 H207       -0.2728  -25.4695  -51.7130 H         1 UNK         0.0600 
    208 H208       -1.5815  -24.7543  -52.6345 H         1 UNK         0.0600 
    209 H209       -1.0151  -23.9682  -51.1630 H         1 UNK         0.0600 
    210 H210       -3.7456  -25.3367  -48.7571 H         1 UNK         0.3000 
    211 H211       -5.7065  -24.4891  -48.2187 H         1 UNK         0.0600 
    212 H212       -6.6194  -24.8474  -51.1222 H         1 UNK         0.0600 
    213 H213       -7.6484  -24.6132  -49.7120 H         1 UNK         0.0600 
    214 H214       -6.6968  -26.0757  -49.8652 H         1 UNK         0.0600 
    215 H215       -7.0557  -22.7599  -50.6733 H         1 UNK         0.3000 
    216 H216       -6.4405  -20.2500  -49.4650 H         1 UNK         0.0600 
    217 H217       -8.6075  -20.7170  -50.5836 H         1 UNK         0.0600 
    218 H218       -7.7972  -20.9126  -52.1377 H         1 UNK         0.0600 
    219 H219       -7.8255  -19.3418  -51.3462 H         1 UNK         0.0600 
    220 H220       -4.9585  -18.6971  -49.9554 H         1 UNK         0.3000 
    221 H221       -2.6726  -19.1902  -51.4976 H         1 UNK         0.0600 
    222 H222       -2.2001  -16.7542  -51.1092 H         1 UNK         0.0600 
    223 H223       -3.8365  -16.5355  -50.5096 H         1 UNK         0.0600 
    224 H224       -2.7007  -17.5780  -49.6450 H         1 UNK         0.0600 
    225 H225       -5.6644  -17.4905  -52.3752 H         1 UNK         0.3000 
    226 H226       -4.8652  -16.4948  -54.9151 H         1 UNK         0.0600 
    227 H227       -7.3296  -16.2325  -55.2593 H         1 UNK         0.0600 
    228 H228       -7.6445  -17.2150  -53.8341 H         1 UNK         0.0600 
    229 H229       -6.8433  -15.6509  -53.6755 H         1 UNK         0.0600 
    230 H230       -5.8240  -19.7264  -53.9131 H         1 UNK         0.3000 
    231 H231       -6.2295  -20.6851  -56.6823 H         1 UNK         0.0600 
    232 H232       -6.7055  -22.8458  -55.5983 H         1 UNK         0.0600 
    233 H233       -7.6975  -21.5864  -54.8800 H         1 UNK         0.0600 
    234 H234       -6.2885  -22.2017  -54.0188 H         1 UNK         0.0600 
    235 H235       -3.9839  -21.0590  -53.9032 H         1 UNK         0.3000 
    236 H236       -2.1584  -22.8224  -55.0534 H         1 UNK         0.0600 
    237 H237       -2.3000  -22.2977  -52.6305 H         1 UNK         0.0600 
    238 H238       -0.6537  -22.0803  -53.2137 H         1 UNK         0.0600 
    239 H239       -1.6805  -20.6810  -52.9261 H         1 UNK         0.0600 
    240 H240       -2.0945  -19.2264  -55.1441 H         1 UNK         0.3000 
    241 H241        0.2009  -19.2340  -57.0063 H         1 UNK         0.0600 
    242 H242       -3.0265  -19.3495  -59.2530 H         1 UNK         0.3800 
    243 H243       -2.8878  -20.1412  -57.7064 H         1 UNK         0.3800 
    244 H244       -1.3472  -16.9211  -55.7660 H         1 UNK         0.0800 
    245 H245       -0.0464  -16.7146  -56.9066 H         1 UNK         0.0800 
    246 H246        0.3015  -15.5294  -53.5416 H         1 UNK         0.0800 
    247 H247       -1.0332  -16.6478  -53.5245 H         1 UNK         0.0800 
@<TRIPOS>BOND
     1    1    2 1    
     2    1  127 1    
     3    1  128 1    
     4    1  129 1    
     5    2    3 2    
     6    2    4 am   BACKBONE|DICT|INTERRES
     7    4    5 1    
     8    4  130 1    
     9    5    6 1    
    10    5   65 1    
    11    5  131 1    
    12    6    7 1    
    13    6  132 1    
    14    6  133 1    
    15    7    8 1    
    16    8    9 1    
    17    8  134 1    
    18    8  135 1    
    19    9   10 ar   
    20    9   14 ar   
    21   10   11 ar   
    22   10  136 1    
    23   11   12 ar   
    24   11  126 1    
    25   12   13 ar   
    26   12  137 1    
    27   13   14 ar   
    28   13   15 1    
    29   14  138 1    
    30   15   16 1    
    31   15  139 1    
    32   15  140 1    
    33   16   17 1    
    34   17   18 1    
    35   17  141 1    
    36   17  142 1    
    37   18   19 1    
    38   18   67 1    
    39   18  143 1    
    40   19   20 am   BACKBONE|DICT|INTERRES
    41   19  144 1    
    42   20   21 2    
    43   20   22 1    
    44   22   23 1    
    45   22   24 1    
    46   22  145 1    
    47   23  146 1    
    48   23  147 1    
    49   23  148 1    
    50   24   25 am   BACKBONE|DICT|INTERRES
    51   24  149 1    
    52   25   26 2    
    53   25   27 1    
    54   27   28 1    
    55   27   29 1    
    56   27  150 1    
    57   28  151 1    
    58   28  152 1    
    59   28  153 1    
    60   29   30 am   BACKBONE|DICT|INTERRES
    61   29  154 1    
    62   30   31 2    
    63   30   32 1    
    64   32   33 1    
    65   32   34 1    
    66   32  155 1    
    67   33  156 1    
    68   33  157 1    
    69   33  158 1    
    70   34   35 am   BACKBONE|DICT|INTERRES
    71   34  159 1    
    72   35   36 2    
    73   35   37 1    
    74   37   38 1    
    75   37   39 1    
    76   37  160 1    
    77   38  161 1    
    78   38  162 1    
    79   38  163 1    
    80   39   40 am   BACKBONE|DICT|INTERRES
    81   39  164 1    
    82   40   41 2    
    83   40   42 1    
    84   42   43 1    
    85   42   44 1    
    86   42  165 1    
    87   43  166 1    
    88   43  167 1    
    89   43  168 1    
    90   44   45 am   BACKBONE|DICT|INTERRES
    91   44  169 1    
    92   45   46 2    
    93   45   47 1    
    94   47   48 1    
    95   47   49 1    
    96   47  170 1    
    97   48  171 1    
    98   48  172 1    
    99   48  173 1    
   100   49   50 am   BACKBONE|DICT|INTERRES
   101   49  174 1    
   102   50   51 2    
   103   50   52 1    
   104   52   53 1    
   105   52   54 1    
   106   52  175 1    
   107   53  176 1    
   108   53  177 1    
   109   53  178 1    
   110   54   55 am   BACKBONE|DICT|INTERRES
   111   54  179 1    
   112   55   56 2    
   113   55   57 1    
   114   57   58 1    
   115   57   59 1    
   116   57  180 1    
   117   58  181 1    
   118   58  182 1    
   119   58  183 1    
   120   59   60 am   BACKBONE|DICT|INTERRES
   121   59  184 1    
   122   60   61 2    
   123   60   62 1    
   124   62   63 1    
   125   62   64 1    
   126   62  185 1    
   127   63  186 1    
   128   63  187 1    
   129   63  188 1    
   130   64   65 am   BACKBONE|DICT|INTERRES
   131   64  189 1    
   132   65   66 2    
   133   67   68 2    
   134   67   69 am   BACKBONE|DICT|INTERRES
   135   69   70 1    
   136   69  190 1    
   137   70   71 1    
   138   70   72 1    
   139   70  191 1    
   140   71  192 1    
   141   71  193 1    
   142   71  194 1    
   143   72   73 2    
   144   72   74 am   BACKBONE|DICT|INTERRES
   145   74   75 1    
   146   74  195 1    
   147   75   76 1    
   148   75   77 1    
   149   75  196 1    
   150   76  197 1    
   151   76  198 1    
   152   76  199 1    
   153   77   78 2    
   154   77   79 am   BACKBONE|DICT|INTERRES
   155   79   80 1    
   156   79  200 1    
   157   80   81 1    
   158   80   82 1    
   159   80  201 1    
   160   81  202 1    
   161   81  203 1    
   162   81  204 1    
   163   82   83 2    
   164   82   84 am   BACKBONE|DICT|INTERRES
   165   84   85 1    
   166   84  205 1    
   167   85   86 1    
   168   85   87 1    
   169   85  206 1    
   170   86  207 1    
   171   86  208 1    
   172   86  209 1    
   173   87   88 2    
   174   87   89 am   BACKBONE|DICT|INTERRES
   175   89   90 1    
   176   89  210 1    
   177   90   91 1    
   178   90   92 1    
   179   90  211 1    
   180   91  212 1    
   181   91  213 1    
   182   91  214 1    
   183   92   93 2    
   184   92   94 am   BACKBONE|DICT|INTERRES
   185   94   95 1    
   186   94  215 1    
   187   95   96 1    
   188   95   97 1    
   189   95  216 1    
   190   96  217 1    
   191   96  218 1    
   192   96  219 1    
   193   97   98 2    
   194   97   99 am   BACKBONE|DICT|INTERRES
   195   99  100 1    
   196   99  220 1    
   197  100  101 1    
   198  100  102 1    
   199  100  221 1    
   200  101  222 1    
   201  101  223 1    
   202  101  224 1    
   203  102  103 2    
   204  102  104 am   BACKBONE|DICT|INTERRES
   205  104  105 1    
   206  104  225 1    
   207  105  106 1    
   208  105  107 1    
   209  105  226 1    
   210  106  227 1    
   211  106  228 1    
   212  106  229 1    
   213  107  108 2    
   214  107  109 am   BACKBONE|DICT|INTERRES
   215  109  110 1    
   216  109  230 1    
   217  110  111 1    
   218  110  112 1    
   219  110  231 1    
   220  111  232 1    
   221  111  233 1    
   222  111  234 1    
   223  112  113 2    
   224  112  114 am   BACKBONE|DICT|INTERRES
   225  114  115 1    
   226  114  235 1    
   227  115  116 1    
   228  115  117 1    
   229  115  236 1    
   230  116  237 1    
   231  116  238 1    
   232  116  239 1    
   233  117  118 2    
   234  117  119 am   BACKBONE|DICT|INTERRES
   235  119  120 1    
   236  119  240 1    
   237  120  121 1    
   238  120  124 1    
   239  120  241 1    
   240  121  122 am   BACKBONE|DICT|INTERRES
   241  121  123 2    
   242  122  242 1    
   243  122  243 1    
   244  124  125 1    
   245  124  244 1    
   246  124  245 1    
   247  125  126 1    
   248  126  246 1    
   249  126  247 1    
@<TRIPOS>SUBSTRUCTURE
     1 UNK         1 GROUP             0       ****    0 ROOT    
