@<TRIPOS>MOLECULE
3R540
247   249    1
SMALL
USER_CHARGES


@<TRIPOS>ATOM
      1 CA          6.3829  -13.0035  -49.3876 C.3       0 UNK        -0.1800 
      2 C           4.8885  -13.1738  -49.1546 C.2       0 UNK         0.5000 
      3 O           4.0958  -12.8011  -50.0188 O.2       0 UNK        -0.5000 
      4 N           4.5176  -13.7143  -47.9843 N.am      1 UNK        -0.5000 
      5 CA          3.1798  -14.0589  -47.4615 C.3       1 UNK         0.1400 
      6 C6          2.6096  -15.4295  -47.9333 C.3       23 UNK        -0.0398 
      7 S7          2.7184  -15.8151  -49.7137 S.3       23 UNK        -0.2404 
      8 C8          1.0680  -15.3473  -50.3236 C.3       23 UNK        -0.0205 
      9 C9         -0.0276  -16.3651  -50.0209 C.ar      23 UNK        -0.0193 
     10 C10        -1.2732  -15.9198  -49.5723 C.ar      23 UNK        -0.1150 
     11 C11        -2.3337  -16.8108  -49.3970 C.ar      23 UNK        -0.0193 
     12 C12        -2.1279  -18.1719  -49.6281 C.ar      23 UNK        -0.1150 
     13 C13        -0.8876  -18.6373  -50.0666 C.ar      23 UNK        -0.0193 
     14 C14         0.1575  -17.7303  -50.2681 C.ar      23 UNK        -0.1150 
     15 C15        -0.6947  -20.1132  -50.3685 C.3       23 UNK        -0.0205 
     16 S16         0.0221  -20.9932  -48.9616 S.3       23 UNK        -0.2404 
     17 C17        -1.3659  -21.0739  -47.7786 C.3       23 UNK        -0.0398 
     18 CA         -1.4698  -22.4690  -47.1247 C.3       11 UNK         0.1400 
     19 N          -0.2082  -22.8877  -46.5167 N.am      11 UNK        -0.5000 
     20 C           0.1307  -24.1520  -46.2443 C.2       10 UNK         0.5000 
     21 O          -0.5773  -25.1218  -46.5158 O.2       10 UNK        -0.5000 
     22 CA          1.4846  -24.3589  -45.5410 C.3       10 UNK         0.1400 
     23 CB          2.5814  -24.6314  -46.5800 C.3       10 UNK        -0.1800 
     24 N           1.8759  -23.2143  -44.7118 N.am      10 UNK        -0.5000 
     25 C           1.2082  -22.7823  -43.6344 C.2       9 UNK         0.5000 
     26 O           0.1973  -23.3355  -43.2012 O.2       9 UNK        -0.5000 
     27 CA          1.7011  -21.4849  -42.9699 C.3       9 UNK         0.1400 
     28 CB          2.9303  -21.7333  -42.0770 C.3       9 UNK        -0.1800 
     29 N           1.9211  -20.3815  -43.9134 N.am      9 UNK        -0.5000 
     30 C           2.8726  -20.2263  -44.8463 C.2       8 UNK         0.5000 
     31 O           3.7366  -21.0676  -45.0952 O.2       8 UNK        -0.5000 
     32 CA          2.8397  -18.9106  -45.6488 C.3       8 UNK         0.1400 
     33 CB          1.9844  -19.0823  -46.9088 C.3       8 UNK        -0.1800 
     34 N           2.3142  -17.7941  -44.8618 N.am      8 UNK        -0.5000 
     35 C           3.0125  -17.1432  -43.9203 C.2       7 UNK         0.5000 
     36 O           4.2083  -17.3357  -43.6988 O.2       7 UNK        -0.5000 
     37 CA          2.2383  -16.1252  -43.0631 C.3       7 UNK         0.1400 
     38 CB          2.2493  -14.7374  -43.7155 C.3       7 UNK        -0.1800 
     39 N           0.8537  -16.5382  -42.8368 N.am      7 UNK        -0.5000 
     40 C           0.4879  -17.5189  -41.9994 C.2       6 UNK         0.5000 
     41 O           1.2755  -18.1399  -41.2862 O.2       6 UNK        -0.5000 
     42 CA         -1.0059  -17.8878  -41.9691 C.3       6 UNK         0.1400 
     43 CB         -1.7242  -17.1385  -40.8373 C.3       6 UNK        -0.1800 
     44 N          -1.6951  -17.6185  -43.2325 N.am      6 UNK        -0.5000 
     45 C          -1.4877  -18.2827  -44.3779 C.2       5 UNK         0.5000 
     46 O          -0.6813  -19.2059  -44.4974 O.2       5 UNK        -0.5000 
     47 CA         -2.3182  -17.8307  -45.5923 C.3       5 UNK         0.1400 
     48 CB         -3.6352  -18.6222  -45.6418 C.3       5 UNK        -0.1800 
     49 N          -2.6075  -16.3922  -45.5887 N.am      5 UNK        -0.5000 
     50 C          -1.6805  -15.4398  -45.7635 C.2       4 UNK         0.5000 
     51 O          -0.4840  -15.6813  -45.9299 O.2       4 UNK        -0.5000 
     52 CA         -2.1648  -13.9836  -45.6919 C.3       4 UNK         0.1400 
     53 CB         -1.5913  -13.2899  -44.4458 C.3       4 UNK        -0.1800 
     54 N          -1.7366  -13.2564  -46.8866 N.am      4 UNK        -0.5000 
     55 C          -2.5658  -12.7146  -47.7921 C.2       3 UNK         0.5000 
     56 O          -3.7925  -12.7635  -47.6896 O.2       3 UNK        -0.5000 
     57 CA         -1.9495  -12.0411  -49.0433 C.3       3 UNK         0.1400 
     58 CB         -2.7929  -10.8523  -49.5521 C.3       3 UNK        -0.1800 
     59 N          -0.5370  -11.6681  -48.9017 N.am      3 UNK        -0.5000 
     60 C          -0.0239  -10.7335  -48.0888 C.2       2 UNK         0.5000 
     61 O          -0.7014  -10.0228  -47.3441 O.2       2 UNK        -0.5000 
     62 CA          1.5156  -10.5927  -48.1109 C.3       2 UNK         0.1400 
     63 CB          2.0499   -9.7760  -46.9163 C.3       2 UNK        -0.1800 
     64 N           2.2436  -11.8676  -48.1965 N.am      2 UNK        -0.5000 
     65 C           2.1141  -12.9361  -47.3992 C.2       1 UNK         0.5000 
     66 O           1.2077  -13.0405  -46.5754 O.2       1 UNK        -0.5000 
     67 C          -2.6117  -22.5255  -46.0926 C.2       11 UNK         0.5000 
     68 O          -3.7025  -22.9795  -46.4286 O.2       11 UNK        -0.5000 
     69 N          -2.3360  -22.1292  -44.8397 N.am      12 UNK        -0.5000 
     70 CA         -3.2732  -22.2536  -43.7171 C.3       12 UNK         0.1400 
     71 CB         -2.7631  -21.4436  -42.5167 C.3       12 UNK        -0.1800 
     72 C          -3.5321  -23.7213  -43.3258 C.2       12 UNK         0.5000 
     73 O          -4.6548  -24.0653  -42.9561 O.2       12 UNK        -0.5000 
     74 N          -2.5023  -24.5670  -43.4683 N.am      13 UNK        -0.5000 
     75 CA         -2.5833  -26.0235  -43.3354 C.3       13 UNK         0.1400 
     76 CB         -1.1611  -26.5788  -43.1589 C.3       13 UNK        -0.1800 
     77 C          -3.2855  -26.7149  -44.5260 C.2       13 UNK         0.5000 
     78 O          -3.5883  -27.9046  -44.4300 O.2       13 UNK        -0.5000 
     79 N          -3.5129  -25.9725  -45.6215 N.am      14 UNK        -0.5000 
     80 CA         -4.1089  -26.3946  -46.8944 C.3       14 UNK         0.1400 
     81 CB         -5.5809  -26.8141  -46.7032 C.3       14 UNK        -0.1800 
     82 C          -3.2718  -27.4476  -47.6527 C.2       14 UNK         0.5000 
     83 O          -3.8197  -28.2173  -48.4441 O.2       14 UNK        -0.5000 
     84 N          -1.9549  -27.4533  -47.4113 N.am      15 UNK        -0.5000 
     85 CA         -0.9786  -28.2713  -48.1277 C.3       15 UNK         0.1400 
     86 CB          0.2319  -28.5203  -47.2141 C.3       15 UNK        -0.1800 
     87 C          -0.5416  -27.5888  -49.4358 C.2       15 UNK         0.5000 
     88 O          -0.3138  -28.2719  -50.4350 O.2       15 UNK        -0.5000 
     89 N          -0.4451  -26.2545  -49.4001 N.am      16 UNK        -0.5000 
     90 CA         -0.1479  -25.3926  -50.5415 C.3       16 UNK         0.1400 
     91 CB          0.8179  -24.2969  -50.0680 C.3       16 UNK        -0.1800 
     92 C          -1.4420  -24.8080  -51.1452 C.2       16 UNK         0.5000 
     93 O          -2.5367  -25.0604  -50.6332 O.2       16 UNK        -0.5000 
     94 N          -1.2911  -24.0539  -52.2436 N.am      17 UNK        -0.5000 
     95 CA         -2.3535  -23.4875  -53.0844 C.3       17 UNK         0.1400 
     96 CB         -1.7324  -23.0603  -54.4270 C.3       17 UNK        -0.1800 
     97 C          -3.1496  -22.3407  -52.4211 C.2       17 UNK         0.5000 
     98 O          -3.1429  -21.2081  -52.9105 O.2       17 UNK        -0.5000 
     99 N          -3.8276  -22.6604  -51.3136 N.am      18 UNK        -0.5000 
    100 CA        -4.7272  -21.7884  -50.5585 C.3       18 UNK         0.1400 
    101 CB        -5.3291  -22.6006  -49.4041 C.3       18 UNK        -0.1800 
    102 C         -5.8487  -21.1912  -51.4304 C.2       18 UNK         0.5000 
    103 O         -6.3308  -21.8572  -52.3503 O.2       18 UNK        -0.5000 
    104 N         -6.2271  -19.9415  -51.1309 N.am      19 UNK        -0.5000 
    105 CA        -7.1880  -19.0807  -51.8372 C.3       19 UNK         0.1400 
    106 CB        -8.5883  -19.7189  -51.9183 C.3       19 UNK        -0.1800 
    107 C         -6.7016  -18.6085  -53.2225 C.2       19 UNK         0.5000 
    108 O         -6.8202  -17.4224  -53.5298 O.2       19 UNK        -0.5000 
    109 N         -6.1513  -19.5278  -54.0244 N.am      20 UNK        -0.5000 
    110 CA        -5.6362  -19.2858  -55.3706 C.3       20 UNK         0.1400 
    111 CB        -5.3202  -20.6330  -56.0389 C.3       20 UNK        -0.1800 
    112 C         -4.4027  -18.3666  -55.3843 C.2       20 UNK         0.5000 
    113 O         -4.3556  -17.4211  -56.1725 O.2       20 UNK        -0.5000 
    114 N         -3.4341  -18.6480  -54.5030 N.am      21 UNK        -0.5000 
    115 CA        -2.1770  -17.9032  -54.3994 C.3       21 UNK         0.1400 
    116 CB        -1.1188  -18.8125  -53.7643 C.3       21 UNK        -0.1800 
    117 C         -2.2944  -16.5730  -53.6272 C.2       21 UNK         0.5000 
    118 O         -1.3308  -15.8055  -53.6195 O.2       21 UNK        -0.5000 
    119 N         -3.4503  -16.3099  -53.0011 N.am      22 UNK        -0.5000 
    120 CA        -3.7181  -15.0788  -52.2369 C.3       22 UNK         0.1400 
    121 C         -3.8434  -13.7865  -53.0971 C.2       22 UNK         0.5000 
    122 N         -4.0157  -13.8727  -54.4109 N.am      22 UNK        -0.7600 
    123 O         -3.7793  -12.6850  -52.5591 O.2       22 UNK        -0.5000 
    124 C124       -4.9447  -15.2071  -51.2959 C.3       23 UNK        -0.0398 
    125 S125       -4.9668  -16.6957  -50.2410 S.3       23 UNK        -0.2404 
    126 C126       -3.7092  -16.3100  -48.9848 C.3       23 UNK        -0.0205 
    127 H127        6.6881  -13.5572  -50.2756 H         1 UNK         0.0600 
    128 H128        6.9708  -13.3648  -48.5435 H         1 UNK         0.0600 
    129 H129        6.6210  -11.9511  -49.5424 H         1 UNK         0.0600 
    130 H130        5.2630  -13.9470  -47.3433 H         1 UNK         0.3000 
    131 H131        3.3988  -14.2098  -46.4039 H         1 UNK         0.0600 
    132 H132        1.5823  -15.5743  -47.5943 H         1 UNK         0.0800 
    133 H133        3.1798  -16.2102  -47.4297 H         1 UNK         0.0800 
    134 H134        0.8126  -14.3660  -49.9233 H         1 UNK         0.0800 
    135 H135        1.1238  -15.2293  -51.4065 H         1 UNK         0.0800 
    136 H136       -1.4266  -14.8702  -49.3937 H         1 UNK         0.1150 
    137 H137       -2.9473  -18.8625  -49.4957 H         1 UNK         0.1150 
    138 H138        1.1100  -18.0864  -50.6336 H         1 UNK         0.1150 
    139 H139       -1.6387  -20.5771  -50.6515 H         1 UNK         0.0800 
    140 H140       -0.0269  -20.2312  -51.2229 H         1 UNK         0.0800 
    141 H141       -1.2125  -20.3019  -47.0253 H         1 UNK         0.0800 
    142 H142       -2.2987  -20.8324  -48.2889 H         1 UNK         0.0800 
    143 H143       -1.7170  -23.1825  -47.9148 H         1 UNK         0.0600 
    144 H144        0.4510  -22.1570  -46.2953 H         1 UNK         0.3000 
    145 H145        1.3948  -25.2332  -44.8941 H         1 UNK         0.0600 
    146 H146        3.5345  -24.8509  -46.0986 H         1 UNK         0.0600 
    147 H147        2.3265  -25.4901  -47.2027 H         1 UNK         0.0600 
    148 H148        2.7289  -23.7773  -47.2426 H         1 UNK         0.0600 
    149 H149        2.6893  -22.6792  -45.0038 H         1 UNK         0.3000 
    150 H150        0.8945  -21.1456  -42.3179 H         1 UNK         0.0600 
    151 H151        2.7073  -22.4754  -41.3095 H         1 UNK         0.0600 
    152 H152        3.2341  -20.8189  -41.5669 H         1 UNK         0.0600 
    153 H153        3.7850  -22.1011  -42.6450 H         1 UNK         0.0600 
    154 H154        1.1975  -19.6715  -43.8918 H         1 UNK         0.3000 
    155 H155        3.8609  -18.6782  -45.9584 H         1 UNK         0.0600 
    156 H156        1.9810  -18.1872  -47.5276 H         1 UNK         0.0600 
    157 H157        0.9491  -19.3105  -46.6598 H         1 UNK         0.0600 
    158 H158        2.3672  -19.8960  -47.5255 H         1 UNK         0.0600 
    159 H159        1.3383  -17.5651  -44.9886 H         1 UNK         0.3000 
    160 H160        2.7425  -16.0496  -42.0972 H         1 UNK         0.0600 
    161 H161        1.7331  -14.7499  -44.6743 H         1 UNK         0.0600 
    162 H162        3.2692  -14.3928  -43.8898 H         1 UNK         0.0600 
    163 H163        1.7592  -13.9979  -43.0822 H         1 UNK         0.0600 
    164 H164        0.1478  -16.0925  -43.4047 H         1 UNK         0.3000 
    165 H165       -1.0707  -18.9583  -41.7649 H         1 UNK         0.0600 
    166 H166       -1.7103  -16.0594  -40.9960 H         1 UNK         0.0600 
    167 H167       -2.7646  -17.4535  -40.7544 H         1 UNK         0.0600 
    168 H168       -1.2492  -17.3353  -39.8752 H         1 UNK         0.0600 
    169 H169       -2.3830  -16.8803  -43.2247 H         1 UNK         0.3000 
    170 H170       -1.7412  -18.0561  -46.4916 H         1 UNK         0.0600 
    171 H171       -3.4483  -19.6947  -45.6251 H         1 UNK         0.0600 
    172 H172       -4.2757  -18.3925  -44.7894 H         1 UNK         0.0600 
    173 H173       -4.2003  -18.4174  -46.5488 H         1 UNK         0.0600 
    174 H174       -3.5703  -16.1244  -45.4430 H         1 UNK         0.3000 
    175 H175       -3.2529  -13.9821  -45.6038 H         1 UNK         0.0600 
    176 H176       -1.9457  -12.2617  -44.3723 H         1 UNK         0.0600 
    177 H177       -1.8944  -13.8060  -43.5341 H         1 UNK         0.0600 
    178 H178       -0.5010  -13.2642  -44.4623 H         1 UNK         0.0600 
    179 H179       -0.7298  -13.1920  -47.0106 H         1 UNK         0.3000 
    180 H180       -1.9784  -12.7897  -49.8343 H         1 UNK         0.0600 
    181 H181       -3.7907  -11.1803  -49.8462 H         1 UNK         0.0600 
    182 H182       -2.9159  -10.0821  -48.7906 H         1 UNK         0.0600 
    183 H183       -2.3377  -10.3916  -50.4287 H         1 UNK         0.0600 
    184 H184        0.1157  -12.1951  -49.4634 H         1 UNK         0.3000 
    185 H185        1.7552  -10.0415  -49.0212 H         1 UNK         0.0600 
    186 H186        1.8144  -10.2554  -45.9653 H         1 UNK         0.0600 
    187 H187        3.1319   -9.6571  -46.9725 H         1 UNK         0.0600 
    188 H188        1.6165   -8.7753  -46.8969 H         1 UNK         0.0600 
    189 H189        2.9699  -11.9252  -48.9076 H         1 UNK         0.3000 
    190 H190       -1.4137  -21.7801  -44.6221 H         1 UNK         0.3000 
    191 H191       -4.2299  -21.8267  -44.0258 H         1 UNK         0.0600 
    192 H192       -3.4126  -21.5757  -41.6504 H         1 UNK         0.0600 
    193 H193       -2.7505  -20.3798  -42.7456 H         1 UNK         0.0600 
    194 H194       -1.7569  -21.7404  -42.2211 H         1 UNK         0.0600 
    195 H195       -1.5896  -24.1806  -43.6855 H         1 UNK         0.3000 
    196 H196       -3.1560  -26.2562  -42.4354 H         1 UNK         0.0600 
    197 H197       -1.1812  -27.6524  -42.9678 H         1 UNK         0.0600 
    198 H198       -0.6530  -26.1081  -42.3169 H         1 UNK         0.0600 
    199 H199       -0.5544  -26.4179  -44.0498 H         1 UNK         0.0600 
    200 H200       -3.2320  -25.0016  -45.5905 H         1 UNK         0.3000 
    201 H201       -4.1056  -25.5085  -47.5308 H         1 UNK         0.0600 
    202 H202       -6.1437  -26.0434  -46.1764 H         1 UNK         0.0600 
    203 H203       -5.6685  -27.7416  -46.1370 H         1 UNK         0.0600 
    204 H204       -6.0710  -26.9710  -47.6646 H         1 UNK         0.0600 
    205 H205       -1.5780  -26.7430  -46.7908 H         1 UNK         0.3000 
    206 H206       -1.4235  -29.2370  -48.3769 H         1 UNK         0.0600 
    207 H207       -0.0654  -29.0331  -46.2992 H         1 UNK         0.0600 
    208 H208        0.9741  -29.1454  -47.7120 H         1 UNK         0.0600 
    209 H209        0.7236  -27.5891  -46.9300 H         1 UNK         0.0600 
    210 H210       -0.6873  -25.7864  -48.5359 H         1 UNK         0.3000 
    211 H211        0.3472  -25.9668  -51.3272 H         1 UNK         0.0600 
    212 H212        0.4105  -23.7595  -49.2155 H         1 UNK         0.0600 
    213 H213        1.0319  -23.5687  -50.8508 H         1 UNK         0.0600 
    214 H214        1.7710  -24.7258  -49.7587 H         1 UNK         0.0600 
    215 H215       -0.3518  -23.8803  -52.5700 H         1 UNK         0.3000 
    216 H216       -3.0713  -24.2829  -53.2952 H         1 UNK         0.0600 
    217 H217       -2.4918  -22.6682  -55.1047 H         1 UNK         0.0600 
    218 H218       -1.2581  -23.9035  -54.9295 H         1 UNK         0.0600 
    219 H219       -0.9798  -22.2826  -54.2920 H         1 UNK         0.0600 
    220 H220       -3.7190  -23.6102  -50.9700 H         1 UNK         0.3000 
    221 H221       -4.1247  -20.9772  -50.1469 H         1 UNK         0.0600 
    222 H222       -6.0152  -23.3672  -49.7670 H         1 UNK         0.0600 
    223 H223       -4.5513  -23.1033  -48.8319 H         1 UNK         0.0600 
    224 H224       -5.8822  -21.9593  -48.7169 H         1 UNK         0.0600 
    225 H225       -5.7528  -19.4794  -50.3677 H         1 UNK         0.3000 
    226 H226       -7.2890  -18.1863  -51.2216 H         1 UNK         0.0600 
    227 H227       -8.9407  -20.0229  -50.9327 H         1 UNK         0.0600 
    228 H228       -9.3127  -19.0080  -52.3174 H         1 UNK         0.0600 
    229 H229       -8.6068  -20.5946  -52.5671 H         1 UNK         0.0600 
    230 H230       -6.0969  -20.4790  -53.6716 H         1 UNK         0.3000 
    231 H231       -6.4230  -18.7957  -55.9477 H         1 UNK         0.0600 
    232 H232       -4.9337  -20.4884  -57.0486 H         1 UNK         0.0600 
    233 H233       -6.2140  -21.2520  -56.1183 H         1 UNK         0.0600 
    234 H234       -4.5733  -21.1958  -55.4775 H         1 UNK         0.0600 
    235 H235       -3.5289  -19.4598  -53.8995 H         1 UNK         0.3000 
    236 H236       -1.8352  -17.6541  -55.4062 H         1 UNK         0.0600 
    237 H237       -1.4399  -19.1343  -52.7772 H         1 UNK         0.0600 
    238 H238       -0.9474  -19.7034  -54.3683 H         1 UNK         0.0600 
    239 H239       -0.1622  -18.3006  -53.6529 H         1 UNK         0.0600 
    240 H240       -4.2025  -16.9803  -53.0577 H         1 UNK         0.3000 
    241 H241       -2.8472  -14.9123  -51.6032 H         1 UNK         0.0600 
    242 H242       -4.0723  -14.7724  -54.8630 H         1 UNK         0.3800 
    243 H243       -4.0919  -13.0298  -54.9581 H         1 UNK         0.3800 
    244 H244       -5.0231  -14.3307  -50.6497 H         1 UNK         0.0800 
    245 H245       -5.8619  -15.2243  -51.8874 H         1 UNK         0.0800 
    246 H246       -3.7017  -15.2390  -48.7879 H         1 UNK         0.0800 
    247 H247       -3.9960  -16.7867  -48.0509 H         1 UNK         0.0800 
@<TRIPOS>BOND
     1    1    2 1    
     2    1  127 1    
     3    1  128 1    
     4    1  129 1    
     5    2    3 2    
     6    2    4 am   BACKBONE|DICT|INTERRES
     7    4    5 1    
     8    4  130 1    
     9    5    6 1    
    10    5   65 1    
    11    5  131 1    
    12    6    7 1    
    13    6  132 1    
    14    6  133 1    
    15    7    8 1    
    16    8    9 1    
    17    8  134 1    
    18    8  135 1    
    19    9   10 ar   
    20    9   14 ar   
    21   10   11 ar   
    22   10  136 1    
    23   11   12 ar   
    24   11  126 1    
    25   12   13 ar   
    26   12  137 1    
    27   13   14 ar   
    28   13   15 1    
    29   14  138 1    
    30   15   16 1    
    31   15  139 1    
    32   15  140 1    
    33   16   17 1    
    34   17   18 1    
    35   17  141 1    
    36   17  142 1    
    37   18   19 1    
    38   18   67 1    
    39   18  143 1    
    40   19   20 am   BACKBONE|DICT|INTERRES
    41   19  144 1    
    42   20   21 2    
    43   20   22 1    
    44   22   23 1    
    45   22   24 1    
    46   22  145 1    
    47   23  146 1    
    48   23  147 1    
    49   23  148 1    
    50   24   25 am   BACKBONE|DICT|INTERRES
    51   24  149 1    
    52   25   26 2    
    53   25   27 1    
    54   27   28 1    
    55   27   29 1    
    56   27  150 1    
    57   28  151 1    
    58   28  152 1    
    59   28  153 1    
    60   29   30 am   BACKBONE|DICT|INTERRES
    61   29  154 1    
    62   30   31 2    
    63   30   32 1    
    64   32   33 1    
    65   32   34 1    
    66   32  155 1    
    67   33  156 1    
    68   33  157 1    
    69   33  158 1    
    70   34   35 am   BACKBONE|DICT|INTERRES
    71   34  159 1    
    72   35   36 2    
    73   35   37 1    
    74   37   38 1    
    75   37   39 1    
    76   37  160 1    
    77   38  161 1    
    78   38  162 1    
    79   38  163 1    
    80   39   40 am   BACKBONE|DICT|INTERRES
    81   39  164 1    
    82   40   41 2    
    83   40   42 1    
    84   42   43 1    
    85   42   44 1    
    86   42  165 1    
    87   43  166 1    
    88   43  167 1    
    89   43  168 1    
    90   44   45 am   BACKBONE|DICT|INTERRES
    91   44  169 1    
    92   45   46 2    
    93   45   47 1    
    94   47   48 1    
    95   47   49 1    
    96   47  170 1    
    97   48  171 1    
    98   48  172 1    
    99   48  173 1    
   100   49   50 am   BACKBONE|DICT|INTERRES
   101   49  174 1    
   102   50   51 2    
   103   50   52 1    
   104   52   53 1    
   105   52   54 1    
   106   52  175 1    
   107   53  176 1    
   108   53  177 1    
   109   53  178 1    
   110   54   55 am   BACKBONE|DICT|INTERRES
   111   54  179 1    
   112   55   56 2    
   113   55   57 1    
   114   57   58 1    
   115   57   59 1    
   116   57  180 1    
   117   58  181 1    
   118   58  182 1    
   119   58  183 1    
   120   59   60 am   BACKBONE|DICT|INTERRES
   121   59  184 1    
   122   60   61 2    
   123   60   62 1    
   124   62   63 1    
   125   62   64 1    
   126   62  185 1    
   127   63  186 1    
   128   63  187 1    
   129   63  188 1    
   130   64   65 am   BACKBONE|DICT|INTERRES
   131   64  189 1    
   132   65   66 2    
   133   67   68 2    
   134   67   69 am   BACKBONE|DICT|INTERRES
   135   69   70 1    
   136   69  190 1    
   137   70   71 1    
   138   70   72 1    
   139   70  191 1    
   140   71  192 1    
   141   71  193 1    
   142   71  194 1    
   143   72   73 2    
   144   72   74 am   BACKBONE|DICT|INTERRES
   145   74   75 1    
   146   74  195 1    
   147   75   76 1    
   148   75   77 1    
   149   75  196 1    
   150   76  197 1    
   151   76  198 1    
   152   76  199 1    
   153   77   78 2    
   154   77   79 am   BACKBONE|DICT|INTERRES
   155   79   80 1    
   156   79  200 1    
   157   80   81 1    
   158   80   82 1    
   159   80  201 1    
   160   81  202 1    
   161   81  203 1    
   162   81  204 1    
   163   82   83 2    
   164   82   84 am   BACKBONE|DICT|INTERRES
   165   84   85 1    
   166   84  205 1    
   167   85   86 1    
   168   85   87 1    
   169   85  206 1    
   170   86  207 1    
   171   86  208 1    
   172   86  209 1    
   173   87   88 2    
   174   87   89 am   BACKBONE|DICT|INTERRES
   175   89   90 1    
   176   89  210 1    
   177   90   91 1    
   178   90   92 1    
   179   90  211 1    
   180   91  212 1    
   181   91  213 1    
   182   91  214 1    
   183   92   93 2    
   184   92   94 am   BACKBONE|DICT|INTERRES
   185   94   95 1    
   186   94  215 1    
   187   95   96 1    
   188   95   97 1    
   189   95  216 1    
   190   96  217 1    
   191   96  218 1    
   192   96  219 1    
   193   97   98 2    
   194   97   99 am   BACKBONE|DICT|INTERRES
   195   99  100 1    
   196   99  220 1    
   197  100  101 1    
   198  100  102 1    
   199  100  221 1    
   200  101  222 1    
   201  101  223 1    
   202  101  224 1    
   203  102  103 2    
   204  102  104 am   BACKBONE|DICT|INTERRES
   205  104  105 1    
   206  104  225 1    
   207  105  106 1    
   208  105  107 1    
   209  105  226 1    
   210  106  227 1    
   211  106  228 1    
   212  106  229 1    
   213  107  108 2    
   214  107  109 am   BACKBONE|DICT|INTERRES
   215  109  110 1    
   216  109  230 1    
   217  110  111 1    
   218  110  112 1    
   219  110  231 1    
   220  111  232 1    
   221  111  233 1    
   222  111  234 1    
   223  112  113 2    
   224  112  114 am   BACKBONE|DICT|INTERRES
   225  114  115 1    
   226  114  235 1    
   227  115  116 1    
   228  115  117 1    
   229  115  236 1    
   230  116  237 1    
   231  116  238 1    
   232  116  239 1    
   233  117  118 2    
   234  117  119 am   BACKBONE|DICT|INTERRES
   235  119  120 1    
   236  119  240 1    
   237  120  121 1    
   238  120  124 1    
   239  120  241 1    
   240  121  122 am   BACKBONE|DICT|INTERRES
   241  121  123 2    
   242  122  242 1    
   243  122  243 1    
   244  124  125 1    
   245  124  244 1    
   246  124  245 1    
   247  125  126 1    
   248  126  246 1    
   249  126  247 1    
@<TRIPOS>SUBSTRUCTURE
     1 UNK         1 GROUP             0       ****    0 ROOT    
