@<TRIPOS>MOLECULE
3R540
247   249    1
SMALL
USER_CHARGES


@<TRIPOS>ATOM
      1 CA          4.6746  -17.3547  -47.0188 C.3       0 UNK        -0.1800 
      2 C           3.5056  -16.7061  -47.7454 C.2       0 UNK         0.5000 
      3 O           2.3687  -16.8308  -47.3034 O.2       0 UNK        -0.5000 
      4 N           3.7774  -16.0088  -48.8555 N.am      1 UNK        -0.5000 
      5 CA          2.7744  -15.3182  -49.6794 C.3       1 UNK         0.1400 
      6 C6          3.3911  -14.9212  -51.0458 C.3       23 UNK        -0.0398 
      7 S7          2.1692  -14.4568  -52.3203 S.3       23 UNK        -0.2404 
      8 C8          1.9507  -16.0218  -53.2247 C.3       23 UNK        -0.0205 
      9 C9          1.1958  -17.0587  -52.4059 C.ar      23 UNK        -0.0193 
     10 C10        -0.1627  -16.8789  -52.1312 C.ar      23 UNK        -0.1150 
     11 C11        -0.8747  -17.8357  -51.4033 C.ar      23 UNK        -0.0193 
     12 C12        -0.2187  -18.9839  -50.9526 C.ar      23 UNK        -0.1150 
     13 C13         1.1402  -19.1762  -51.2208 C.ar      23 UNK        -0.0193 
     14 C14         1.8436  -18.2081  -51.9437 C.ar      23 UNK        -0.1150 
     15 C15         1.8370  -20.4540  -50.7807 C.3       23 UNK        -0.0205 
     16 S16         2.7676  -20.2645  -49.2248 S.3       23 UNK        -0.2404 
     17 C17         1.4635  -20.0172  -47.9698 C.3       23 UNK        -0.0398 
     18 CA          0.8993  -21.3443  -47.4009 C.3       11 UNK         0.1400 
     19 N           0.5095  -21.2342  -45.9927 N.am      11 UNK        -0.5000 
     20 C           0.1433  -22.2660  -45.2183 C.2       10 UNK         0.5000 
     21 O           0.1469  -23.4383  -45.5938 O.2       10 UNK        -0.5000 
     22 CA         -0.3582  -21.9338  -43.8016 C.3       10 UNK         0.1400 
     23 CB          0.8172  -21.7122  -42.8384 C.3       10 UNK        -0.1800 
     24 N          -1.2508  -20.7743  -43.7788 N.am      10 UNK        -0.5000 
     25 C          -2.4465  -20.7336  -44.3848 C.2       9 UNK         0.5000 
     26 O          -2.9411  -21.6911  -44.9794 O.2       9 UNK        -0.5000 
     27 CA         -3.2019  -19.3929  -44.3598 C.3       9 UNK         0.1400 
     28 CB         -3.9323  -19.2019  -43.0226 C.3       9 UNK        -0.1800 
     29 N          -2.3391  -18.2405  -44.6209 N.am      9 UNK        -0.5000 
     30 C          -1.6414  -18.0528  -45.7510 C.2       8 UNK         0.5000 
     31 O          -1.6547  -18.8334  -46.7022 O.2       8 UNK        -0.5000 
     32 CA         -0.7058  -16.8313  -45.7898 C.3       8 UNK         0.1400 
     33 CB         -1.4847  -15.5221  -45.9862 C.3       8 UNK        -0.1800 
     34 N           0.1282  -16.7294  -44.5913 N.am      8 UNK        -0.5000 
     35 C           0.9905  -17.6691  -44.1756 C.2       7 UNK         0.5000 
     36 O           1.2120  -18.7205  -44.7749 O.2       7 UNK        -0.5000 
     37 CA          1.6579  -17.4335  -42.8111 C.3       7 UNK         0.1400 
     38 CB          2.8283  -16.4440  -42.9197 C.3       7 UNK        -0.1800 
     39 N           0.6929  -16.9693  -41.8138 N.am      7 UNK        -0.5000 
     40 C          -0.3044  -17.7216  -41.3244 C.2       6 UNK         0.5000 
     41 O          -0.4818  -18.9017  -41.6236 O.2       6 UNK        -0.5000 
     42 CA         -1.2921  -17.0279  -40.3691 C.3       6 UNK         0.1400 
     43 CB         -0.7486  -17.0306  -38.9326 C.3       6 UNK        -0.1800 
     44 N          -1.5880  -15.6535  -40.7729 N.am      6 UNK        -0.5000 
     45 C          -2.2556  -15.3144  -41.8853 C.2       5 UNK         0.5000 
     46 O          -2.7436  -16.1298  -42.6663 O.2       5 UNK        -0.5000 
     47 CA         -2.3446  -13.8095  -42.2009 C.3       5 UNK         0.1400 
     48 CB         -3.5667  -13.1831  -41.5136 C.3       5 UNK        -0.1800 
     49 N          -1.1346  -13.0813  -41.8071 N.am      5 UNK        -0.5000 
     50 C           0.0695  -13.2731  -42.3603 C.2       4 UNK         0.5000 
     51 O           0.2785  -14.0590  -43.2875 O.2       4 UNK        -0.5000 
     52 CA          1.2390  -12.5108  -41.7286 C.3       4 UNK         0.1400 
     53 CB          1.8018  -13.2859  -40.5227 C.3       4 UNK        -0.1800 
     54 N           2.2821  -12.3168  -42.7288 N.am      4 UNK        -0.5000 
     55 C           3.2220  -11.3676  -42.6933 C.2       3 UNK         0.5000 
     56 O           3.3349  -10.5612  -41.7688 O.2       3 UNK        -0.5000 
     57 CA          4.1831  -11.2642  -43.8936 C.3       3 UNK         0.1400 
     58 CB          5.4024  -12.1910  -43.7187 C.3       3 UNK        -0.1800 
     59 N           3.5387  -11.4372  -45.2041 N.am      3 UNK        -0.5000 
     60 C           3.0539  -12.5522  -45.7674 C.2       2 UNK         0.5000 
     61 O           3.0877  -13.6586  -45.2284 O.2       2 UNK        -0.5000 
     62 CA          2.4106  -12.4138  -47.1583 C.3       2 UNK         0.1400 
     63 CB          2.7064  -11.0787  -47.8757 C.3       2 UNK        -0.1800 
     64 N           2.8511  -13.5287  -47.9880 N.am      2 UNK        -0.5000 
     65 C           2.1300  -14.1096  -48.9538 C.2       1 UNK         0.5000 
     66 O           0.9997  -13.7351  -49.2698 O.2       1 UNK        -0.5000 
     67 C          -0.2598  -21.8816  -48.2613 C.2       11 UNK         0.5000 
     68 O          -0.0627  -22.8357  -49.0123 O.2       11 UNK        -0.5000 
     69 N          -1.4554  -21.2952  -48.1057 N.am      12 UNK        -0.5000 
     70 CA         -2.6805  -21.7121  -48.7870 C.3       12 UNK         0.1400 
     71 CB         -3.8220  -20.7510  -48.4344 C.3       12 UNK        -0.1800 
     72 C          -3.0760  -23.1653  -48.4739 C.2       12 UNK         0.5000 
     73 O          -3.4394  -23.8992  -49.3926 O.2       12 UNK        -0.5000 
     74 N          -2.9573  -23.5671  -47.2003 N.am      13 UNK        -0.5000 
     75 CA         -3.1788  -24.9368  -46.7383 C.3       13 UNK         0.1400 
     76 CB         -3.1596  -24.9802  -45.2031 C.3       13 UNK        -0.1800 
     77 C          -2.1650  -25.9320  -47.3301 C.2       13 UNK         0.5000 
     78 O          -2.5730  -26.9863  -47.8175 O.2       13 UNK        -0.5000 
     79 N          -0.8740  -25.5675  -47.3218 N.am      14 UNK        -0.5000 
     80 CA          0.2173  -26.3520  -47.9082 C.3       14 UNK         0.1400 
     81 CB          1.5657  -25.7152  -47.5391 C.3       14 UNK        -0.1800 
     82 C           0.0902  -26.5130  -49.4353 C.2       14 UNK         0.5000 
     83 O           0.3781  -27.5882  -49.9620 O.2       14 UNK        -0.5000 
     84 N          -0.3782  -25.4553  -50.1094 N.am      15 UNK        -0.5000 
     85 CA         -0.6903  -25.4322  -51.5381 C.3       15 UNK         0.1400 
     86 CB         -0.7152  -23.9690  -52.0137 C.3       15 UNK        -0.1800 
     87 C          -2.0201  -26.1290  -51.8925 C.2       15 UNK         0.5000 
     88 O          -2.3324  -26.2330  -53.0776 O.2       15 UNK        -0.5000 
     89 N          -2.8057  -26.5469  -50.8869 N.am      16 UNK        -0.5000 
     90 CA         -4.1480  -27.1342  -50.9969 C.3       16 UNK         0.1400 
     91 CB         -4.0700  -28.5496  -51.6048 C.3       16 UNK        -0.1800 
     92 C          -5.1426  -26.2117  -51.7379 C.2       16 UNK         0.5000 
     93 O          -5.9725  -26.6836  -52.5167 O.2       16 UNK        -0.5000 
     94 N          -4.9999  -24.9003  -51.4989 N.am      17 UNK        -0.5000 
     95 CA         -5.7093  -23.7777  -52.1152 C.3       17 UNK         0.1400 
     96 CB         -7.2107  -23.8079  -51.7660 C.3       17 UNK        -0.1800 
     97 C          -5.4569  -23.6002  -53.6294 C.2       17 UNK         0.5000 
     98 O          -6.1562  -22.8047  -54.2579 O.2       17 UNK        -0.5000 
     99 N          -4.4433  -24.2738  -54.2002 N.am      18 UNK        -0.5000 
    100 CA        -4.0446  -24.1159  -55.6068 C.3       18 UNK         0.1400 
    101 CB        -3.0817  -25.2430  -56.0064 C.3       18 UNK        -0.1800 
    102 C         -3.4111  -22.7402  -55.8972 C.2       18 UNK         0.5000 
    103 O         -3.4928  -22.2539  -57.0249 O.2       18 UNK        -0.5000 
    104 N         -2.8342  -22.1234  -54.8578 N.am      19 UNK        -0.5000 
    105 CA        -2.3200  -20.7525  -54.8479 C.3       19 UNK         0.1400 
    106 CB        -1.1131  -20.7030  -53.8946 C.3       19 UNK        -0.1800 
    107 C         -3.3990  -19.7217  -54.4405 C.2       19 UNK         0.5000 
    108 O         -3.0522  -18.5744  -54.1628 O.2       19 UNK        -0.5000 
    109 N         -4.6696  -20.1547  -54.4030 N.am      20 UNK        -0.5000 
    110 CA        -5.8578  -19.5238  -53.8198 C.3       20 UNK         0.1400 
    111 CB        -5.9974  -18.0322  -54.1883 C.3       20 UNK        -0.1800 
    112 C         -5.9237  -19.7517  -52.2991 C.2       20 UNK         0.5000 
    113 O         -4.9213  -20.0829  -51.6622 O.2       20 UNK        -0.5000 
    114 N         -7.1229  -19.5776  -51.7354 N.am      21 UNK        -0.5000 
    115 CA        -7.4084  -19.7302  -50.3092 C.3       21 UNK         0.1400 
    116 CB        -8.8575  -20.2253  -50.1480 C.3       21 UNK        -0.1800 
    117 C         -7.1356  -18.4145  -49.5514 C.2       21 UNK         0.5000 
    118 O         -8.0526  -17.8470  -48.9536 O.2       21 UNK        -0.5000 
    119 N         -5.8915  -17.9246  -49.6293 N.am      22 UNK        -0.5000 
    120 CA        -5.4354  -16.7093  -48.9370 C.3       22 UNK         0.1400 
    121 C         -5.2679  -16.8814  -47.3957 C.2       22 UNK         0.5000 
    122 N         -5.0389  -15.7975  -46.6651 N.am      22 UNK        -0.7600 
    123 O         -5.3549  -17.9774  -46.8481 O.2       22 UNK        -0.5000 
    124 C124       -4.2065  -16.0695  -49.6383 C.3       23 UNK        -0.0398 
    125 S125       -2.6263  -16.9700  -49.4588 S.3       23 UNK        -0.2404 
    126 C126       -2.3559  -17.6363  -51.1273 C.3       23 UNK        -0.0205 
    127 H127        4.5125  -18.4296  -46.9367 H         1 UNK         0.0600 
    128 H128        4.7625  -16.9443  -46.0128 H         1 UNK         0.0600 
    129 H129        5.6184  -17.1910  -47.5393 H         1 UNK         0.0600 
    130 H130        4.7338  -15.9414  -49.1733 H         1 UNK         0.3000 
    131 H131        1.9718  -16.0355  -49.8642 H         1 UNK         0.0600 
    132 H132        4.0896  -14.0918  -50.9222 H         1 UNK         0.0800 
    133 H133        3.9849  -15.7479  -51.4384 H         1 UNK         0.0800 
    134 H134        2.9230  -16.4021  -53.5417 H         1 UNK         0.0800 
    135 H135        1.3915  -15.8212  -54.1397 H         1 UNK         0.0800 
    136 H136       -0.6664  -15.9916  -52.4884 H         1 UNK         0.1150 
    137 H137       -0.7730  -19.7306  -50.4031 H         1 UNK         0.1150 
    138 H138        2.8923  -18.3590  -52.1577 H         1 UNK         0.1150 
    139 H139        1.1199  -21.2690  -50.6986 H         1 UNK         0.0800 
    140 H140        2.5359  -20.7632  -51.5592 H         1 UNK         0.0800 
    141 H141        0.6827  -19.3505  -48.3386 H         1 UNK         0.0800 
    142 H142        1.9471  -19.4625  -47.1665 H         1 UNK         0.0800 
    143 H143        1.6953  -22.0917  -47.4293 H         1 UNK         0.0600 
    144 H144        0.5159  -20.2996  -45.5910 H         1 UNK         0.3000 
    145 H145       -0.9263  -22.7948  -43.4435 H         1 UNK         0.0600 
    146 H146        0.4661  -21.5638  -41.8171 H         1 UNK         0.0600 
    147 H147        1.4834  -22.5757  -42.8310 H         1 UNK         0.0600 
    148 H148        1.4108  -20.8418  -43.1171 H         1 UNK         0.0600 
    149 H149       -0.9260  -19.9583  -43.2698 H         1 UNK         0.3000 
    150 H150       -3.9510  -19.4280  -45.1519 H         1 UNK         0.0600 
    151 H151       -4.5927  -20.0445  -42.8145 H         1 UNK         0.0600 
    152 H152       -4.5475  -18.3021  -43.0365 H         1 UNK         0.0600 
    153 H153       -3.2332  -19.1173  -42.1904 H         1 UNK         0.0600 
    154 H154       -2.2951  -17.5327  -43.8931 H         1 UNK         0.3000 
    155 H155       -0.0488  -16.9582  -46.6497 H         1 UNK         0.0600 
    156 H156       -2.1663  -15.3267  -45.1595 H         1 UNK         0.0600 
    157 H157       -2.0795  -15.5565  -46.8984 H         1 UNK         0.0600 
    158 H158       -0.8074  -14.6719  -46.0721 H         1 UNK         0.0600 
    159 H159        0.0471  -15.8733  -44.0519 H         1 UNK         0.3000 
    160 H160        2.0611  -18.3893  -42.4696 H         1 UNK         0.0600 
    161 H161        2.4989  -15.4557  -43.2375 H         1 UNK         0.0600 
    162 H162        3.5611  -16.7897  -43.6498 H         1 UNK         0.0600 
    163 H163        3.3447  -16.3356  -41.9661 H         1 UNK         0.0600 
    164 H164        0.7381  -15.9960  -41.5561 H         1 UNK         0.3000 
    165 H165       -2.2251  -17.5953  -40.3832 H         1 UNK         0.0600 
    166 H166       -1.4732  -16.6080  -38.2363 H         1 UNK         0.0600 
    167 H167       -0.5339  -18.0468  -38.5993 H         1 UNK         0.0600 
    168 H168        0.1743  -16.4553  -38.8480 H         1 UNK         0.0600 
    169 H169       -1.2309  -14.9172  -40.1828 H         1 UNK         0.3000 
    170 H170       -2.4681  -13.7030  -43.2806 H         1 UNK         0.0600 
    171 H171       -4.4837  -13.6967  -41.8060 H         1 UNK         0.0600 
    172 H172       -3.4919  -13.2378  -40.4268 H         1 UNK         0.0600 
    173 H173       -3.6806  -12.1349  -41.7906 H         1 UNK         0.0600 
    174 H174       -1.2311  -12.4211  -41.0488 H         1 UNK         0.3000 
    175 H175        0.8731  -11.5361  -41.3987 H         1 UNK         0.0600 
    176 H176        2.2091  -14.2524  -40.8207 H         1 UNK         0.0600 
    177 H177        2.5988  -12.7281  -40.0310 H         1 UNK         0.0600 
    178 H178        1.0298  -13.4687  -39.7745 H         1 UNK         0.0600 
    179 H179        2.2468  -12.9487  -43.5250 H         1 UNK         0.3000 
    180 H180        4.5603  -10.2402  -43.8960 H         1 UNK         0.0600 
    181 H181        5.1144  -13.2395  -43.6395 H         1 UNK         0.0600 
    182 H182        5.9505  -11.9394  -42.8100 H         1 UNK         0.0600 
    183 H183        6.0958  -12.0940  -44.5540 H         1 UNK         0.0600 
    184 H184        3.4359  -10.5815  -45.7319 H         1 UNK         0.3000 
    185 H185        1.3330  -12.4904  -46.9987 H         1 UNK         0.0600 
    186 H186        2.3146  -10.2285  -47.3163 H         1 UNK         0.0600 
    187 H187        3.7768  -10.9264  -48.0201 H         1 UNK         0.0600 
    188 H188        2.2353  -11.0504  -48.8585 H         1 UNK         0.0600 
    189 H189        3.7292  -13.9509  -47.7202 H         1 UNK         0.3000 
    190 H190       -1.5342  -20.4910  -47.4842 H         1 UNK         0.3000 
    191 H191       -2.5011  -21.6426  -49.8618 H         1 UNK         0.0600 
    192 H192       -4.0143  -20.7237  -47.3618 H         1 UNK         0.0600 
    193 H193       -4.7454  -21.0510  -48.9276 H         1 UNK         0.0600 
    194 H194       -3.5947  -19.7355  -48.7564 H         1 UNK         0.0600 
    195 H195       -2.7052  -22.8831  -46.4919 H         1 UNK         0.3000 
    196 H196       -4.1734  -25.2410  -47.0710 H         1 UNK         0.0600 
    197 H197       -3.3335  -25.9932  -44.8382 H         1 UNK         0.0600 
    198 H198       -3.9389  -24.3447  -44.7823 H         1 UNK         0.0600 
    199 H199       -2.2032  -24.6451  -44.8012 H         1 UNK         0.0600 
    200 H200       -0.6120  -24.6932  -46.8741 H         1 UNK         0.3000 
    201 H201        0.1819  -27.3503  -47.4674 H         1 UNK         0.0600 
    202 H202        1.6995  -25.6757  -46.4580 H         1 UNK         0.0600 
    203 H203        1.6494  -24.6982  -47.9231 H         1 UNK         0.0600 
    204 H204        2.3960  -26.2913  -47.9491 H         1 UNK         0.0600 
    205 H205       -0.5129  -24.5818  -49.6053 H         1 UNK         0.3000 
    206 H206        0.1036  -25.9529  -52.0770 H         1 UNK         0.0600 
    207 H207        0.2338  -23.4725  -51.8113 H         1 UNK         0.0600 
    208 H208       -0.8884  -23.9062  -53.0887 H         1 UNK         0.0600 
    209 H209       -1.5020  -23.3992  -51.5179 H         1 UNK         0.0600 
    210 H210       -2.4786  -26.3989  -49.9402 H         1 UNK         0.3000 
    211 H211       -4.5238  -27.2306  -49.9775 H         1 UNK         0.0600 
    212 H212       -3.7492  -28.5262  -52.6467 H         1 UNK         0.0600 
    213 H213       -5.0417  -29.0436  -51.5724 H         1 UNK         0.0600 
    214 H214       -3.3699  -29.1763  -51.0522 H         1 UNK         0.0600 
    215 H215       -4.3043  -24.6284  -50.8043 H         1 UNK         0.3000 
    216 H216       -5.2905  -22.8858  -51.6470 H         1 UNK         0.0600 
    217 H217       -7.7071  -22.8931  -52.0918 H         1 UNK         0.0600 
    218 H218       -7.3629  -23.8898  -50.6898 H         1 UNK         0.0600 
    219 H219       -7.7216  -24.6440  -52.2438 H         1 UNK         0.0600 
    220 H220       -3.9054  -24.9334  -53.6485 H         1 UNK         0.3000 
    221 H221       -4.9418  -24.2048  -56.2230 H         1 UNK         0.0600 
    222 H222       -2.1279  -25.1619  -55.4841 H         1 UNK         0.0600 
    223 H223       -3.5048  -26.2234  -55.7865 H         1 UNK         0.0600 
    224 H224       -2.8700  -25.2116  -57.0758 H         1 UNK         0.0600 
    225 H225       -2.8297  -22.6053  -53.9715 H         1 UNK         0.3000 
    226 H226       -1.9749  -20.4839  -55.8483 H         1 UNK         0.0600 
    227 H227       -0.3487  -21.4242  -54.1840 H         1 UNK         0.0600 
    228 H228       -0.6443  -19.7182  -53.9027 H         1 UNK         0.0600 
    229 H229       -1.4061  -20.9186  -52.8664 H         1 UNK         0.0600 
    230 H230       -4.8211  -21.1237  -54.6515 H         1 UNK         0.3000 
    231 H231       -6.7056  -20.0523  -54.2585 H         1 UNK         0.0600 
    232 H232       -5.8444  -17.8706  -55.2553 H         1 UNK         0.0600 
    233 H233       -5.2866  -17.4084  -53.6454 H         1 UNK         0.0600 
    234 H234       -6.9943  -17.6636  -53.9451 H         1 UNK         0.0600 
    235 H235       -7.8959  -19.2765  -52.3113 H         1 UNK         0.3000 
    236 H236       -6.7578  -20.4956  -49.8843 H         1 UNK         0.0600 
    237 H237       -9.1032  -20.3791  -49.0965 H         1 UNK         0.0600 
    238 H238       -9.5764  -19.5128  -50.5542 H         1 UNK         0.0600 
    239 H239       -9.0069  -21.1780  -50.6562 H         1 UNK         0.0600 
    240 H240       -5.1883  -18.4601  -50.1218 H         1 UNK         0.3000 
    241 H241       -6.2451  -15.9848  -49.0457 H         1 UNK         0.0600 
    242 H242       -4.9394  -15.9035  -45.6685 H         1 UNK         0.3800 
    243 H243       -4.9846  -14.8786  -47.0741 H         1 UNK         0.3800 
    244 H244       -4.4295  -15.9233  -50.6955 H         1 UNK         0.0800 
    245 H245       -4.0452  -15.0644  -49.2467 H         1 UNK         0.0800 
    246 H246       -2.7820  -16.9706  -51.8788 H         1 UNK         0.0800 
    247 H247       -2.8784  -18.5870  -51.2259 H         1 UNK         0.0800 
@<TRIPOS>BOND
     1    1    2 1    
     2    1  127 1    
     3    1  128 1    
     4    1  129 1    
     5    2    3 2    
     6    2    4 am   BACKBONE|DICT|INTERRES
     7    4    5 1    
     8    4  130 1    
     9    5    6 1    
    10    5   65 1    
    11    5  131 1    
    12    6    7 1    
    13    6  132 1    
    14    6  133 1    
    15    7    8 1    
    16    8    9 1    
    17    8  134 1    
    18    8  135 1    
    19    9   10 ar   
    20    9   14 ar   
    21   10   11 ar   
    22   10  136 1    
    23   11   12 ar   
    24   11  126 1    
    25   12   13 ar   
    26   12  137 1    
    27   13   14 ar   
    28   13   15 1    
    29   14  138 1    
    30   15   16 1    
    31   15  139 1    
    32   15  140 1    
    33   16   17 1    
    34   17   18 1    
    35   17  141 1    
    36   17  142 1    
    37   18   19 1    
    38   18   67 1    
    39   18  143 1    
    40   19   20 am   BACKBONE|DICT|INTERRES
    41   19  144 1    
    42   20   21 2    
    43   20   22 1    
    44   22   23 1    
    45   22   24 1    
    46   22  145 1    
    47   23  146 1    
    48   23  147 1    
    49   23  148 1    
    50   24   25 am   BACKBONE|DICT|INTERRES
    51   24  149 1    
    52   25   26 2    
    53   25   27 1    
    54   27   28 1    
    55   27   29 1    
    56   27  150 1    
    57   28  151 1    
    58   28  152 1    
    59   28  153 1    
    60   29   30 am   BACKBONE|DICT|INTERRES
    61   29  154 1    
    62   30   31 2    
    63   30   32 1    
    64   32   33 1    
    65   32   34 1    
    66   32  155 1    
    67   33  156 1    
    68   33  157 1    
    69   33  158 1    
    70   34   35 am   BACKBONE|DICT|INTERRES
    71   34  159 1    
    72   35   36 2    
    73   35   37 1    
    74   37   38 1    
    75   37   39 1    
    76   37  160 1    
    77   38  161 1    
    78   38  162 1    
    79   38  163 1    
    80   39   40 am   BACKBONE|DICT|INTERRES
    81   39  164 1    
    82   40   41 2    
    83   40   42 1    
    84   42   43 1    
    85   42   44 1    
    86   42  165 1    
    87   43  166 1    
    88   43  167 1    
    89   43  168 1    
    90   44   45 am   BACKBONE|DICT|INTERRES
    91   44  169 1    
    92   45   46 2    
    93   45   47 1    
    94   47   48 1    
    95   47   49 1    
    96   47  170 1    
    97   48  171 1    
    98   48  172 1    
    99   48  173 1    
   100   49   50 am   BACKBONE|DICT|INTERRES
   101   49  174 1    
   102   50   51 2    
   103   50   52 1    
   104   52   53 1    
   105   52   54 1    
   106   52  175 1    
   107   53  176 1    
   108   53  177 1    
   109   53  178 1    
   110   54   55 am   BACKBONE|DICT|INTERRES
   111   54  179 1    
   112   55   56 2    
   113   55   57 1    
   114   57   58 1    
   115   57   59 1    
   116   57  180 1    
   117   58  181 1    
   118   58  182 1    
   119   58  183 1    
   120   59   60 am   BACKBONE|DICT|INTERRES
   121   59  184 1    
   122   60   61 2    
   123   60   62 1    
   124   62   63 1    
   125   62   64 1    
   126   62  185 1    
   127   63  186 1    
   128   63  187 1    
   129   63  188 1    
   130   64   65 am   BACKBONE|DICT|INTERRES
   131   64  189 1    
   132   65   66 2    
   133   67   68 2    
   134   67   69 am   BACKBONE|DICT|INTERRES
   135   69   70 1    
   136   69  190 1    
   137   70   71 1    
   138   70   72 1    
   139   70  191 1    
   140   71  192 1    
   141   71  193 1    
   142   71  194 1    
   143   72   73 2    
   144   72   74 am   BACKBONE|DICT|INTERRES
   145   74   75 1    
   146   74  195 1    
   147   75   76 1    
   148   75   77 1    
   149   75  196 1    
   150   76  197 1    
   151   76  198 1    
   152   76  199 1    
   153   77   78 2    
   154   77   79 am   BACKBONE|DICT|INTERRES
   155   79   80 1    
   156   79  200 1    
   157   80   81 1    
   158   80   82 1    
   159   80  201 1    
   160   81  202 1    
   161   81  203 1    
   162   81  204 1    
   163   82   83 2    
   164   82   84 am   BACKBONE|DICT|INTERRES
   165   84   85 1    
   166   84  205 1    
   167   85   86 1    
   168   85   87 1    
   169   85  206 1    
   170   86  207 1    
   171   86  208 1    
   172   86  209 1    
   173   87   88 2    
   174   87   89 am   BACKBONE|DICT|INTERRES
   175   89   90 1    
   176   89  210 1    
   177   90   91 1    
   178   90   92 1    
   179   90  211 1    
   180   91  212 1    
   181   91  213 1    
   182   91  214 1    
   183   92   93 2    
   184   92   94 am   BACKBONE|DICT|INTERRES
   185   94   95 1    
   186   94  215 1    
   187   95   96 1    
   188   95   97 1    
   189   95  216 1    
   190   96  217 1    
   191   96  218 1    
   192   96  219 1    
   193   97   98 2    
   194   97   99 am   BACKBONE|DICT|INTERRES
   195   99  100 1    
   196   99  220 1    
   197  100  101 1    
   198  100  102 1    
   199  100  221 1    
   200  101  222 1    
   201  101  223 1    
   202  101  224 1    
   203  102  103 2    
   204  102  104 am   BACKBONE|DICT|INTERRES
   205  104  105 1    
   206  104  225 1    
   207  105  106 1    
   208  105  107 1    
   209  105  226 1    
   210  106  227 1    
   211  106  228 1    
   212  106  229 1    
   213  107  108 2    
   214  107  109 am   BACKBONE|DICT|INTERRES
   215  109  110 1    
   216  109  230 1    
   217  110  111 1    
   218  110  112 1    
   219  110  231 1    
   220  111  232 1    
   221  111  233 1    
   222  111  234 1    
   223  112  113 2    
   224  112  114 am   BACKBONE|DICT|INTERRES
   225  114  115 1    
   226  114  235 1    
   227  115  116 1    
   228  115  117 1    
   229  115  236 1    
   230  116  237 1    
   231  116  238 1    
   232  116  239 1    
   233  117  118 2    
   234  117  119 am   BACKBONE|DICT|INTERRES
   235  119  120 1    
   236  119  240 1    
   237  120  121 1    
   238  120  124 1    
   239  120  241 1    
   240  121  122 am   BACKBONE|DICT|INTERRES
   241  121  123 2    
   242  122  242 1    
   243  122  243 1    
   244  124  125 1    
   245  124  244 1    
   246  124  245 1    
   247  125  126 1    
   248  126  246 1    
   249  126  247 1    
@<TRIPOS>SUBSTRUCTURE
     1 UNK         1 GROUP             0       ****    0 ROOT    
