@<TRIPOS>MOLECULE
3R540
247   249    1
SMALL
USER_CHARGES


@<TRIPOS>ATOM
      1 CA         -1.7348  -16.5738  -47.8741 C.3       0 UNK        -0.1800 
      2 C          -2.1288  -15.1211  -47.6469 C.2       0 UNK         0.5000 
      3 O          -1.8492  -14.2825  -48.5007 O.2       0 UNK        -0.5000 
      4 N          -2.7278  -14.8305  -46.4819 N.am      1 UNK        -0.5000 
      5 CA         -3.2839  -13.5579  -45.9751 C.3       1 UNK         0.1400 
      6 C6         -4.7040  -13.2212  -46.5114 C.3       23 UNK        -0.0398 
      7 S7         -4.8224  -12.8220  -48.2922 S.3       23 UNK        -0.2404 
      8 C8         -6.1497  -13.9396  -48.8500 C.3       23 UNK        -0.0205 
      9 C9         -5.6962  -15.3908  -48.9027 C.ar      23 UNK        -0.0193 
     10 C10        -5.0026  -15.8701  -50.0186 C.ar      23 UNK        -0.1150 
     11 C11        -4.5789  -17.2012  -50.0704 C.ar      23 UNK        -0.0193 
     12 C12        -4.8461  -18.0511  -48.9946 C.ar      23 UNK        -0.1150 
     13 C13        -5.5405  -17.5836  -47.8773 C.ar      23 UNK        -0.0193 
     14 C14        -5.9739  -16.2569  -47.8406 C.ar      23 UNK        -0.1150 
     15 C15        -5.8068  -18.5148  -46.7099 C.3       23 UNK        -0.0205 
     16 S16        -4.3811  -18.5454  -45.5828 S.3       23 UNK        -0.2404 
     17 C17        -4.5941  -20.1898  -44.8302 C.3       23 UNK        -0.0398 
     18 CA         -3.9159  -21.3098  -45.6580 C.3       11 UNK         0.1400 
     19 N          -2.4953  -21.0599  -45.9210 N.am      11 UNK        -0.5000 
     20 C          -1.7405  -21.7499  -46.7875 C.2       10 UNK         0.5000 
     21 O          -2.1679  -22.6586  -47.4982 O.2       10 UNK        -0.5000 
     22 CA         -0.2455  -21.3976  -46.8377 C.3       10 UNK         0.1400 
     23 CB          0.0014  -20.2315  -47.8056 C.3       10 UNK        -0.1800 
     24 N           0.2785  -21.0774  -45.5085 N.am      10 UNK        -0.5000 
     25 C           0.4453  -21.9910  -44.5379 C.2       9 UNK         0.5000 
     26 O           0.2344  -23.1925  -44.6963 O.2       9 UNK        -0.5000 
     27 CA          0.8645  -21.4845  -43.1442 C.3       9 UNK         0.1400 
     28 CB          2.3942  -21.4701  -43.0161 C.3       9 UNK        -0.1800 
     29 N           0.3327  -20.1569  -42.8344 N.am      9 UNK        -0.5000 
     30 C          -0.9748  -19.8677  -42.7408 C.2       8 UNK         0.5000 
     31 O          -1.8592  -20.7215  -42.8127 O.2       8 UNK        -0.5000 
     32 CA         -1.3752  -18.3835  -42.5979 C.3       8 UNK         0.1400 
     33 CB         -1.7324  -18.0637  -41.1394 C.3       8 UNK        -0.1800 
     34 N          -0.3522  -17.4396  -43.0562 N.am      8 UNK        -0.5000 
     35 C           0.1517  -17.3787  -44.2974 C.2       7 UNK         0.5000 
     36 O          -0.2551  -18.0727  -45.2281 O.2       7 UNK        -0.5000 
     37 CA          1.3485  -16.4324  -44.5251 C.3       7 UNK         0.1400 
     38 CB          0.8724  -15.1103  -45.1438 C.3       7 UNK        -0.1800 
     39 N           2.1389  -16.1314  -43.3248 N.am      7 UNK        -0.5000 
     40 C           2.7440  -17.0229  -42.5245 C.2       6 UNK         0.5000 
     41 O           2.6317  -18.2428  -42.6524 O.2       6 UNK        -0.5000 
     42 CA          3.6071  -16.4263  -41.3937 C.3       6 UNK         0.1400 
     43 CB          4.4279  -17.4866  -40.6295 C.3       6 UNK        -0.1800 
     44 N           4.4609  -15.3313  -41.8727 N.am      6 UNK        -0.5000 
     45 C           5.4436  -15.4038  -42.7856 C.2       5 UNK         0.5000 
     46 O           5.8066  -16.4549  -43.3151 O.2       5 UNK        -0.5000 
     47 CA          6.1227  -14.0796  -43.1974 C.3       5 UNK         0.1400 
     48 CB          6.3484  -14.0148  -44.7185 C.3       5 UNK        -0.1800 
     49 N           5.3489  -12.9012  -42.8044 N.am      5 UNK        -0.5000 
     50 C           5.4758  -12.2040  -41.6724 C.2       4 UNK         0.5000 
     51 O           6.2667  -12.5003  -40.7768 O.2       4 UNK        -0.5000 
     52 CA          4.5471  -10.9841  -41.4967 C.3       4 UNK         0.1400 
     53 CB          5.0842   -9.7669  -42.2735 C.3       4 UNK        -0.1800 
     54 N           3.1259  -11.2255  -41.8020 N.am      4 UNK        -0.5000 
     55 C           2.5433  -11.5200  -42.9745 C.2       3 UNK         0.5000 
     56 O           3.1707  -11.7199  -44.0177 O.2       3 UNK        -0.5000 
     57 CA          1.0052  -11.6751  -42.9539 C.3       3 UNK         0.1400 
     58 CB          0.3005  -10.5640  -42.1450 C.3       3 UNK        -0.1800 
     59 N           0.4240  -11.7868  -44.2970 N.am      3 UNK        -0.5000 
     60 C           0.4237  -10.8667  -45.2741 C.2       2 UNK         0.5000 
     61 O           0.8704   -9.7247  -45.1549 O.2       2 UNK        -0.5000 
     62 CA         -0.1814  -11.2982  -46.6258 C.3       2 UNK         0.1400 
     63 CB          0.9333  -11.7239  -47.5941 C.3       2 UNK        -0.1800 
     64 N          -1.1604  -12.3859  -46.5350 N.am      2 UNK        -0.5000 
     65 C          -2.3572  -12.3140  -45.9402 C.2       1 UNK         0.5000 
     66 O          -2.7391  -11.3102  -45.3361 O.2       1 UNK        -0.5000 
     67 C          -4.1207  -22.6813  -44.9895 C.2       11 UNK         0.5000 
     68 O          -4.9718  -23.4523  -45.4340 O.2       11 UNK        -0.5000 
     69 N          -3.2930  -22.9842  -43.9781 N.am      12 UNK        -0.5000 
     70 CA         -3.2488  -24.2752  -43.2850 C.3       12 UNK         0.1400 
     71 CB         -2.2692  -24.1813  -42.1059 C.3       12 UNK        -0.1800 
     72 C          -2.8723  -25.4476  -44.2134 C.2       12 UNK         0.5000 
     73 O          -3.3837  -26.5536  -44.0386 O.2       12 UNK        -0.5000 
     74 N          -2.0231  -25.1682  -45.2101 N.am      13 UNK        -0.5000 
     75 CA         -1.6218  -26.0861  -46.2752 C.3       13 UNK         0.1400 
     76 CB         -0.2136  -25.6944  -46.7527 C.3       13 UNK        -0.1800 
     77 C          -2.6184  -26.1427  -47.4545 C.2       13 UNK         0.5000 
     78 O          -2.2804  -26.7315  -48.4808 O.2       13 UNK        -0.5000 
     79 N          -3.8093  -25.5389  -47.3131 N.am      14 UNK        -0.5000 
     80 CA         -4.9039  -25.4971  -48.2897 C.3       14 UNK         0.1400 
     81 CB         -5.4828  -26.9077  -48.5284 C.3       14 UNK        -0.1800 
     82 C          -4.4899  -24.7865  -49.5926 C.2       14 UNK         0.5000 
     83 O          -4.4569  -25.4015  -50.6608 O.2       14 UNK        -0.5000 
     84 N          -4.1346  -23.5013  -49.4553 N.am      15 UNK        -0.5000 
     85 CA         -3.6138  -22.6127  -50.5007 C.3       15 UNK         0.1400 
     86 CB         -4.6840  -22.3427  -51.5797 C.3       15 UNK        -0.1800 
     87 C          -2.2773  -23.1252  -51.0734 C.2       15 UNK         0.5000 
     88 O          -2.0670  -23.0913  -52.2868 O.2       15 UNK        -0.5000 
     89 N          -1.4162  -23.6267  -50.1742 N.am      16 UNK        -0.5000 
     90 CA         -0.1331  -24.2822  -50.4486 C.3       16 UNK         0.1400 
     91 CB          0.8986  -23.2459  -50.9412 C.3       16 UNK        -0.1800 
     92 C          -0.2915  -25.4821  -51.4071 C.2       16 UNK         0.5000 
     93 O           0.3785  -25.5416  -52.4369 O.2       16 UNK        -0.5000 
     94 N          -1.2271  -26.3852  -51.0780 N.am      17 UNK        -0.5000 
     95 CA         -1.6932  -27.5127  -51.8945 C.3       17 UNK         0.1400 
     96 CB         -0.5952  -28.5893  -52.0189 C.3       17 UNK        -0.1800 
     97 C          -2.2579  -27.0558  -53.2583 C.2       17 UNK         0.5000 
     98 O          -1.9785  -27.6712  -54.2888 O.2       17 UNK        -0.5000 
     99 N          -3.0230  -25.9555  -53.2247 N.am      18 UNK        -0.5000 
    100 CA        -3.6217  -25.2318  -54.3509 C.3       18 UNK         0.1400 
    101 CB        -4.6940  -26.0980  -55.0437 C.3       18 UNK        -0.1800 
    102 C         -2.6074  -24.6268  -55.3502 C.2       18 UNK         0.5000 
    103 O         -2.9920  -24.3094  -56.4773 O.2       18 UNK        -0.5000 
    104 N         -1.3416  -24.4608  -54.9400 N.am      19 UNK        -0.5000 
    105 CA        -0.2846  -23.8655  -55.7599 C.3       19 UNK         0.1400 
    106 CB         1.0736  -24.4575  -55.3548 C.3       19 UNK        -0.1800 
    107 C         -0.2417  -22.3290  -55.6646 C.2       19 UNK         0.5000 
    108 O          0.3418  -21.6976  -56.5479 O.2       19 UNK        -0.5000 
    109 N         -0.8239  -21.7472  -54.6052 N.am      20 UNK        -0.5000 
    110 CA        -0.8763  -20.3003  -54.3889 C.3       20 UNK         0.1400 
    111 CB        -1.3201  -20.0176  -52.9461 C.3       20 UNK        -0.1800 
    112 C         -1.8006  -19.5855  -55.3946 C.2       20 UNK         0.5000 
    113 O         -2.7311  -20.1934  -55.9310 O.2       20 UNK        -0.5000 
    114 N         -1.5426  -18.2862  -55.6015 N.am      21 UNK        -0.5000 
    115 CA        -2.2222  -17.4139  -56.5692 C.3       21 UNK         0.1400 
    116 CB        -1.5335  -16.0402  -56.5627 C.3       21 UNK        -0.1800 
    117 C         -3.7418  -17.2530  -56.3552 C.2       21 UNK         0.5000 
    118 O         -4.4508  -16.8982  -57.2979 O.2       21 UNK        -0.5000 
    119 N         -4.2135  -17.5303  -55.1348 N.am      22 UNK        -0.5000 
    120 CA        -5.6353  -17.6451  -54.7801 C.3       22 UNK         0.1400 
    121 C         -6.3608  -18.8901  -55.3784 C.2       22 UNK         0.5000 
    122 N         -5.6613  -19.8901  -55.9043 N.am      22 UNK        -0.7600 
    123 O         -7.5879  -18.9403  -55.3777 O.2       22 UNK        -0.5000 
    124 C124       -5.8429  -17.5448  -53.2467 C.3       23 UNK        -0.0398 
    125 S125       -4.8725  -18.7807  -52.3113 S.3       23 UNK        -0.2404 
    126 C126       -3.8148  -17.7295  -51.2721 C.3       23 UNK        -0.0205 
    127 H127       -2.2109  -17.2408  -47.1563 H         1 UNK         0.0600 
    128 H128       -0.6554  -16.6919  -47.7844 H         1 UNK         0.0600 
    129 H129       -2.0247  -16.8916  -48.8743 H         1 UNK         0.0600 
    130 H130       -2.8803  -15.6069  -45.8535 H         1 UNK         0.3000 
    131 H131       -3.4286  -13.7743  -44.9154 H         1 UNK         0.0600 
    132 H132       -5.1216  -12.3766  -45.9608 H         1 UNK         0.0800 
    133 H133       -5.3693  -14.0502  -46.2792 H         1 UNK         0.0800 
    134 H134       -7.0188  -13.8304  -48.1993 H         1 UNK         0.0800 
    135 H135       -6.4756  -13.6267  -49.8430 H         1 UNK         0.0800 
    136 H136       -4.7862  -15.2025  -50.8407 H         1 UNK         0.1150 
    137 H137       -4.5083  -19.0776  -49.0263 H         1 UNK         0.1150 
    138 H138       -6.5176  -15.8991  -46.9781 H         1 UNK         0.1150 
    139 H139       -6.6975  -18.2043  -46.1617 H         1 UNK         0.0800 
    140 H140       -6.0113  -19.5169  -47.0897 H         1 UNK         0.0800 
    141 H141       -5.6608  -20.3898  -44.7127 H         1 UNK         0.0800 
    142 H142       -4.1862  -20.1485  -43.8199 H         1 UNK         0.0800 
    143 H143       -4.4159  -21.3515  -46.6279 H         1 UNK         0.0600 
    144 H144       -2.0609  -20.3291  -45.3765 H         1 UNK         0.3000 
    145 H145        0.2933  -22.2677  -47.2180 H         1 UNK         0.0600 
    146 H146       -0.5583  -19.3413  -47.5189 H         1 UNK         0.0600 
    147 H147        1.0579  -19.9665  -47.8455 H         1 UNK         0.0600 
    148 H148       -0.3069  -20.4966  -48.8179 H         1 UNK         0.0600 
    149 H149        0.4125  -20.0954  -45.2970 H         1 UNK         0.3000 
    150 H150        0.4680  -22.1821  -42.4040 H         1 UNK         0.0600 
    151 H151        2.8102  -22.4630  -43.1916 H         1 UNK         0.0600 
    152 H152        2.7043  -21.1584  -42.0185 H         1 UNK         0.0600 
    153 H153        2.8513  -20.7902  -43.7362 H         1 UNK         0.0600 
    154 H154        1.0134  -19.4064  -42.7636 H         1 UNK         0.3000 
    155 H155       -2.2650  -18.2291  -43.2114 H         1 UNK         0.0600 
    156 H156       -2.5145  -18.7304  -40.7733 H         1 UNK         0.0600 
    157 H157       -2.1039  -17.0438  -41.0382 H         1 UNK         0.0600 
    158 H158       -0.8701  -18.1758  -40.4808 H         1 UNK         0.0600 
    159 H159        0.0534  -16.8410  -42.3528 H         1 UNK         0.3000 
    160 H160        2.0175  -16.9228  -45.2351 H         1 UNK         0.0600 
    161 H161        1.7023  -14.4199  -45.2985 H         1 UNK         0.0600 
    162 H162        0.1316  -14.6200  -44.5120 H         1 UNK         0.0600 
    163 H163        0.4144  -15.2808  -46.1170 H         1 UNK         0.0600 
    164 H164        2.3060  -15.1542  -43.1411 H         1 UNK         0.3000 
    165 H165        2.9092  -15.9827  -40.6822 H         1 UNK         0.0600 
    166 H166        5.1085  -18.0289  -41.2863 H         1 UNK         0.0600 
    167 H167        5.0193  -17.0305  -39.8357 H         1 UNK         0.0600 
    168 H168        3.7726  -18.2233  -40.1633 H         1 UNK         0.0600 
    169 H169        4.2594  -14.4176  -41.4936 H         1 UNK         0.3000 
    170 H170        7.0986  -14.0535  -42.7088 H         1 UNK         0.0600 
    171 H171        5.4071  -14.0797  -45.2660 H         1 UNK         0.0600 
    172 H172        6.8379  -13.0835  -45.0042 H         1 UNK         0.0600 
    173 H173        6.9866  -14.8306  -45.0602 H         1 UNK         0.0600 
    174 H174        4.6436  -12.5764  -43.4643 H         1 UNK         0.3000 
    175 H175        4.5767  -10.7265  -40.4367 H         1 UNK         0.0600 
    176 H176        5.0942   -9.9400  -43.3501 H         1 UNK         0.0600 
    177 H177        4.4793   -8.8804  -42.0829 H         1 UNK         0.0600 
    178 H178        6.1063   -9.5336  -41.9728 H         1 UNK         0.0600 
    179 H179        2.5146  -11.1273  -41.0033 H         1 UNK         0.3000 
    180 H180        0.7999  -12.6264  -42.4612 H         1 UNK         0.0600 
    181 H181        0.5819   -9.5687  -42.4905 H         1 UNK         0.0600 
    182 H182        0.5463  -10.6240  -41.0846 H         1 UNK         0.0600 
    183 H183       -0.7836  -10.6488  -42.2240 H         1 UNK         0.0600 
    184 H184        0.0369  -12.6876  -44.5317 H         1 UNK         0.3000 
    185 H185       -0.6888  -10.4288  -47.0487 H         1 UNK         0.0600 
    186 H186        0.5320  -11.9551  -48.5812 H         1 UNK         0.0600 
    187 H187        1.6679  -10.9275  -47.7204 H         1 UNK         0.0600 
    188 H188        1.4641  -12.6053  -47.2321 H         1 UNK         0.0600 
    189 H189       -0.9901  -13.2029  -47.1108 H         1 UNK         0.3000 
    190 H190       -2.6473  -22.2704  -43.6505 H         1 UNK         0.3000 
    191 H191       -4.2464  -24.4733  -42.8879 H         1 UNK         0.0600 
    192 H192       -1.2508  -23.9900  -42.4447 H         1 UNK         0.0600 
    193 H193       -2.5501  -23.3808  -41.4212 H         1 UNK         0.0600 
    194 H194       -2.2560  -25.1102  -41.5345 H         1 UNK         0.0600 
    195 H195       -1.6088  -24.2447  -45.2417 H         1 UNK         0.3000 
    196 H196       -1.5639  -27.0965  -45.8659 H         1 UNK         0.0600 
    197 H197        0.5019  -25.7285  -45.9310 H         1 UNK         0.0600 
    198 H198       -0.1991  -24.6851  -47.1627 H         1 UNK         0.0600 
    199 H199        0.1517  -26.3738  -47.5237 H         1 UNK         0.0600 
    200 H200       -3.9850  -25.0318  -46.4539 H         1 UNK         0.3000 
    201 H201       -5.6944  -24.8927  -47.8423 H         1 UNK         0.0600 
    202 H202       -6.3550  -26.8628  -49.1814 H         1 UNK         0.0600 
    203 H203       -5.8009  -27.3658  -47.5919 H         1 UNK         0.0600 
    204 H204       -4.7599  -27.5747  -48.9989 H         1 UNK         0.0600 
    205 H205       -4.0748  -23.1323  -48.5149 H         1 UNK         0.3000 
    206 H206       -3.3860  -21.6604  -50.0194 H         1 UNK         0.0600 
    207 H207       -4.3005  -21.6937  -52.3665 H         1 UNK         0.0600 
    208 H208       -5.5541  -21.8473  -51.1494 H         1 UNK         0.0600 
    209 H209       -5.0273  -23.2579  -52.0592 H         1 UNK         0.0600 
    210 H210       -1.6943  -23.5779  -49.1989 H         1 UNK         0.3000 
    211 H211        0.2282  -24.6864  -49.5036 H         1 UNK         0.0600 
    212 H212        1.0026  -22.4257  -50.2310 H         1 UNK         0.0600 
    213 H213        1.8825  -23.7012  -51.0587 H         1 UNK         0.0600 
    214 H214        0.6192  -22.8201  -51.9057 H         1 UNK         0.0600 
    215 H215       -1.7099  -26.2836  -50.1873 H         1 UNK         0.3000 
    216 H216       -2.5296  -27.9543  -51.3506 H         1 UNK         0.0600 
    217 H217       -0.9784  -29.4814  -52.5153 H         1 UNK         0.0600 
    218 H218        0.2582  -28.2346  -52.5975 H         1 UNK         0.0600 
    219 H219       -0.2320  -28.8952  -51.0378 H         1 UNK         0.0600 
    220 H220       -3.2199  -25.5571  -52.3120 H         1 UNK         0.3000 
    221 H221       -4.1333  -24.3767  -53.9099 H         1 UNK         0.0600 
    222 H222       -5.4092  -26.4912  -54.3211 H         1 UNK         0.0600 
    223 H223       -5.2598  -25.5157  -55.7717 H         1 UNK         0.0600 
    224 H224       -4.2521  -26.9422  -55.5735 H         1 UNK         0.0600 
    225 H225       -1.0932  -24.7232  -53.9934 H         1 UNK         0.3000 
    226 H226       -0.4570  -24.1265  -56.8061 H         1 UNK         0.0600 
    227 H227        1.0478  -25.5474  -55.3487 H         1 UNK         0.0600 
    228 H228        1.8530  -24.1530  -56.0542 H         1 UNK         0.0600 
    229 H229        1.3795  -24.1204  -54.3641 H         1 UNK         0.0600 
    230 H230       -1.2997  -22.3274  -53.9197 H         1 UNK         0.3000 
    231 H231        0.1348  -19.9079  -54.5167 H         1 UNK         0.0600 
    232 H232       -1.3053  -18.9487  -52.7321 H         1 UNK         0.0600 
    233 H233       -0.6592  -20.5010  -52.2264 H         1 UNK         0.0600 
    234 H234       -2.3327  -20.3758  -52.7642 H         1 UNK         0.0600 
    235 H235       -0.7731  -17.8648  -55.1012 H         1 UNK         0.3000 
    236 H236       -2.0864  -17.8585  -57.5571 H         1 UNK         0.0600 
    237 H237       -0.4772  -16.1256  -56.8182 H         1 UNK         0.0600 
    238 H238       -1.9883  -15.3699  -57.2935 H         1 UNK         0.0600 
    239 H239       -1.6068  -15.5592  -55.5865 H         1 UNK         0.0600 
    240 H240       -3.5619  -17.8367  -54.4286 H         1 UNK         0.3000 
    241 H241       -6.1392  -16.7827  -55.2207 H         1 UNK         0.0600 
    242 H242       -4.6452  -19.8845  -55.9004 H         1 UNK         0.3800 
    243 H243       -6.1493  -20.6812  -56.2917 H         1 UNK         0.3800 
    244 H244       -5.5717  -16.5427  -52.9142 H         1 UNK         0.0800 
    245 H245       -6.8965  -17.6595  -52.9864 H         1 UNK         0.0800 
    246 H246       -2.9685  -18.3218  -50.9216 H         1 UNK         0.0800 
    247 H247       -3.3936  -16.9150  -51.8634 H         1 UNK         0.0800 
@<TRIPOS>BOND
     1    1    2 1    
     2    1  127 1    
     3    1  128 1    
     4    1  129 1    
     5    2    3 2    
     6    2    4 am   BACKBONE|DICT|INTERRES
     7    4    5 1    
     8    4  130 1    
     9    5    6 1    
    10    5   65 1    
    11    5  131 1    
    12    6    7 1    
    13    6  132 1    
    14    6  133 1    
    15    7    8 1    
    16    8    9 1    
    17    8  134 1    
    18    8  135 1    
    19    9   10 ar   
    20    9   14 ar   
    21   10   11 ar   
    22   10  136 1    
    23   11   12 ar   
    24   11  126 1    
    25   12   13 ar   
    26   12  137 1    
    27   13   14 ar   
    28   13   15 1    
    29   14  138 1    
    30   15   16 1    
    31   15  139 1    
    32   15  140 1    
    33   16   17 1    
    34   17   18 1    
    35   17  141 1    
    36   17  142 1    
    37   18   19 1    
    38   18   67 1    
    39   18  143 1    
    40   19   20 am   BACKBONE|DICT|INTERRES
    41   19  144 1    
    42   20   21 2    
    43   20   22 1    
    44   22   23 1    
    45   22   24 1    
    46   22  145 1    
    47   23  146 1    
    48   23  147 1    
    49   23  148 1    
    50   24   25 am   BACKBONE|DICT|INTERRES
    51   24  149 1    
    52   25   26 2    
    53   25   27 1    
    54   27   28 1    
    55   27   29 1    
    56   27  150 1    
    57   28  151 1    
    58   28  152 1    
    59   28  153 1    
    60   29   30 am   BACKBONE|DICT|INTERRES
    61   29  154 1    
    62   30   31 2    
    63   30   32 1    
    64   32   33 1    
    65   32   34 1    
    66   32  155 1    
    67   33  156 1    
    68   33  157 1    
    69   33  158 1    
    70   34   35 am   BACKBONE|DICT|INTERRES
    71   34  159 1    
    72   35   36 2    
    73   35   37 1    
    74   37   38 1    
    75   37   39 1    
    76   37  160 1    
    77   38  161 1    
    78   38  162 1    
    79   38  163 1    
    80   39   40 am   BACKBONE|DICT|INTERRES
    81   39  164 1    
    82   40   41 2    
    83   40   42 1    
    84   42   43 1    
    85   42   44 1    
    86   42  165 1    
    87   43  166 1    
    88   43  167 1    
    89   43  168 1    
    90   44   45 am   BACKBONE|DICT|INTERRES
    91   44  169 1    
    92   45   46 2    
    93   45   47 1    
    94   47   48 1    
    95   47   49 1    
    96   47  170 1    
    97   48  171 1    
    98   48  172 1    
    99   48  173 1    
   100   49   50 am   BACKBONE|DICT|INTERRES
   101   49  174 1    
   102   50   51 2    
   103   50   52 1    
   104   52   53 1    
   105   52   54 1    
   106   52  175 1    
   107   53  176 1    
   108   53  177 1    
   109   53  178 1    
   110   54   55 am   BACKBONE|DICT|INTERRES
   111   54  179 1    
   112   55   56 2    
   113   55   57 1    
   114   57   58 1    
   115   57   59 1    
   116   57  180 1    
   117   58  181 1    
   118   58  182 1    
   119   58  183 1    
   120   59   60 am   BACKBONE|DICT|INTERRES
   121   59  184 1    
   122   60   61 2    
   123   60   62 1    
   124   62   63 1    
   125   62   64 1    
   126   62  185 1    
   127   63  186 1    
   128   63  187 1    
   129   63  188 1    
   130   64   65 am   BACKBONE|DICT|INTERRES
   131   64  189 1    
   132   65   66 2    
   133   67   68 2    
   134   67   69 am   BACKBONE|DICT|INTERRES
   135   69   70 1    
   136   69  190 1    
   137   70   71 1    
   138   70   72 1    
   139   70  191 1    
   140   71  192 1    
   141   71  193 1    
   142   71  194 1    
   143   72   73 2    
   144   72   74 am   BACKBONE|DICT|INTERRES
   145   74   75 1    
   146   74  195 1    
   147   75   76 1    
   148   75   77 1    
   149   75  196 1    
   150   76  197 1    
   151   76  198 1    
   152   76  199 1    
   153   77   78 2    
   154   77   79 am   BACKBONE|DICT|INTERRES
   155   79   80 1    
   156   79  200 1    
   157   80   81 1    
   158   80   82 1    
   159   80  201 1    
   160   81  202 1    
   161   81  203 1    
   162   81  204 1    
   163   82   83 2    
   164   82   84 am   BACKBONE|DICT|INTERRES
   165   84   85 1    
   166   84  205 1    
   167   85   86 1    
   168   85   87 1    
   169   85  206 1    
   170   86  207 1    
   171   86  208 1    
   172   86  209 1    
   173   87   88 2    
   174   87   89 am   BACKBONE|DICT|INTERRES
   175   89   90 1    
   176   89  210 1    
   177   90   91 1    
   178   90   92 1    
   179   90  211 1    
   180   91  212 1    
   181   91  213 1    
   182   91  214 1    
   183   92   93 2    
   184   92   94 am   BACKBONE|DICT|INTERRES
   185   94   95 1    
   186   94  215 1    
   187   95   96 1    
   188   95   97 1    
   189   95  216 1    
   190   96  217 1    
   191   96  218 1    
   192   96  219 1    
   193   97   98 2    
   194   97   99 am   BACKBONE|DICT|INTERRES
   195   99  100 1    
   196   99  220 1    
   197  100  101 1    
   198  100  102 1    
   199  100  221 1    
   200  101  222 1    
   201  101  223 1    
   202  101  224 1    
   203  102  103 2    
   204  102  104 am   BACKBONE|DICT|INTERRES
   205  104  105 1    
   206  104  225 1    
   207  105  106 1    
   208  105  107 1    
   209  105  226 1    
   210  106  227 1    
   211  106  228 1    
   212  106  229 1    
   213  107  108 2    
   214  107  109 am   BACKBONE|DICT|INTERRES
   215  109  110 1    
   216  109  230 1    
   217  110  111 1    
   218  110  112 1    
   219  110  231 1    
   220  111  232 1    
   221  111  233 1    
   222  111  234 1    
   223  112  113 2    
   224  112  114 am   BACKBONE|DICT|INTERRES
   225  114  115 1    
   226  114  235 1    
   227  115  116 1    
   228  115  117 1    
   229  115  236 1    
   230  116  237 1    
   231  116  238 1    
   232  116  239 1    
   233  117  118 2    
   234  117  119 am   BACKBONE|DICT|INTERRES
   235  119  120 1    
   236  119  240 1    
   237  120  121 1    
   238  120  124 1    
   239  120  241 1    
   240  121  122 am   BACKBONE|DICT|INTERRES
   241  121  123 2    
   242  122  242 1    
   243  122  243 1    
   244  124  125 1    
   245  124  244 1    
   246  124  245 1    
   247  125  126 1    
   248  126  246 1    
   249  126  247 1    
@<TRIPOS>SUBSTRUCTURE
     1 UNK         1 GROUP             0       ****    0 ROOT    
