@<TRIPOS>MOLECULE
3R540
247   249    1
SMALL
USER_CHARGES


@<TRIPOS>ATOM
      1 CA          0.6681  -14.1252  -48.8348 C.3       0 UNK        -0.1800 
      2 C          -0.2930  -14.2064  -47.6621 C.2       0 UNK         0.5000 
      3 O           0.0440  -13.7833  -46.5571 O.2       0 UNK        -0.5000 
      4 N          -1.4951  -14.7476  -47.8887 N.am      1 UNK        -0.5000 
      5 CA         -2.5614  -14.8955  -46.8880 C.3       1 UNK         0.1400 
      6 C6         -3.6914  -15.8483  -47.3574 C.3       23 UNK        -0.0398 
      7 S7         -4.2867  -15.5279  -49.0548 S.3       23 UNK        -0.2404 
      8 C8         -4.1097  -17.1754  -49.8245 C.3       23 UNK        -0.0205 
      9 C9         -2.6693  -17.5843  -50.1263 C.ar      23 UNK        -0.0193 
     10 C10        -1.7947  -16.7055  -50.7736 C.ar      23 UNK        -0.1150 
     11 C11        -0.5069  -17.1133  -51.1310 C.ar      23 UNK        -0.0193 
     12 C12        -0.0921  -18.4156  -50.8381 C.ar      23 UNK        -0.1150 
     13 C13        -0.9546  -19.3098  -50.1993 C.ar      23 UNK        -0.0193 
     14 C14        -2.2355  -18.8822  -49.8327 C.ar      23 UNK        -0.1150 
     15 C15        -0.5242  -20.7510  -49.9630 C.3       23 UNK        -0.0205 
     16 S16         0.6908  -20.9169  -48.6133 S.3       23 UNK        -0.2404 
     17 C17         0.7500  -22.7358  -48.4384 C.3       23 UNK        -0.0398 
     18 CA          0.0046  -23.3181  -47.2094 C.3       11 UNK         0.1400 
     19 N           0.6509  -22.9877  -45.9347 N.am      11 UNK        -0.5000 
     20 C           0.4006  -23.6296  -44.7844 C.2       10 UNK         0.5000 
     21 O          -0.3879  -24.5712  -44.7084 O.2       10 UNK        -0.5000 
     22 CA          1.0673  -23.1177  -43.4933 C.3       10 UNK         0.1400 
     23 CB          1.5526  -24.2669  -42.5868 C.3       10 UNK        -0.1800 
     24 N           2.1190  -22.1201  -43.6972 N.am      10 UNK        -0.5000 
     25 C           3.3374  -22.2748  -44.2324 C.2       9 UNK         0.5000 
     26 O           3.7616  -23.3353  -44.6913 O.2       9 UNK        -0.5000 
     27 CA          4.2321  -21.0180  -44.2729 C.3       9 UNK         0.1400 
     28 CB          4.2968  -20.4648  -45.7050 C.3       9 UNK        -0.1800 
     29 N           3.7753  -19.9533  -43.3721 N.am      9 UNK        -0.5000 
     30 C           3.8735  -19.9801  -42.0345 C.2       8 UNK         0.5000 
     31 O           4.4491  -20.8712  -41.4095 O.2       8 UNK        -0.5000 
     32 CA          3.1637  -18.8473  -41.2660 C.3       8 UNK         0.1400 
     33 CB          4.0199  -17.5720  -41.2443 C.3       8 UNK        -0.1800 
     34 N           1.8409  -18.5408  -41.8169 N.am      8 UNK        -0.5000 
     35 C           0.7896  -19.3747  -41.7891 C.2       7 UNK         0.5000 
     36 O           0.8017  -20.4721  -41.2340 O.2       7 UNK        -0.5000 
     37 CA         -0.4652  -18.9412  -42.5658 C.3       7 UNK         0.1400 
     38 CB         -1.3554  -18.0152  -41.7235 C.3       7 UNK        -0.1800 
     39 N          -0.1001  -18.2796  -43.8170 N.am      7 UNK        -0.5000 
     40 C           0.2696  -18.9286  -44.9297 C.2       6 UNK         0.5000 
     41 O           0.2180  -20.1522  -45.0537 O.2       6 UNK        -0.5000 
     42 CA          0.7708  -18.0732  -46.1063 C.3       6 UNK         0.1400 
     43 CB         -0.3709  -17.8532  -47.0955 C.3       6 UNK        -0.1800 
     44 N           1.2971  -16.7721  -45.6940 N.am      6 UNK        -0.5000 
     45 C           2.4517  -16.5952  -45.0395 C.2       5 UNK         0.5000 
     46 O           3.2116  -17.5126  -44.7361 O.2       5 UNK        -0.5000 
     47 CA          2.7664  -15.1595  -44.5892 C.3       5 UNK         0.1400 
     48 CB          3.4674  -14.3766  -45.7088 C.3       5 UNK        -0.1800 
     49 N           1.5576  -14.4443  -44.1816 N.am      5 UNK        -0.5000 
     50 C           0.8323  -14.7216  -43.0898 C.2       4 UNK         0.5000 
     51 O           1.1281  -15.6255  -42.3068 O.2       4 UNK        -0.5000 
     52 CA         -0.4660  -13.9113  -42.8715 C.3       4 UNK         0.1400 
     53 CB         -0.6990  -13.5632  -41.3877 C.3       4 UNK        -0.1800 
     54 N          -0.5794  -12.7247  -43.7305 N.am      4 UNK        -0.5000 
     55 C           0.1770  -11.6154  -43.7175 C.2       3 UNK         0.5000 
     56 O           1.0413  -11.3852  -42.8715 O.2       3 UNK        -0.5000 
     57 CA         -0.0288  -10.6117  -44.8707 C.3       3 UNK         0.1400 
     58 CB          1.2635  -10.4749  -45.6944 C.3       3 UNK        -0.1800 
     59 N          -1.1036  -11.0181  -45.7793 N.am      3 UNK        -0.5000 
     60 C          -2.3447  -10.5128  -45.7896 C.2       2 UNK         0.5000 
     61 O          -2.7256   -9.6182  -45.0341 O.2       2 UNK        -0.5000 
     62 CA         -3.3344  -11.1123  -46.8118 C.3       2 UNK         0.1400 
     63 CB         -3.3835  -10.2481  -48.0808 C.3       2 UNK        -0.1800 
     64 N          -3.0131  -12.4910  -47.1897 N.am      2 UNK        -0.5000 
     65 C          -3.1055  -13.5475  -46.3701 C.2       1 UNK         0.5000 
     66 O          -3.5312  -13.4765  -45.2172 O.2       1 UNK        -0.5000 
     67 C          -1.5004  -22.9716  -47.1886 C.2       11 UNK         0.5000 
     68 O          -2.3111  -23.7392  -47.7114 O.2       11 UNK        -0.5000 
     69 N          -1.8499  -21.8548  -46.5303 N.am      12 UNK        -0.5000 
     70 CA         -3.2336  -21.4283  -46.3269 C.3       12 UNK         0.1400 
     71 CB         -3.2750  -19.9574  -45.8886 C.3       12 UNK        -0.1800 
     72 C          -3.9814  -22.3202  -45.3229 C.2       12 UNK         0.5000 
     73 O          -5.1774  -22.5536  -45.4912 O.2       12 UNK        -0.5000 
     74 N          -3.2605  -22.8300  -44.3158 N.am      13 UNK        -0.5000 
     75 CA         -3.7833  -23.7890  -43.3440 C.3       13 UNK         0.1400 
     76 CB         -2.8235  -23.8810  -42.1471 C.3       13 UNK        -0.1800 
     77 C          -4.0170  -25.1740  -43.9753 C.2       13 UNK         0.5000 
     78 O          -5.0270  -25.8142  -43.6811 O.2       13 UNK        -0.5000 
     79 N          -3.0823  -25.6028  -44.8338 N.am      14 UNK        -0.5000 
     80 CA         -3.1097  -26.8919  -45.5154 C.3       14 UNK         0.1400 
     81 CB         -1.7133  -27.2033  -46.0771 C.3       14 UNK        -0.1800 
     82 C          -4.1645  -26.9776  -46.6308 C.2       14 UNK         0.5000 
     83 O          -4.8769  -27.9809  -46.6957 O.2       14 UNK        -0.5000 
     84 N          -4.2220  -25.9662  -47.5108 N.am      15 UNK        -0.5000 
     85 CA         -4.9411  -26.0694  -48.7838 C.3       15 UNK         0.1400 
     86 CB         -4.0235  -26.7395  -49.8263 C.3       15 UNK        -0.1800 
     87 C          -5.5358  -24.7387  -49.2792 C.2       15 UNK         0.5000 
     88 O          -5.7331  -24.5870  -50.4875 O.2       15 UNK        -0.5000 
     89 N          -5.8391  -23.8105  -48.3589 N.am      16 UNK        -0.5000 
     90 CA         -6.5276  -22.5222  -48.5545 C.3       16 UNK         0.1400 
     91 CB         -7.9661  -22.7286  -49.0697 C.3       16 UNK        -0.1800 
     92 C          -5.7594  -21.5031  -49.4199 C.2       16 UNK         0.5000 
     93 O          -5.3991  -20.4370  -48.9237 O.2       16 UNK        -0.5000 
     94 N          -5.5237  -21.8528  -50.6861 N.am      17 UNK        -0.5000 
     95 CA         -4.7142  -21.1110  -51.6508 C.3       17 UNK         0.1400 
     96 CB         -5.6097  -20.6591  -52.8146 C.3       17 UNK        -0.1800 
     97 C          -3.5423  -21.9594  -52.1760 C.2       17 UNK         0.5000 
     98 O          -2.6156  -21.3965  -52.7571 O.2       17 UNK        -0.5000 
     99 N          -3.6070  -23.2917  -52.0021 N.am      18 UNK        -0.5000 
    100 CA        -2.5996  -24.2962  -52.3765 C.3       18 UNK         0.1400 
    101 CB        -1.3782  -24.1838  -51.4439 C.3       18 UNK        -0.1800 
    102 C         -2.1977  -24.2875  -53.8691 C.2       18 UNK         0.5000 
    103 O         -1.0970  -24.7234  -54.2094 O.2       18 UNK        -0.5000 
    104 N         -3.0917  -23.7675  -54.7246 N.am      19 UNK        -0.5000 
    105 CA        -2.9078  -23.4911  -56.1542 C.3       19 UNK         0.1400 
    106 CB        -2.7342  -24.8014  -56.9508 C.3       19 UNK        -0.1800 
    107 C         -1.7962  -22.4575  -56.4560 C.2       19 UNK         0.5000 
    108 O         -1.3051  -22.4091  -57.5852 O.2       19 UNK        -0.5000 
    109 N         -1.4239  -21.6360  -55.4611 N.am      20 UNK        -0.5000 
    110 CA        -0.3963  -20.5996  -55.5854 C.3       20 UNK         0.1400 
    111 CB         0.0959  -20.2103  -54.1829 C.3       20 UNK        -0.1800 
    112 C         -0.8951  -19.3604  -56.3537 C.2       20 UNK         0.5000 
    113 O         -0.0851  -18.6575  -56.9573 O.2       20 UNK        -0.5000 
    114 N         -2.2168  -19.1243  -56.3144 N.am      21 UNK        -0.5000 
    115 CA        -2.9854  -18.0794  -57.0095 C.3       21 UNK         0.1400 
    116 CB        -2.8310  -18.2098  -58.5386 C.3       21 UNK        -0.1800 
    117 C         -2.7302  -16.6324  -56.5298 C.2       21 UNK         0.5000 
    118 O         -3.3708  -15.7105  -57.0370 O.2       21 UNK        -0.5000 
    119 N         -1.8383  -16.4507  -55.5510 N.am      22 UNK        -0.5000 
    120 CA        -1.5024  -15.1697  -54.9096 C.3       22 UNK         0.1400 
    121 C         -2.4758  -14.7320  -53.7750 C.2       22 UNK         0.5000 
    122 N         -3.5223  -15.4864  -53.4617 N.am      22 UNK        -0.7600 
    123 O         -2.2902  -13.6753  -53.1779 O.2       22 UNK        -0.5000 
    124 C124       -0.0105  -15.1179  -54.4772 C.3       23 UNK        -0.0398 
    125 S125        0.5955  -16.6092  -53.6090 S.3       23 UNK        -0.2404 
    126 C126        0.4310  -16.1597  -51.8542 C.3       23 UNK        -0.0205 
    127 H127        0.1341  -13.9042  -49.7581 H         1 UNK         0.0600 
    128 H128        1.4006  -13.3345  -48.6723 H         1 UNK         0.0600 
    129 H129        1.2005  -15.0690  -48.9512 H         1 UNK         0.0600 
    130 H130       -1.7259  -15.0909  -48.8109 H         1 UNK         0.3000 
    131 H131       -2.1054  -15.3573  -46.0103 H         1 UNK         0.0600 
    132 H132       -4.5433  -15.8146  -46.6757 H         1 UNK         0.0800 
    133 H133       -3.3339  -16.8763  -47.3086 H         1 UNK         0.0800 
    134 H134       -4.6642  -17.1789  -50.7635 H         1 UNK         0.0800 
    135 H135       -4.5952  -17.9130  -49.1843 H         1 UNK         0.0800 
    136 H136       -2.1270  -15.7083  -51.0225 H         1 UNK         0.1150 
    137 H137        0.8958  -18.7424  -51.1310 H         1 UNK         0.1150 
    138 H138       -2.9072  -19.5742  -49.3451 H         1 UNK         0.1150 
    139 H139       -1.3968  -21.3692  -49.7470 H         1 UNK         0.0800 
    140 H140       -0.0912  -21.1435  -50.8838 H         1 UNK         0.0800 
    141 H141        1.8001  -23.0270  -48.3906 H         1 UNK         0.0800 
    142 H142        0.3717  -23.1963  -49.3511 H         1 UNK         0.0800 
    143 H143        0.0613  -24.4043  -47.3109 H         1 UNK         0.0600 
    144 H144        1.2318  -22.1613  -45.9122 H         1 UNK         0.3000 
    145 H145        0.2774  -22.5953  -42.9525 H         1 UNK         0.0600 
    146 H146        1.9958  -23.8822  -41.6681 H         1 UNK         0.0600 
    147 H147        0.7248  -24.9156  -42.2982 H         1 UNK         0.0600 
    148 H148        2.2952  -24.8912  -43.0840 H         1 UNK         0.0600 
    149 H149        1.8793  -21.1906  -43.3833 H         1 UNK         0.3000 
    150 H150        5.2383  -21.3169  -43.9726 H         1 UNK         0.0600 
    151 H151        4.6883  -21.2118  -46.3967 H         1 UNK         0.0600 
    152 H152        4.9500  -19.5940  -45.7635 H         1 UNK         0.0600 
    153 H153        3.3112  -20.1698  -46.0655 H         1 UNK         0.0600 
    154 H154        3.3728  -19.1302  -43.8144 H         1 UNK         0.3000 
    155 H155        3.0272  -19.1795  -40.2347 H         1 UNK         0.0600 
    156 H156        4.2007  -17.1872  -42.2477 H         1 UNK         0.0600 
    157 H157        4.9914  -17.7635  -40.7872 H         1 UNK         0.0600 
    158 H158        3.5374  -16.7833  -40.6666 H         1 UNK         0.0600 
    159 H159        1.7272  -17.6268  -42.2399 H         1 UNK         0.3000 
    160 H160       -1.0442  -19.8384  -42.7967 H         1 UNK         0.0600 
    161 H161       -2.2456  -17.7147  -42.2763 H         1 UNK         0.0600 
    162 H162       -0.8313  -17.1116  -41.4138 H         1 UNK         0.0600 
    163 H163       -1.6911  -18.5218  -40.8179 H         1 UNK         0.0600 
    164 H164       -0.0107  -17.2757  -43.7907 H         1 UNK         0.3000 
    165 H165        1.5638  -18.6263  -46.6124 H         1 UNK         0.0600 
    166 H166       -0.0412  -17.3063  -47.9784 H         1 UNK         0.0600 
    167 H167       -0.7750  -18.8045  -47.4327 H         1 UNK         0.0600 
    168 H168       -1.1893  -17.3123  -46.6317 H         1 UNK         0.0600 
    169 H169        0.7376  -15.9566  -45.9013 H         1 UNK         0.3000 
    170 H170        3.4400  -15.2138  -43.7315 H         1 UNK         0.0600 
    171 H171        4.3907  -14.8721  -46.0115 H         1 UNK         0.0600 
    172 H172        3.7301  -13.3708  -45.3804 H         1 UNK         0.0600 
    173 H173        2.8381  -14.2850  -46.5945 H         1 UNK         0.0600 
    174 H174        1.1909  -13.7639  -44.8370 H         1 UNK         0.3000 
    175 H175       -1.2780  -14.5716  -43.1791 H         1 UNK         0.0600 
    176 H176       -1.6203  -12.9961  -41.2556 H         1 UNK         0.0600 
    177 H177       -0.7866  -14.4672  -40.7840 H         1 UNK         0.0600 
    178 H178        0.1207  -12.9764  -40.9729 H         1 UNK         0.0600 
    179 H179       -1.2614  -12.7991  -44.4723 H         1 UNK         0.3000 
    180 H180       -0.2539   -9.6415  -44.4235 H         1 UNK         0.0600 
    181 H181        1.5594  -11.4250  -46.1417 H         1 UNK         0.0600 
    182 H182        2.0923  -10.1322  -45.0737 H         1 UNK         0.0600 
    183 H183        1.1421   -9.7497  -46.4992 H         1 UNK         0.0600 
    184 H184       -0.8788  -11.7727  -46.4152 H         1 UNK         0.3000 
    185 H185       -4.3259  -11.1061  -46.3542 H         1 UNK         0.0600 
    186 H186       -2.4204  -10.2289  -48.5926 H         1 UNK         0.0600 
    187 H187       -4.1302  -10.6199  -48.7828 H         1 UNK         0.0600 
    188 H188       -3.6488   -9.2174  -47.8417 H         1 UNK         0.0600 
    189 H189       -2.6542  -12.6378  -48.1220 H         1 UNK         0.3000 
    190 H190       -1.1200  -21.2842  -46.1150 H         1 UNK         0.3000 
    191 H191       -3.7488  -21.5126  -47.2826 H         1 UNK         0.0600 
    192 H192       -2.8886  -19.3074  -46.6711 H         1 UNK         0.0600 
    193 H193       -2.6955  -19.7866  -44.9811 H         1 UNK         0.0600 
    194 H194       -4.2993  -19.6388  -45.6904 H         1 UNK         0.0600 
    195 H195       -2.2782  -22.6102  -44.2647 H         1 UNK         0.3000 
    196 H196       -4.7441  -23.4197  -42.9787 H         1 UNK         0.0600 
    197 H197       -3.2193  -24.5523  -41.3841 H         1 UNK         0.0600 
    198 H198       -2.6798  -22.9068  -41.6795 H         1 UNK         0.0600 
    199 H199       -1.8444  -24.2613  -42.4384 H         1 UNK         0.0600 
    200 H200       -2.2409  -25.0481  -44.9587 H         1 UNK         0.3000 
    201 H201       -3.3477  -27.6590  -44.7753 H         1 UNK         0.0600 
    202 H202       -0.9705  -27.2513  -45.2807 H         1 UNK         0.0600 
    203 H203       -1.3886  -26.4466  -46.7921 H         1 UNK         0.0600 
    204 H204       -1.7023  -28.1662  -46.5894 H         1 UNK         0.0600 
    205 H205       -3.5866  -25.1770  -47.4156 H         1 UNK         0.3000 
    206 H206       -5.8131  -26.7132  -48.6528 H         1 UNK         0.0600 
    207 H207       -3.7398  -27.7442  -49.5130 H         1 UNK         0.0600 
    208 H208       -4.5145  -26.8384  -50.7950 H         1 UNK         0.0600 
    209 H209       -3.1070  -26.1679  -49.9688 H         1 UNK         0.0600 
    210 H210       -5.6075  -24.0179  -47.3962 H         1 UNK         0.3000 
    211 H211       -6.6161  -22.0751  -47.5645 H         1 UNK         0.0600 
    212 H212       -7.9920  -23.1943  -50.0550 H         1 UNK         0.0600 
    213 H213       -8.4907  -21.7756  -49.1477 H         1 UNK         0.0600 
    214 H214       -8.5389  -23.3583  -48.3889 H         1 UNK         0.0600 
    215 H215       -5.8380  -22.7784  -50.9611 H         1 UNK         0.3000 
    216 H216       -4.2853  -20.2221  -51.1878 H         1 UNK         0.0600 
    217 H217       -5.0385  -20.0937  -53.5522 H         1 UNK         0.0600 
    218 H218       -6.4125  -20.0118  -52.4615 H         1 UNK         0.0600 
    219 H219       -6.0644  -21.5076  -53.3272 H         1 UNK         0.0600 
    220 H220       -4.4161  -23.6753  -51.5245 H         1 UNK         0.3000 
    221 H221       -3.0638  -25.2671  -52.2045 H         1 UNK         0.0600 
    222 H222       -0.8010  -23.2835  -51.6528 H         1 UNK         0.0600 
    223 H223       -1.6818  -24.1565  -50.3977 H         1 UNK         0.0600 
    224 H224       -0.7099  -25.0368  -51.5656 H         1 UNK         0.0600 
    225 H225       -3.9633  -23.4439  -54.3305 H         1 UNK         0.3000 
    226 H226       -3.8371  -23.0285  -56.4892 H         1 UNK         0.0600 
    227 H227       -3.5303  -25.5101  -56.7231 H         1 UNK         0.0600 
    228 H228       -2.7671  -24.6144  -58.0247 H         1 UNK         0.0600 
    229 H229       -1.7814  -25.2852  -56.7346 H         1 UNK         0.0600 
    230 H230       -1.8648  -21.7226  -54.5496 H         1 UNK         0.3000 
    231 H231        0.4496  -21.0165  -56.1360 H         1 UNK         0.0600 
    232 H232        0.4102  -21.0860  -53.6147 H         1 UNK         0.0600 
    233 H233       -0.6782  -19.6999  -53.6082 H         1 UNK         0.0600 
    234 H234        0.9535  -19.5403  -54.2457 H         1 UNK         0.0600 
    235 H235       -2.7688  -19.7622  -55.7589 H         1 UNK         0.3000 
    236 H236       -4.0306  -18.2838  -56.7731 H         1 UNK         0.0600 
    237 H237       -3.5205  -17.5449  -59.0600 H         1 UNK         0.0600 
    238 H238       -1.8237  -17.9549  -58.8688 H         1 UNK         0.0600 
    239 H239       -3.0470  -19.2249  -58.8719 H         1 UNK         0.0600 
    240 H240       -1.3424  -17.2550  -55.1950 H         1 UNK         0.3000 
    241 H241       -1.6194  -14.3920  -55.6666 H         1 UNK         0.0600 
    242 H242       -4.1518  -15.1806  -52.7377 H         1 UNK         0.3800 
    243 H243       -3.6897  -16.3541  -53.9426 H         1 UNK         0.3800 
    244 H244        0.6002  -15.0219  -55.3757 H         1 UNK         0.0800 
    245 H245        0.2119  -14.2228  -53.8942 H         1 UNK         0.0800 
    246 H246        0.0782  -15.1328  -51.7592 H         1 UNK         0.0800 
    247 H247        1.4150  -16.1918  -51.3846 H         1 UNK         0.0800 
@<TRIPOS>BOND
     1    1    2 1    
     2    1  127 1    
     3    1  128 1    
     4    1  129 1    
     5    2    3 2    
     6    2    4 am   BACKBONE|DICT|INTERRES
     7    4    5 1    
     8    4  130 1    
     9    5    6 1    
    10    5   65 1    
    11    5  131 1    
    12    6    7 1    
    13    6  132 1    
    14    6  133 1    
    15    7    8 1    
    16    8    9 1    
    17    8  134 1    
    18    8  135 1    
    19    9   10 ar   
    20    9   14 ar   
    21   10   11 ar   
    22   10  136 1    
    23   11   12 ar   
    24   11  126 1    
    25   12   13 ar   
    26   12  137 1    
    27   13   14 ar   
    28   13   15 1    
    29   14  138 1    
    30   15   16 1    
    31   15  139 1    
    32   15  140 1    
    33   16   17 1    
    34   17   18 1    
    35   17  141 1    
    36   17  142 1    
    37   18   19 1    
    38   18   67 1    
    39   18  143 1    
    40   19   20 am   BACKBONE|DICT|INTERRES
    41   19  144 1    
    42   20   21 2    
    43   20   22 1    
    44   22   23 1    
    45   22   24 1    
    46   22  145 1    
    47   23  146 1    
    48   23  147 1    
    49   23  148 1    
    50   24   25 am   BACKBONE|DICT|INTERRES
    51   24  149 1    
    52   25   26 2    
    53   25   27 1    
    54   27   28 1    
    55   27   29 1    
    56   27  150 1    
    57   28  151 1    
    58   28  152 1    
    59   28  153 1    
    60   29   30 am   BACKBONE|DICT|INTERRES
    61   29  154 1    
    62   30   31 2    
    63   30   32 1    
    64   32   33 1    
    65   32   34 1    
    66   32  155 1    
    67   33  156 1    
    68   33  157 1    
    69   33  158 1    
    70   34   35 am   BACKBONE|DICT|INTERRES
    71   34  159 1    
    72   35   36 2    
    73   35   37 1    
    74   37   38 1    
    75   37   39 1    
    76   37  160 1    
    77   38  161 1    
    78   38  162 1    
    79   38  163 1    
    80   39   40 am   BACKBONE|DICT|INTERRES
    81   39  164 1    
    82   40   41 2    
    83   40   42 1    
    84   42   43 1    
    85   42   44 1    
    86   42  165 1    
    87   43  166 1    
    88   43  167 1    
    89   43  168 1    
    90   44   45 am   BACKBONE|DICT|INTERRES
    91   44  169 1    
    92   45   46 2    
    93   45   47 1    
    94   47   48 1    
    95   47   49 1    
    96   47  170 1    
    97   48  171 1    
    98   48  172 1    
    99   48  173 1    
   100   49   50 am   BACKBONE|DICT|INTERRES
   101   49  174 1    
   102   50   51 2    
   103   50   52 1    
   104   52   53 1    
   105   52   54 1    
   106   52  175 1    
   107   53  176 1    
   108   53  177 1    
   109   53  178 1    
   110   54   55 am   BACKBONE|DICT|INTERRES
   111   54  179 1    
   112   55   56 2    
   113   55   57 1    
   114   57   58 1    
   115   57   59 1    
   116   57  180 1    
   117   58  181 1    
   118   58  182 1    
   119   58  183 1    
   120   59   60 am   BACKBONE|DICT|INTERRES
   121   59  184 1    
   122   60   61 2    
   123   60   62 1    
   124   62   63 1    
   125   62   64 1    
   126   62  185 1    
   127   63  186 1    
   128   63  187 1    
   129   63  188 1    
   130   64   65 am   BACKBONE|DICT|INTERRES
   131   64  189 1    
   132   65   66 2    
   133   67   68 2    
   134   67   69 am   BACKBONE|DICT|INTERRES
   135   69   70 1    
   136   69  190 1    
   137   70   71 1    
   138   70   72 1    
   139   70  191 1    
   140   71  192 1    
   141   71  193 1    
   142   71  194 1    
   143   72   73 2    
   144   72   74 am   BACKBONE|DICT|INTERRES
   145   74   75 1    
   146   74  195 1    
   147   75   76 1    
   148   75   77 1    
   149   75  196 1    
   150   76  197 1    
   151   76  198 1    
   152   76  199 1    
   153   77   78 2    
   154   77   79 am   BACKBONE|DICT|INTERRES
   155   79   80 1    
   156   79  200 1    
   157   80   81 1    
   158   80   82 1    
   159   80  201 1    
   160   81  202 1    
   161   81  203 1    
   162   81  204 1    
   163   82   83 2    
   164   82   84 am   BACKBONE|DICT|INTERRES
   165   84   85 1    
   166   84  205 1    
   167   85   86 1    
   168   85   87 1    
   169   85  206 1    
   170   86  207 1    
   171   86  208 1    
   172   86  209 1    
   173   87   88 2    
   174   87   89 am   BACKBONE|DICT|INTERRES
   175   89   90 1    
   176   89  210 1    
   177   90   91 1    
   178   90   92 1    
   179   90  211 1    
   180   91  212 1    
   181   91  213 1    
   182   91  214 1    
   183   92   93 2    
   184   92   94 am   BACKBONE|DICT|INTERRES
   185   94   95 1    
   186   94  215 1    
   187   95   96 1    
   188   95   97 1    
   189   95  216 1    
   190   96  217 1    
   191   96  218 1    
   192   96  219 1    
   193   97   98 2    
   194   97   99 am   BACKBONE|DICT|INTERRES
   195   99  100 1    
   196   99  220 1    
   197  100  101 1    
   198  100  102 1    
   199  100  221 1    
   200  101  222 1    
   201  101  223 1    
   202  101  224 1    
   203  102  103 2    
   204  102  104 am   BACKBONE|DICT|INTERRES
   205  104  105 1    
   206  104  225 1    
   207  105  106 1    
   208  105  107 1    
   209  105  226 1    
   210  106  227 1    
   211  106  228 1    
   212  106  229 1    
   213  107  108 2    
   214  107  109 am   BACKBONE|DICT|INTERRES
   215  109  110 1    
   216  109  230 1    
   217  110  111 1    
   218  110  112 1    
   219  110  231 1    
   220  111  232 1    
   221  111  233 1    
   222  111  234 1    
   223  112  113 2    
   224  112  114 am   BACKBONE|DICT|INTERRES
   225  114  115 1    
   226  114  235 1    
   227  115  116 1    
   228  115  117 1    
   229  115  236 1    
   230  116  237 1    
   231  116  238 1    
   232  116  239 1    
   233  117  118 2    
   234  117  119 am   BACKBONE|DICT|INTERRES
   235  119  120 1    
   236  119  240 1    
   237  120  121 1    
   238  120  124 1    
   239  120  241 1    
   240  121  122 am   BACKBONE|DICT|INTERRES
   241  121  123 2    
   242  122  242 1    
   243  122  243 1    
   244  124  125 1    
   245  124  244 1    
   246  124  245 1    
   247  125  126 1    
   248  126  246 1    
   249  126  247 1    
@<TRIPOS>SUBSTRUCTURE
     1 UNK         1 GROUP             0       ****    0 ROOT    
