@<TRIPOS>MOLECULE
3R540
247   249    1
SMALL
USER_CHARGES


@<TRIPOS>ATOM
      1 CA         -2.2139  -10.3582  -48.7678 C.3       0 UNK        -0.1800 
      2 C          -1.5970  -11.7426  -48.9098 C.2       0 UNK         0.5000 
      3 O          -0.8459  -11.9823  -49.8550 O.2       0 UNK        -0.5000 
      4 N          -1.9164  -12.6492  -47.9773 N.am      1 UNK        -0.5000 
      5 CA         -1.4159  -14.0284  -47.9219 C.3       1 UNK         0.1400 
      6 C6         -2.1536  -14.8515  -46.8381 C.3       23 UNK        -0.0398 
      7 S7         -3.8321  -15.3368  -47.3612 S.3       23 UNK        -0.2404 
      8 C8         -3.6444  -17.1385  -47.5709 C.3       23 UNK        -0.0205 
      9 C9         -2.8287  -17.4924  -48.8060 C.ar      23 UNK        -0.0193 
     10 C10        -3.4561  -17.6592  -50.0442 C.ar      23 UNK        -0.1150 
     11 C11        -2.7072  -17.9755  -51.1822 C.ar      23 UNK        -0.0193 
     12 C12        -1.3219  -18.1306  -51.0731 C.ar      23 UNK        -0.1150 
     13 C13        -0.6826  -17.9654  -49.8409 C.ar      23 UNK        -0.0193 
     14 C14        -1.4440  -17.6537  -48.7119 C.ar      23 UNK        -0.1150 
     15 C15         0.8326  -18.0786  -49.7434 C.3       23 UNK        -0.0205 
     16 S16         1.3820  -19.7582  -49.3128 S.3       23 UNK        -0.2404 
     17 C17         1.2510  -19.7336  -47.4913 C.3       23 UNK        -0.0398 
     18 CA          0.8455  -21.0976  -46.8886 C.3       11 UNK         0.1400 
     19 N           1.1465  -21.1477  -45.4559 N.am      11 UNK        -0.5000 
     20 C           1.2085  -22.2726  -44.7316 C.2       10 UNK         0.5000 
     21 O           1.0380  -23.3968  -45.2015 O.2       10 UNK        -0.5000 
     22 CA          1.4763  -22.1127  -43.2245 C.3       10 UNK         0.1400 
     23 CB          2.9719  -21.8886  -42.9556 C.3       10 UNK        -0.1800 
     24 N           0.6983  -21.0245  -42.6316 N.am      10 UNK        -0.5000 
     25 C          -0.6386  -21.0240  -42.5289 C.2       9 UNK         0.5000 
     26 O          -1.3511  -21.9677  -42.8720 O.2       9 UNK        -0.5000 
     27 CA         -1.2957  -19.7461  -41.9768 C.3       9 UNK         0.1400 
     28 CB         -1.2789  -19.7505  -40.4411 C.3       9 UNK        -0.1800 
     29 N          -0.6739  -18.5162  -42.4699 N.am      9 UNK        -0.5000 
     30 C          -0.6409  -18.1352  -43.7550 C.2       8 UNK         0.5000 
     31 O          -1.1355  -18.7788  -44.6779 O.2       8 UNK        -0.5000 
     32 CA          0.1254  -16.8424  -44.0743 C.3       8 UNK         0.1400 
     33 CB         -0.6793  -15.6058  -43.6471 C.3       8 UNK        -0.1800 
     34 N           1.4467  -16.8181  -43.4518 N.am      8 UNK        -0.5000 
     35 C           2.4239  -17.7011  -43.7034 C.2       7 UNK         0.5000 
     36 O           2.3325  -18.6131  -44.5258 O.2       7 UNK        -0.5000 
     37 CA          3.6962  -17.5732  -42.8501 C.3       7 UNK         0.1400 
     38 CB          4.6260  -16.4827  -43.4029 C.3       7 UNK        -0.1800 
     39 N           3.3850  -17.2905  -41.4491 N.am      7 UNK        -0.5000 
     40 C           2.7841  -18.1542  -40.6182 C.2       6 UNK         0.5000 
     41 O           2.4594  -19.2985  -40.9345 O.2       6 UNK        -0.5000 
     42 CA          2.4503  -17.6296  -39.2106 C.3       6 UNK         0.1400 
     43 CB          3.6864  -17.6861  -38.3006 C.3       6 UNK        -0.1800 
     44 N           1.9251  -16.2633  -39.2361 N.am      6 UNK        -0.5000 
     45 C           0.7483  -15.9183  -39.7774 C.2       5 UNK         0.5000 
     46 O          -0.0296  -16.7218  -40.2898 O.2       5 UNK        -0.5000 
     47 CA          0.3997  -14.4193  -39.7828 C.3       5 UNK         0.1400 
     48 CB         -0.2852  -14.0210  -38.4671 C.3       5 UNK        -0.1800 
     49 N           1.5578  -13.5509  -40.0108 N.am      5 UNK        -0.5000 
     50 C           2.2938  -13.5376  -41.1293 C.2       4 UNK         0.5000 
     51 O           2.1162  -14.3025  -42.0810 O.2       4 UNK        -0.5000 
     52 CA          3.4473  -12.5295  -41.1723 C.3       4 UNK         0.1400 
     53 CB          4.7544  -13.1884  -40.7030 C.3       4 UNK        -0.1800 
     54 N           3.6130  -12.0538  -42.5421 N.am      4 UNK        -0.5000 
     55 C           3.7712  -10.7749  -42.9055 C.2       3 UNK         0.5000 
     56 O           3.8297   -9.8424  -42.1024 O.2       3 UNK        -0.5000 
     57 CA          3.9013  -10.4701  -44.4133 C.3       3 UNK         0.1400 
     58 CB          5.3489  -10.0844  -44.7578 C.3       3 UNK        -0.1800 
     59 N           3.4959  -11.5798  -45.2800 N.am      3 UNK        -0.5000 
     60 C           2.2290  -11.9262  -45.5364 C.2       2 UNK         0.5000 
     61 O           1.2464  -11.3334  -45.0817 O.2       2 UNK        -0.5000 
     62 CA          2.0388  -13.1577  -46.4335 C.3       2 UNK         0.1400 
     63 CB          2.5476  -14.4273  -45.7218 C.3       2 UNK        -0.1800 
     64 N           0.6232  -13.2800  -46.7698 N.am      2 UNK        -0.5000 
     65 C           0.1105  -14.0896  -47.7033 C.2       1 UNK         0.5000 
     66 O           0.7889  -14.8548  -48.3877 O.2       1 UNK        -0.5000 
     67 C          -0.6246  -21.4708  -47.1910 C.2       11 UNK         0.5000 
     68 O          -0.8826  -22.1212  -48.2023 O.2       11 UNK        -0.5000 
     69 N          -1.5515  -21.0998  -46.2941 N.am      12 UNK        -0.5000 
     70 CA         -2.9861  -21.3917  -46.3747 C.3       12 UNK         0.1400 
     71 CB         -3.7343  -20.5634  -45.3186 C.3       12 UNK        -0.1800 
     72 C          -3.3573  -22.8824  -46.2265 C.2       12 UNK         0.5000 
     73 O          -4.5003  -23.2384  -46.5222 O.2       12 UNK        -0.5000 
     74 N          -2.4185  -23.7272  -45.7768 N.am      13 UNK        -0.5000 
     75 CA         -2.5908  -25.1728  -45.6162 C.3       13 UNK         0.1400 
     76 CB         -1.2928  -25.7731  -45.0582 C.3       13 UNK        -0.1800 
     77 C          -2.9905  -25.8816  -46.9264 C.2       13 UNK         0.5000 
     78 O          -2.5561  -25.4732  -48.0061 O.2       13 UNK        -0.5000 
     79 N          -3.8198  -26.9279  -46.7998 N.am      14 UNK        -0.5000 
     80 CA         -4.3915  -27.7287  -47.8914 C.3       14 UNK         0.1400 
     81 CB         -3.2968  -28.5728  -48.5778 C.3       14 UNK        -0.1800 
     82 C          -5.2110  -26.8775  -48.8864 C.2       14 UNK         0.5000 
     83 O          -5.0793  -27.0450  -50.1000 O.2       14 UNK        -0.5000 
     84 N          -6.0157  -25.9511  -48.3408 N.am      15 UNK        -0.5000 
     85 CA         -6.8307  -24.9592  -49.0530 C.3       15 UNK         0.1400 
     86 CB         -7.9856  -25.6460  -49.8125 C.3       15 UNK        -0.1800 
     87 C          -5.9691  -24.0542  -49.9563 C.2       15 UNK         0.5000 
     88 O          -6.2326  -23.9388  -51.1535 O.2       15 UNK        -0.5000 
     89 N          -4.9198  -23.4736  -49.3593 N.am      16 UNK        -0.5000 
     90 CA         -3.8686  -22.6734  -49.9943 C.3       16 UNK         0.1400 
     91 CB         -4.4230  -21.3148  -50.4676 C.3       16 UNK        -0.1800 
     92 C          -3.1120  -23.4463  -51.0931 C.2       16 UNK         0.5000 
     93 O          -2.8947  -22.9141  -52.1807 O.2       16 UNK        -0.5000 
     94 N          -2.7564  -24.7036  -50.7864 N.am      17 UNK        -0.5000 
     95 CA         -2.1440  -25.6946  -51.6770 C.3       17 UNK         0.1400 
     96 CB         -0.6819  -25.3112  -51.9845 C.3       17 UNK        -0.1800 
     97 C          -2.9909  -25.9453  -52.9442 C.2       17 UNK         0.5000 
     98 O          -2.4737  -25.8772  -54.0610 O.2       17 UNK        -0.5000 
     99 N          -4.2894  -26.2087  -52.7302 N.am      18 UNK        -0.5000 
    100 CA        -5.3496  -26.3466  -53.7338 C.3       18 UNK         0.1400 
    101 CB        -5.1476  -27.6241  -54.5746 C.3       18 UNK        -0.1800 
    102 C         -5.4978  -25.0697  -54.5875 C.2       18 UNK         0.5000 
    103 O         -5.3743  -25.1152  -55.8136 O.2       18 UNK        -0.5000 
    104 N         -5.7151  -23.9409  -53.9001 N.am      19 UNK        -0.5000 
    105 CA        -5.8260  -22.5560  -54.3736 C.3       19 UNK         0.1400 
    106 CB        -6.9893  -22.3867  -55.3690 C.3       19 UNK        -0.1800 
    107 C         -4.5223  -21.9561  -54.9352 C.2       19 UNK         0.5000 
    108 O         -4.2338  -20.7937  -54.6500 O.2       19 UNK        -0.5000 
    109 N         -3.7780  -22.7408  -55.7294 N.am      20 UNK        -0.5000 
    110 CA        -2.4845  -22.4286  -56.3510 C.3       20 UNK         0.1400 
    111 CB        -1.3819  -22.3585  -55.2751 C.3       20 UNK        -0.1800 
    112 C         -2.5183  -21.1725  -57.2497 C.2       20 UNK         0.5000 
    113 O         -1.5279  -20.4425  -57.3296 O.2       20 UNK        -0.5000 
    114 N         -3.6776  -20.9243  -57.8790 N.am      21 UNK        -0.5000 
    115 CA        -4.0769  -19.7495  -58.6681 C.3       21 UNK         0.1400 
    116 CB        -3.1714  -19.5514  -59.8990 C.3       21 UNK        -0.1800 
    117 C         -4.1988  -18.4504  -57.8431 C.2       21 UNK         0.5000 
    118 O         -5.2007  -17.7465  -57.9732 O.2       21 UNK        -0.5000 
    119 N         -3.1980  -18.1703  -57.0004 N.am      22 UNK        -0.5000 
    120 CA        -3.1117  -17.0293  -56.0748 C.3       22 UNK         0.1400 
    121 C         -2.9484  -15.6369  -56.7634 C.2       22 UNK         0.5000 
    122 N         -2.5346  -15.5721  -58.0235 N.am      22 UNK        -0.7600 
    123 O         -3.1725  -14.5967  -56.1507 O.2       22 UNK        -0.5000 
    124 C124       -4.2288  -17.0666  -54.9896 C.3       23 UNK        -0.0398 
    125 S125       -3.6284  -16.5370  -53.3488 S.3       23 UNK        -0.2404 
    126 C126       -3.3915  -18.1445  -52.5297 C.3       23 UNK        -0.0205 
    127 H127       -1.4304   -9.6069  -48.6690 H         1 UNK         0.0600 
    128 H128       -2.8621  -10.2899  -47.8938 H         1 UNK         0.0600 
    129 H129       -2.8075  -10.1195  -49.6503 H         1 UNK         0.0600 
    130 H130       -2.5598  -12.3891  -47.2436 H         1 UNK         0.3000 
    131 H131       -1.6080  -14.4888  -48.8941 H         1 UNK         0.0600 
    132 H132       -1.5977  -15.7481  -46.5664 H         1 UNK         0.0800 
    133 H133       -2.2372  -14.2737  -45.9166 H         1 UNK         0.0800 
    134 H134       -3.1826  -17.5624  -46.6784 H         1 UNK         0.0800 
    135 H135       -4.6347  -17.5906  -47.6431 H         1 UNK         0.0800 
    136 H136       -4.5264  -17.5320  -50.1258 H         1 UNK         0.1150 
    137 H137       -0.7385  -18.3673  -51.9519 H         1 UNK         0.1150 
    138 H138       -0.9557  -17.5175  -47.7600 H         1 UNK         0.1150 
    139 H139        1.2816  -17.8006  -50.6979 H         1 UNK         0.0800 
    140 H140        1.2226  -17.3684  -49.0137 H         1 UNK         0.0800 
    141 H141        0.5730  -18.9525  -47.1525 H         1 UNK         0.0800 
    142 H142        2.2352  -19.4470  -47.1181 H         1 UNK         0.0800 
    143 H143        1.4675  -21.8603  -47.3628 H         1 UNK         0.0600 
    144 H144        1.3404  -20.2600  -45.0015 H         1 UNK         0.3000 
    145 H145        1.1807  -23.0428  -42.7345 H         1 UNK         0.0600 
    146 H146        3.1795  -21.8629  -41.8857 H         1 UNK         0.0600 
    147 H147        3.5710  -22.6933  -43.3836 H         1 UNK         0.0600 
    148 H148        3.3240  -20.9511  -43.3865 H         1 UNK         0.0600 
    149 H149        1.2208  -20.2326  -42.2718 H         1 UNK         0.3000 
    150 H150       -2.3372  -19.7424  -42.3040 H         1 UNK         0.0600 
    151 H151       -1.7439  -20.6547  -40.0464 H         1 UNK         0.0600 
    152 H152       -1.8294  -18.8999  -40.0391 H         1 UNK         0.0600 
    153 H153       -0.2616  -19.7049  -40.0504 H         1 UNK         0.0600 
    154 H154       -0.2669  -17.9049  -41.7666 H         1 UNK         0.3000 
    155 H155        0.2665  -16.7998  -45.1564 H         1 UNK         0.0600 
    156 H156       -1.6978  -15.6482  -44.0329 H         1 UNK         0.0600 
    157 H157       -0.2238  -14.6871  -44.0162 H         1 UNK         0.0600 
    158 H158       -0.7531  -15.5282  -42.5639 H         1 UNK         0.0600 
    159 H159        1.6252  -16.0700  -42.7887 H         1 UNK         0.3000 
    160 H160        4.2254  -18.5273  -42.8967 H         1 UNK         0.0600 
    161 H161        4.1723  -15.4938  -43.3433 H         1 UNK         0.0600 
    162 H162        4.8678  -16.6704  -44.4499 H         1 UNK         0.0600 
    163 H163        5.5665  -16.4520  -42.8527 H         1 UNK         0.0600 
    164 H164        3.5719  -16.3550  -41.1216 H         1 UNK         0.3000 
    165 H165        1.6834  -18.2810  -38.7859 H         1 UNK         0.0600 
    166 H166        3.4386  -17.3900  -37.2811 H         1 UNK         0.0600 
    167 H167        4.0904  -18.6983  -38.2547 H         1 UNK         0.0600 
    168 H168        4.4821  -17.0306  -38.6568 H         1 UNK         0.0600 
    169 H169        2.5029  -15.5399  -38.8346 H         1 UNK         0.3000 
    170 H170       -0.3075  -14.2478  -40.5964 H         1 UNK         0.0600 
    171 H171       -1.1646  -14.6397  -38.2822 H         1 UNK         0.0600 
    172 H172        0.3829  -14.1365  -37.6127 H         1 UNK         0.0600 
    173 H173       -0.6200  -12.9839  -38.4946 H         1 UNK         0.0600 
    174 H174        1.7801  -12.9000  -39.2713 H         1 UNK         0.3000 
    175 H175        3.2044  -11.6998  -40.5051 H         1 UNK         0.0600 
    176 H176        5.0341  -14.0291  -41.3390 H         1 UNK         0.0600 
    177 H177        5.5783  -12.4746  -40.7135 H         1 UNK         0.0600 
    178 H178        4.6622  -13.5625  -39.6826 H         1 UNK         0.0600 
    179 H179        3.4990  -12.7579  -43.2574 H         1 UNK         0.3000 
    180 H180        3.2616   -9.6111  -44.6270 H         1 UNK         0.0600 
    181 H181        6.0404  -10.9063  -44.5680 H         1 UNK         0.0600 
    182 H182        5.6803   -9.2329  -44.1619 H         1 UNK         0.0600 
    183 H183        5.4432   -9.8001  -45.8061 H         1 UNK         0.0600 
    184 H184        4.2445  -12.1170  -45.6935 H         1 UNK         0.3000 
    185 H185        2.6024  -13.0015  -47.3555 H         1 UNK         0.0600 
    186 H186        3.6241  -14.3822  -45.5574 H         1 UNK         0.0600 
    187 H187        2.0741  -14.5431  -44.7491 H         1 UNK         0.0600 
    188 H188        2.3551  -15.3322  -46.2975 H         1 UNK         0.0600 
    189 H189        0.0266  -12.6312  -46.2706 H         1 UNK         0.3000 
    190 H190       -1.2648  -20.5056  -45.5212 H         1 UNK         0.3000 
    191 H191       -3.3329  -21.0657  -47.3565 H         1 UNK         0.0600 
    192 H192       -3.5731  -19.4965  -45.4605 H         1 UNK         0.0600 
    193 H193       -4.8102  -20.7333  -45.3743 H         1 UNK         0.0600 
    194 H194       -3.4143  -20.8197  -44.3088 H         1 UNK         0.0600 
    195 H195       -1.5002  -23.3570  -45.5750 H         1 UNK         0.3000 
    196 H196       -3.3856  -25.3226  -44.8829 H         1 UNK         0.0600 
    197 H197       -1.4054  -26.8403  -44.8638 H         1 UNK         0.0600 
    198 H198       -1.0088  -25.2986  -44.1184 H         1 UNK         0.0600 
    199 H199       -0.4648  -25.6528  -45.7582 H         1 UNK         0.0600 
    200 H200       -4.1205  -27.1896  -45.8709 H         1 UNK         0.3000 
    201 H201       -5.0991  -28.4206  -47.4325 H         1 UNK         0.0600 
    202 H202       -2.7659  -29.1909  -47.8539 H         1 UNK         0.0600 
    203 H203       -2.5615  -27.9503  -49.0874 H         1 UNK         0.0600 
    204 H204       -3.7281  -29.2441  -49.3212 H         1 UNK         0.0600 
    205 H205       -6.0202  -25.8719  -47.3335 H         1 UNK         0.3000 
    206 H206       -7.2715  -24.3106  -48.2944 H         1 UNK         0.0600 
    207 H207       -8.5892  -26.2574  -49.1420 H         1 UNK         0.0600 
    208 H208       -8.6488  -24.9064  -50.2627 H         1 UNK         0.0600 
    209 H209       -7.6219  -26.2882  -50.6152 H         1 UNK         0.0600 
    210 H210       -4.7969  -23.6285  -48.3621 H         1 UNK         0.3000 
    211 H211       -3.1346  -22.4733  -49.2196 H         1 UNK         0.0600 
    212 H212       -5.1572  -21.4291  -51.2646 H         1 UNK         0.0600 
    213 H213       -3.6194  -20.6867  -50.8519 H         1 UNK         0.0600 
    214 H214       -4.8942  -20.7722  -49.6483 H         1 UNK         0.0600 
    215 H215       -2.9263  -25.0232  -49.8358 H         1 UNK         0.3000 
    216 H216       -2.1296  -26.6357  -51.1263 H         1 UNK         0.0600 
    217 H217       -0.1891  -26.0881  -52.5700 H         1 UNK         0.0600 
    218 H218       -0.1087  -25.1834  -51.0662 H         1 UNK         0.0600 
    219 H219       -0.6163  -24.3822  -52.5512 H         1 UNK         0.0600 
    220 H220       -4.6000  -26.2858  -51.7639 H         1 UNK         0.3000 
    221 H221       -6.2828  -26.4603  -53.1799 H         1 UNK         0.0600 
    222 H222       -4.2410  -27.5772  -55.1785 H         1 UNK         0.0600 
    223 H223       -5.0812  -28.5066  -53.9384 H         1 UNK         0.0600 
    224 H224       -5.9853  -27.7766  -55.2559 H         1 UNK         0.0600 
    225 H225       -5.7839  -24.0255  -52.8859 H         1 UNK         0.3000 
    226 H226       -6.0738  -21.9729  -53.4856 H         1 UNK         0.0600 
    227 H227       -7.9270  -22.7427  -54.9425 H         1 UNK         0.0600 
    228 H228       -7.1276  -21.3360  -55.6270 H         1 UNK         0.0600 
    229 H229       -6.8159  -22.9283  -56.2990 H         1 UNK         0.0600 
    230 H230       -4.1395  -23.6749  -55.9039 H         1 UNK         0.3000 
    231 H231       -2.2516  -23.2666  -57.0089 H         1 UNK         0.0600 
    232 H232       -1.5313  -21.5159  -54.5989 H         1 UNK         0.0600 
    233 H233       -0.3947  -22.2504  -55.7254 H         1 UNK         0.0600 
    234 H234       -1.3654  -23.2673  -54.6734 H         1 UNK         0.0600 
    235 H235       -4.4218  -21.5858  -57.7084 H         1 UNK         0.3000 
    236 H236       -5.0781  -19.9761  -59.0382 H         1 UNK         0.0600 
    237 H237       -3.1326  -20.4543  -60.5082 H         1 UNK         0.0600 
    238 H238       -3.5504  -18.7484  -60.5323 H         1 UNK         0.0600 
    239 H239       -2.1502  -19.2897  -59.6219 H         1 UNK         0.0600 
    240 H240       -2.4198  -18.8242  -56.9796 H         1 UNK         0.3000 
    241 H241       -2.1584  -17.1891  -55.5702 H         1 UNK         0.0600 
    242 H242       -2.4222  -14.6722  -58.4638 H         1 UNK         0.3800 
    243 H243       -2.3347  -16.4130  -58.5408 H         1 UNK         0.3800 
    244 H244       -5.0792  -16.4469  -55.2787 H         1 UNK         0.0800 
    245 H245       -4.6318  -18.0753  -54.8887 H         1 UNK         0.0800 
    246 H246       -4.3576  -18.6350  -52.3999 H         1 UNK         0.0800 
    247 H247       -2.7999  -18.7988  -53.1727 H         1 UNK         0.0800 
@<TRIPOS>BOND
     1    1    2 1    
     2    1  127 1    
     3    1  128 1    
     4    1  129 1    
     5    2    3 2    
     6    2    4 am   BACKBONE|DICT|INTERRES
     7    4    5 1    
     8    4  130 1    
     9    5    6 1    
    10    5   65 1    
    11    5  131 1    
    12    6    7 1    
    13    6  132 1    
    14    6  133 1    
    15    7    8 1    
    16    8    9 1    
    17    8  134 1    
    18    8  135 1    
    19    9   10 ar   
    20    9   14 ar   
    21   10   11 ar   
    22   10  136 1    
    23   11   12 ar   
    24   11  126 1    
    25   12   13 ar   
    26   12  137 1    
    27   13   14 ar   
    28   13   15 1    
    29   14  138 1    
    30   15   16 1    
    31   15  139 1    
    32   15  140 1    
    33   16   17 1    
    34   17   18 1    
    35   17  141 1    
    36   17  142 1    
    37   18   19 1    
    38   18   67 1    
    39   18  143 1    
    40   19   20 am   BACKBONE|DICT|INTERRES
    41   19  144 1    
    42   20   21 2    
    43   20   22 1    
    44   22   23 1    
    45   22   24 1    
    46   22  145 1    
    47   23  146 1    
    48   23  147 1    
    49   23  148 1    
    50   24   25 am   BACKBONE|DICT|INTERRES
    51   24  149 1    
    52   25   26 2    
    53   25   27 1    
    54   27   28 1    
    55   27   29 1    
    56   27  150 1    
    57   28  151 1    
    58   28  152 1    
    59   28  153 1    
    60   29   30 am   BACKBONE|DICT|INTERRES
    61   29  154 1    
    62   30   31 2    
    63   30   32 1    
    64   32   33 1    
    65   32   34 1    
    66   32  155 1    
    67   33  156 1    
    68   33  157 1    
    69   33  158 1    
    70   34   35 am   BACKBONE|DICT|INTERRES
    71   34  159 1    
    72   35   36 2    
    73   35   37 1    
    74   37   38 1    
    75   37   39 1    
    76   37  160 1    
    77   38  161 1    
    78   38  162 1    
    79   38  163 1    
    80   39   40 am   BACKBONE|DICT|INTERRES
    81   39  164 1    
    82   40   41 2    
    83   40   42 1    
    84   42   43 1    
    85   42   44 1    
    86   42  165 1    
    87   43  166 1    
    88   43  167 1    
    89   43  168 1    
    90   44   45 am   BACKBONE|DICT|INTERRES
    91   44  169 1    
    92   45   46 2    
    93   45   47 1    
    94   47   48 1    
    95   47   49 1    
    96   47  170 1    
    97   48  171 1    
    98   48  172 1    
    99   48  173 1    
   100   49   50 am   BACKBONE|DICT|INTERRES
   101   49  174 1    
   102   50   51 2    
   103   50   52 1    
   104   52   53 1    
   105   52   54 1    
   106   52  175 1    
   107   53  176 1    
   108   53  177 1    
   109   53  178 1    
   110   54   55 am   BACKBONE|DICT|INTERRES
   111   54  179 1    
   112   55   56 2    
   113   55   57 1    
   114   57   58 1    
   115   57   59 1    
   116   57  180 1    
   117   58  181 1    
   118   58  182 1    
   119   58  183 1    
   120   59   60 am   BACKBONE|DICT|INTERRES
   121   59  184 1    
   122   60   61 2    
   123   60   62 1    
   124   62   63 1    
   125   62   64 1    
   126   62  185 1    
   127   63  186 1    
   128   63  187 1    
   129   63  188 1    
   130   64   65 am   BACKBONE|DICT|INTERRES
   131   64  189 1    
   132   65   66 2    
   133   67   68 2    
   134   67   69 am   BACKBONE|DICT|INTERRES
   135   69   70 1    
   136   69  190 1    
   137   70   71 1    
   138   70   72 1    
   139   70  191 1    
   140   71  192 1    
   141   71  193 1    
   142   71  194 1    
   143   72   73 2    
   144   72   74 am   BACKBONE|DICT|INTERRES
   145   74   75 1    
   146   74  195 1    
   147   75   76 1    
   148   75   77 1    
   149   75  196 1    
   150   76  197 1    
   151   76  198 1    
   152   76  199 1    
   153   77   78 2    
   154   77   79 am   BACKBONE|DICT|INTERRES
   155   79   80 1    
   156   79  200 1    
   157   80   81 1    
   158   80   82 1    
   159   80  201 1    
   160   81  202 1    
   161   81  203 1    
   162   81  204 1    
   163   82   83 2    
   164   82   84 am   BACKBONE|DICT|INTERRES
   165   84   85 1    
   166   84  205 1    
   167   85   86 1    
   168   85   87 1    
   169   85  206 1    
   170   86  207 1    
   171   86  208 1    
   172   86  209 1    
   173   87   88 2    
   174   87   89 am   BACKBONE|DICT|INTERRES
   175   89   90 1    
   176   89  210 1    
   177   90   91 1    
   178   90   92 1    
   179   90  211 1    
   180   91  212 1    
   181   91  213 1    
   182   91  214 1    
   183   92   93 2    
   184   92   94 am   BACKBONE|DICT|INTERRES
   185   94   95 1    
   186   94  215 1    
   187   95   96 1    
   188   95   97 1    
   189   95  216 1    
   190   96  217 1    
   191   96  218 1    
   192   96  219 1    
   193   97   98 2    
   194   97   99 am   BACKBONE|DICT|INTERRES
   195   99  100 1    
   196   99  220 1    
   197  100  101 1    
   198  100  102 1    
   199  100  221 1    
   200  101  222 1    
   201  101  223 1    
   202  101  224 1    
   203  102  103 2    
   204  102  104 am   BACKBONE|DICT|INTERRES
   205  104  105 1    
   206  104  225 1    
   207  105  106 1    
   208  105  107 1    
   209  105  226 1    
   210  106  227 1    
   211  106  228 1    
   212  106  229 1    
   213  107  108 2    
   214  107  109 am   BACKBONE|DICT|INTERRES
   215  109  110 1    
   216  109  230 1    
   217  110  111 1    
   218  110  112 1    
   219  110  231 1    
   220  111  232 1    
   221  111  233 1    
   222  111  234 1    
   223  112  113 2    
   224  112  114 am   BACKBONE|DICT|INTERRES
   225  114  115 1    
   226  114  235 1    
   227  115  116 1    
   228  115  117 1    
   229  115  236 1    
   230  116  237 1    
   231  116  238 1    
   232  116  239 1    
   233  117  118 2    
   234  117  119 am   BACKBONE|DICT|INTERRES
   235  119  120 1    
   236  119  240 1    
   237  120  121 1    
   238  120  124 1    
   239  120  241 1    
   240  121  122 am   BACKBONE|DICT|INTERRES
   241  121  123 2    
   242  122  242 1    
   243  122  243 1    
   244  124  125 1    
   245  124  244 1    
   246  124  245 1    
   247  125  126 1    
   248  126  246 1    
   249  126  247 1    
@<TRIPOS>SUBSTRUCTURE
     1 UNK         1 GROUP             0       ****    0 ROOT    
