@<TRIPOS>MOLECULE
3R540
247   249    1
SMALL
USER_CHARGES


@<TRIPOS>ATOM
      1 CA         -2.2670  -14.6463  -50.2625 C.3       0 UNK        -0.1800 
      2 C          -1.5439  -13.8695  -49.1724 C.2       0 UNK         0.5000 
      3 O          -2.0090  -12.8093  -48.7546 O.2       0 UNK        -0.5000 
      4 N          -0.4176  -14.4046  -48.6891 N.am      1 UNK        -0.5000 
      5 CA          0.4477  -13.8443  -47.6429 C.3       1 UNK         0.1400 
      6 C6          1.9111  -14.3426  -47.7959 C.3       23 UNK        -0.0398 
      7 S7          2.0662  -16.1628  -47.8286 S.3       23 UNK        -0.2404 
      8 C8          2.3188  -16.4895  -49.6005 C.3       23 UNK        -0.0205 
      9 C9          1.8849  -17.8987  -49.9801 C.ar      23 UNK        -0.0193 
     10 C10         0.8379  -18.0935  -50.8868 C.ar      23 UNK        -0.1150 
     11 C11         0.4538  -19.3843  -51.2701 C.ar      23 UNK        -0.0193 
     12 C12         1.1372  -20.4805  -50.7348 C.ar      23 UNK        -0.1150 
     13 C13         2.1894  -20.3040  -49.8312 C.ar      23 UNK        -0.0193 
     14 C14         2.5544  -19.0083  -49.4555 C.ar      23 UNK        -0.1150 
     15 C15         2.9819  -21.5017  -49.3175 C.3       23 UNK        -0.0205 
     16 S16         1.9770  -22.7149  -48.4008 S.3       23 UNK        -0.2404 
     17 C17         1.5260  -21.7825  -46.8989 C.3       23 UNK        -0.0398 
     18 CA          0.0208  -21.9058  -46.5637 C.3       11 UNK         0.1400 
     19 N          -0.2726  -21.5418  -45.1750 N.am      11 UNK        -0.5000 
     20 C          -1.4630  -21.7072  -44.5787 C.2       10 UNK         0.5000 
     21 O          -2.4301  -22.2462  -45.1176 O.2       10 UNK        -0.5000 
     22 CA         -1.6160  -21.1302  -43.1601 C.3       10 UNK         0.1400 
     23 CB         -1.0459  -22.1003  -42.1153 C.3       10 UNK        -0.1800 
     24 N          -0.9857  -19.8162  -43.0200 N.am      10 UNK        -0.5000 
     25 C          -1.3816  -18.7144  -43.6748 C.2       9 UNK         0.5000 
     26 O          -2.3729  -18.6766  -44.4021 O.2       9 UNK        -0.5000 
     27 CA         -0.4960  -17.4614  -43.5477 C.3       9 UNK         0.1400 
     28 CB         -0.8173  -16.6791  -42.2668 C.3       9 UNK        -0.1800 
     29 N           0.9306  -17.7699  -43.5879 N.am      9 UNK        -0.5000 
     30 C           1.5608  -18.3237  -44.6315 C.2       8 UNK         0.5000 
     31 O           1.0012  -18.6330  -45.6818 O.2       8 UNK        -0.5000 
     32 CA          3.0478  -18.6610  -44.4351 C.3       8 UNK         0.1400 
     33 CB          3.9352  -17.4161  -44.5858 C.3       8 UNK        -0.1800 
     34 N           3.2880  -19.2745  -43.1298 N.am      8 UNK        -0.5000 
     35 C           2.8918  -20.5072  -42.7876 C.2       7 UNK         0.5000 
     36 O           2.3110  -21.2760  -43.5542 O.2       7 UNK        -0.5000 
     37 CA          3.1626  -20.9371  -41.3335 C.3       7 UNK         0.1400 
     38 CB          4.6078  -21.4325  -41.1744 C.3       7 UNK        -0.1800 
     39 N           2.9068  -19.8657  -40.3677 N.am      7 UNK        -0.5000 
     40 C           1.6894  -19.3747  -40.0983 C.2       6 UNK         0.5000 
     41 O           0.6576  -19.7820  -40.6292 O.2       6 UNK        -0.5000 
     42 CA          1.6087  -18.2055  -39.0984 C.3       6 UNK         0.1400 
     43 CB          1.5924  -18.7331  -37.6559 C.3       6 UNK        -0.1800 
     44 N           2.6656  -17.1964  -39.2339 N.am      6 UNK        -0.5000 
     45 C           2.9795  -16.5461  -40.3623 C.2       5 UNK         0.5000 
     46 O           2.5157  -16.8298  -41.4676 O.2       5 UNK        -0.5000 
     47 CA          4.0097  -15.4072  -40.2377 C.3       5 UNK         0.1400 
     48 CB          5.4356  -15.9794  -40.2648 C.3       5 UNK        -0.1800 
     49 N           3.8836  -14.4176  -41.3113 N.am      5 UNK        -0.5000 
     50 C           2.7978  -13.6718  -41.5622 C.2       4 UNK         0.5000 
     51 O           1.7986  -13.6649  -40.8382 O.2       4 UNK        -0.5000 
     52 CA          2.8620  -12.7816  -42.8239 C.3       4 UNK         0.1400 
     53 CB          3.4890  -13.5117  -44.0274 C.3       4 UNK        -0.1800 
     54 N           1.5417  -12.2830  -43.2150 N.am      4 UNK        -0.5000 
     55 C           0.9381  -11.2124  -42.6775 C.2       3 UNK         0.5000 
     56 O           1.4610  -10.5046  -41.8145 O.2       3 UNK        -0.5000 
     57 CA         -0.4659  -10.8325  -43.1972 C.3       3 UNK         0.1400 
     58 CB         -0.4167   -9.4932  -43.9512 C.3       3 UNK        -0.1800 
     59 N          -1.0563  -11.8360  -44.0833 N.am      3 UNK        -0.5000 
     60 C          -1.7006  -12.9400  -43.6831 C.2       2 UNK         0.5000 
     61 O          -1.9187  -13.2139  -42.5032 O.2       2 UNK        -0.5000 
     62 CA         -2.1753  -13.9075  -44.7885 C.3       2 UNK         0.1400 
     63 CB         -3.6725  -13.7172  -45.0720 C.3       2 UNK        -0.1800 
     64 N          -1.4367  -13.7875  -46.0503 N.am      2 UNK        -0.5000 
     65 C          -0.1311  -14.0367  -46.2170 C.2       1 UNK         0.5000 
     66 O           0.5993  -14.3728  -45.2859 O.2       1 UNK        -0.5000 
     67 C          -0.8615  -21.1243  -47.5578 C.2       11 UNK         0.5000 
     68 O          -1.4286  -21.7370  -48.4608 O.2       11 UNK        -0.5000 
     69 N          -1.0093  -19.8108  -47.3379 N.am      12 UNK        -0.5000 
     70 CA         -1.8851  -18.9306  -48.1088 C.3       12 UNK         0.1400 
     71 CB         -1.6332  -17.4730  -47.7049 C.3       12 UNK        -0.1800 
     72 C          -3.3758  -19.2814  -47.9618 C.2       12 UNK         0.5000 
     73 O          -4.0928  -19.2903  -48.9611 O.2       12 UNK        -0.5000 
     74 N          -3.8131  -19.5896  -46.7321 N.am      13 UNK        -0.5000 
     75 CA         -5.1844  -19.9955  -46.4127 C.3       13 UNK         0.1400 
     76 CB         -5.3664  -20.0504  -44.8885 C.3       13 UNK        -0.1800 
     77 C          -5.5795  -21.3360  -47.0597 C.2       13 UNK         0.5000 
     78 O          -6.6913  -21.4587  -47.5748 O.2       13 UNK        -0.5000 
     79 N          -4.6519  -22.3028  -47.0534 N.am      14 UNK        -0.5000 
     80 CA         -4.7872  -23.5875  -47.7449 C.3       14 UNK         0.1400 
     81 CB         -3.7913  -24.5820  -47.1273 C.3       14 UNK        -0.1800 
     82 C          -4.5477  -23.4839  -49.2650 C.2       14 UNK         0.5000 
     83 O          -4.8535  -24.4297  -49.9914 O.2       14 UNK        -0.5000 
     84 N          -3.9457  -22.3710  -49.7045 N.am      15 UNK        -0.5000 
     85 CA         -3.4363  -22.0718  -51.0445 C.3       15 UNK         0.1400 
     86 CB         -4.5975  -21.8338  -52.0263 C.3       15 UNK        -0.1800 
     87 C          -2.4271  -23.1233  -51.5544 C.2       15 UNK         0.5000 
     88 O          -2.4224  -23.4457  -52.7412 O.2       15 UNK        -0.5000 
     89 N          -1.6334  -23.6918  -50.6332 N.am      16 UNK        -0.5000 
     90 CA         -0.7472  -24.8521  -50.8172 C.3       16 UNK         0.1400 
     91 CB          0.4937  -24.4615  -51.6464 C.3       16 UNK        -0.1800 
     92 C          -1.4635  -26.1037  -51.3854 C.2       16 UNK         0.5000 
     93 O          -0.8332  -26.9145  -52.0654 O.2       16 UNK        -0.5000 
     94 N          -2.7754  -26.2186  -51.1206 N.am      17 UNK        -0.5000 
     95 CA         -3.7279  -27.1960  -51.6614 C.3       17 UNK         0.1400 
     96 CB         -3.3240  -28.6422  -51.3066 C.3       17 UNK        -0.1800 
     97 C          -4.0343  -27.0157  -53.1666 C.2       17 UNK         0.5000 
     98 O          -4.7032  -27.8697  -53.7506 O.2       17 UNK        -0.5000 
     99 N          -3.5894  -25.9038  -53.7664 N.am      18 UNK        -0.5000 
    100 CA        -3.8580  -25.5069  -55.1441 C.3       18 UNK         0.1400 
    101 CB        -2.5319  -25.1056  -55.8161 C.3       18 UNK        -0.1800 
    102 C         -4.8809  -24.3607  -55.1171 C.2       18 UNK         0.5000 
    103 O         -4.5356  -23.2115  -55.3978 O.2       18 UNK        -0.5000 
    104 N         -6.1172  -24.7002  -54.7257 N.am      19 UNK        -0.5000 
    105 CA        -7.2717  -23.8077  -54.5983 C.3       19 UNK         0.1400 
    106 CB        -8.4853  -24.6436  -54.1583 C.3       19 UNK        -0.1800 
    107 C         -7.5750  -23.0514  -55.9161 C.2       19 UNK         0.5000 
    108 O         -8.0160  -23.6943  -56.8693 O.2       19 UNK        -0.5000 
    109 N         -7.3527  -21.7341  -56.0219 N.am      20 UNK        -0.5000 
    110 CA        -6.7345  -20.8283  -55.0562 C.3       20 UNK         0.1400 
    111 CB        -7.8263  -20.0560  -54.2957 C.3       20 UNK        -0.1800 
    112 C         -5.7656  -19.9185  -55.8211 C.2       20 UNK         0.5000 
    113 O         -6.1009  -18.7751  -56.1332 O.2       20 UNK        -0.5000 
    114 N         -4.5881  -20.4705  -56.1399 N.am      21 UNK        -0.5000 
    115 CA        -3.5298  -19.8632  -56.9545 C.3       21 UNK         0.1400 
    116 CB        -2.3528  -20.8472  -57.0442 C.3       21 UNK        -0.1800 
    117 C         -3.0409  -18.4835  -56.4675 C.2       21 UNK         0.5000 
    118 O         -2.7245  -17.6286  -57.2960 O.2       21 UNK        -0.5000 
    119 N         -3.0099  -18.2901  -55.1444 N.am      22 UNK        -0.5000 
    120 CA        -2.7066  -17.0154  -54.4718 C.3       22 UNK         0.1400 
    121 C         -3.9714  -16.2149  -54.0359 C.2       22 UNK         0.5000 
    122 N         -5.1828  -16.6075  -54.4127 N.am      22 UNK        -0.7600 
    123 O         -3.8552  -15.1933  -53.3650 O.2       22 UNK        -0.5000 
    124 C124       -1.6765  -17.1944  -53.3220 C.3       23 UNK        -0.0398 
    125 S125       -2.0953  -18.5207  -52.1317 S.3       23 UNK        -0.2404 
    126 C126       -0.6510  -19.6284  -52.2976 C.3       23 UNK        -0.0205 
    127 H127       -3.3039  -14.8228  -49.9765 H         1 UNK         0.0600 
    128 H128       -1.7995  -15.6136  -50.4472 H         1 UNK         0.0600 
    129 H129       -2.2617  -14.0807  -51.1942 H         1 UNK         0.0600 
    130 H130       -0.1144  -15.3029  -49.0355 H         1 UNK         0.3000 
    131 H131        0.4779  -12.7628  -47.7910 H         1 UNK         0.0600 
    132 H132        2.3400  -13.9329  -48.7111 H         1 UNK         0.0800 
    133 H133        2.5399  -13.9568  -46.9924 H         1 UNK         0.0800 
    134 H134        1.7737  -15.7544  -50.1941 H         1 UNK         0.0800 
    135 H135        3.3744  -16.3572  -49.8415 H         1 UNK         0.0800 
    136 H136        0.3327  -17.2364  -51.3058 H         1 UNK         0.1150 
    137 H137        0.8588  -21.4784  -51.0356 H         1 UNK         0.1150 
    138 H138        3.3726  -18.8561  -48.7657 H         1 UNK         0.1150 
    139 H139        3.4359  -22.0056  -50.1717 H         1 UNK         0.0800 
    140 H140        3.8083  -21.1785  -48.6826 H         1 UNK         0.0800 
    141 H141        1.8243  -20.7382  -46.9963 H         1 UNK         0.0800 
    142 H142        2.1230  -22.1905  -46.0827 H         1 UNK         0.0800 
    143 H143       -0.2520  -22.9594  -46.6583 H         1 UNK         0.0600 
    144 H144        0.4810  -21.1128  -44.6506 H         1 UNK         0.3000 
    145 H145       -2.6833  -21.0116  -42.9632 H         1 UNK         0.0600 
    146 H146       -1.2432  -21.7478  -41.1029 H         1 UNK         0.0600 
    147 H147       -1.5000  -23.0876  -42.2092 H         1 UNK         0.0600 
    148 H148        0.0323  -22.2218  -42.2231 H         1 UNK         0.0600 
    149 H149       -0.1985  -19.7559  -42.3808 H         1 UNK         0.3000 
    150 H150       -0.7083  -16.8207  -44.4048 H         1 UNK         0.0600 
    151 H151       -1.8718  -16.4033  -42.2302 H         1 UNK         0.0600 
    152 H152       -0.2374  -15.7567  -42.2143 H         1 UNK         0.0600 
    153 H153       -0.5972  -17.2638  -41.3737 H         1 UNK         0.0600 
    154 H154        1.4789  -17.5178  -42.7672 H         1 UNK         0.3000 
    155 H155        3.3332  -19.3752  -45.2105 H         1 UNK         0.0600 
    156 H156        4.9916  -17.6758  -44.5183 H         1 UNK         0.0600 
    157 H157        3.7802  -16.9393  -45.5532 H         1 UNK         0.0600 
    158 H158        3.7249  -16.6731  -43.8173 H         1 UNK         0.0600 
    159 H159        3.6752  -18.6752  -42.4151 H         1 UNK         0.3000 
    160 H160        2.4919  -21.7680  -41.1043 H         1 UNK         0.0600 
    161 H161        5.3308  -20.6378  -41.3623 H         1 UNK         0.0600 
    162 H162        4.8212  -22.2427  -41.8729 H         1 UNK         0.0600 
    163 H163        4.7842  -21.8165  -40.1695 H         1 UNK         0.0600 
    164 H164        3.7052  -19.4678  -39.8954 H         1 UNK         0.3000 
    165 H165        0.6603  -17.6961  -39.2788 H         1 UNK         0.0600 
    166 H166        1.4074  -17.9294  -36.9431 H         1 UNK         0.0600 
    167 H167        0.8030  -19.4736  -37.5191 H         1 UNK         0.0600 
    168 H168        2.5377  -19.2078  -37.3899 H         1 UNK         0.0600 
    169 H169        3.1182  -16.9160  -38.3759 H         1 UNK         0.3000 
    170 H170        3.8481  -14.8952  -39.2871 H         1 UNK         0.0600 
    171 H171        5.6450  -16.4917  -41.2050 H         1 UNK         0.0600 
    172 H172        6.1794  -15.1926  -40.1382 H         1 UNK         0.0600 
    173 H173        5.5874  -16.6985  -39.4587 H         1 UNK         0.0600 
    174 H174        4.6519  -14.3757  -41.9635 H         1 UNK         0.3000 
    175 H175        3.5013  -11.9296  -42.5840 H         1 UNK         0.0600 
    176 H176        3.4453  -12.8964  -44.9260 H         1 UNK         0.0600 
    177 H177        2.9752  -14.4492  -44.2395 H         1 UNK         0.0600 
    178 H178        4.5402  -13.7437  -43.8556 H         1 UNK         0.0600 
    179 H179        1.0320  -12.8563  -43.8771 H         1 UNK         0.3000 
    180 H180       -1.1110  -10.7067  -42.3251 H         1 UNK         0.0600 
    181 H181        0.2220   -9.5515  -44.8334 H         1 UNK         0.0600 
    182 H182       -0.0255   -8.6983  -43.3149 H         1 UNK         0.0600 
    183 H183       -1.4112   -9.1860  -44.2753 H         1 UNK         0.0600 
    184 H184       -0.9334  -11.6911  -45.0744 H         1 UNK         0.3000 
    185 H185       -2.0314  -14.9209  -44.4135 H         1 UNK         0.0600 
    186 H186       -4.2610  -13.8270  -44.1601 H         1 UNK         0.0600 
    187 H187       -3.8809  -12.7280  -45.4815 H         1 UNK         0.0600 
    188 H188       -4.0361  -14.4593  -45.7831 H         1 UNK         0.0600 
    189 H189       -1.9574  -13.4702  -46.8615 H         1 UNK         0.3000 
    190 H190       -0.4512  -19.3754  -46.6069 H         1 UNK         0.3000 
    191 H191       -1.6205  -19.0424  -49.1615 H         1 UNK         0.0600 
    192 H192       -0.6049  -17.1898  -47.9170 H         1 UNK         0.0600 
    193 H193       -2.2850  -16.7973  -48.2580 H         1 UNK         0.0600 
    194 H194       -1.8129  -17.3050  -46.6434 H         1 UNK         0.0600 
    195 H195       -3.1736  -19.4921  -45.9478 H         1 UNK         0.3000 
    196 H196       -5.8558  -19.2289  -46.8049 H         1 UNK         0.0600 
    197 H197       -6.3883  -20.3271  -44.6266 H         1 UNK         0.0600 
    198 H198       -5.1651  -19.0810  -44.4323 H         1 UNK         0.0600 
    199 H199       -4.7003  -20.7811  -44.4295 H         1 UNK         0.0600 
    200 H200       -3.7830  -22.1461  -46.5493 H         1 UNK         0.3000 
    201 H201       -5.7982  -23.9703  -47.5921 H         1 UNK         0.0600 
    202 H202       -3.9708  -24.7071  -46.0593 H         1 UNK         0.0600 
    203 H203       -2.7604  -24.2481  -47.2550 H         1 UNK         0.0600 
    204 H204       -3.8789  -25.5662  -47.5894 H         1 UNK         0.0600 
    205 H205       -3.7000  -21.6827  -49.0052 H         1 UNK         0.3000 
    206 H206       -2.8872  -21.1370  -50.9434 H         1 UNK         0.0600 
    207 H207       -5.1673  -22.7462  -52.2044 H         1 UNK         0.0600 
    208 H208       -5.2819  -21.0726  -51.6517 H         1 UNK         0.0600 
    209 H209       -4.2181  -21.4864  -52.9877 H         1 UNK         0.0600 
    210 H210       -1.6584  -23.2897  -49.7003 H         1 UNK         0.3000 
    211 H211       -0.4020  -25.1327  -49.8213 H         1 UNK         0.0600 
    212 H212        0.2248  -24.1274  -52.6487 H         1 UNK         0.0600 
    213 H213        1.1805  -25.3017  -51.7537 H         1 UNK         0.0600 
    214 H214        1.0541  -23.6654  -51.1618 H         1 UNK         0.0600 
    215 H215       -3.2153  -25.4778  -50.5845 H         1 UNK         0.3000 
    216 H216       -4.6691  -26.9925  -51.1490 H         1 UNK         0.0600 
    217 H217       -4.1294  -29.3395  -51.5398 H         1 UNK         0.0600 
    218 H218       -3.1085  -28.7427  -50.2429 H         1 UNK         0.0600 
    219 H219       -2.4447  -28.9689  -51.8617 H         1 UNK         0.0600 
    220 H220       -3.0956  -25.2070  -53.2153 H         1 UNK         0.3000 
    221 H221       -4.2894  -26.3310  -55.7156 H         1 UNK         0.0600 
    222 H222       -1.8330  -25.9418  -55.8342 H         1 UNK         0.0600 
    223 H223       -2.6966  -24.7944  -56.8482 H         1 UNK         0.0600 
    224 H224       -2.0466  -24.2780  -55.2972 H         1 UNK         0.0600 
    225 H225       -6.2897  -25.6728  -54.5156 H         1 UNK         0.3000 
    226 H226       -7.0769  -23.1203  -53.7790 H         1 UNK         0.0600 
    227 H227       -8.3074  -25.1205  -53.1941 H         1 UNK         0.0600 
    228 H228       -9.3712  -24.0164  -54.0502 H         1 UNK         0.0600 
    229 H229       -8.7233  -25.4267  -54.8796 H         1 UNK         0.0600 
    230 H230       -7.5481  -21.3019  -56.9138 H         1 UNK         0.3000 
    231 H231       -6.1228  -21.3583  -54.3316 H         1 UNK         0.0600 
    232 H232       -8.4499  -20.7309  -53.7094 H         1 UNK         0.0600 
    233 H233       -8.4780  -19.5039  -54.9740 H         1 UNK         0.0600 
    234 H234       -7.3848  -19.3373  -53.6039 H         1 UNK         0.0600 
    235 H235       -4.4373  -21.4413  -55.8669 H         1 UNK         0.3000 
    236 H236       -3.9368  -19.7261  -57.9582 H         1 UNK         0.0600 
    237 H237       -1.9356  -21.0635  -56.0596 H         1 UNK         0.0600 
    238 H238       -2.6628  -21.7934  -57.4887 H         1 UNK         0.0600 
    239 H239       -1.5495  -20.4448  -57.6626 H         1 UNK         0.0600 
    240 H240       -3.2928  -19.0454  -54.5376 H         1 UNK         0.3000 
    241 H241       -2.2260  -16.3539  -55.1945 H         1 UNK         0.0600 
    242 H242       -5.3217  -17.4036  -55.0266 H         1 UNK         0.3800 
    243 H243       -5.9802  -16.0630  -54.1259 H         1 UNK         0.3800 
    244 H244       -0.7007  -17.4002  -53.7619 H         1 UNK         0.0800 
    245 H245       -1.5389  -16.2629  -52.7722 H         1 UNK         0.0800 
    246 H246       -1.0075  -20.6534  -52.2108 H         1 UNK         0.0800 
    247 H247       -0.2281  -19.5571  -53.3000 H         1 UNK         0.0800 
@<TRIPOS>BOND
     1    1    2 1    
     2    1  127 1    
     3    1  128 1    
     4    1  129 1    
     5    2    3 2    
     6    2    4 am   BACKBONE|DICT|INTERRES
     7    4    5 1    
     8    4  130 1    
     9    5    6 1    
    10    5   65 1    
    11    5  131 1    
    12    6    7 1    
    13    6  132 1    
    14    6  133 1    
    15    7    8 1    
    16    8    9 1    
    17    8  134 1    
    18    8  135 1    
    19    9   10 ar   
    20    9   14 ar   
    21   10   11 ar   
    22   10  136 1    
    23   11   12 ar   
    24   11  126 1    
    25   12   13 ar   
    26   12  137 1    
    27   13   14 ar   
    28   13   15 1    
    29   14  138 1    
    30   15   16 1    
    31   15  139 1    
    32   15  140 1    
    33   16   17 1    
    34   17   18 1    
    35   17  141 1    
    36   17  142 1    
    37   18   19 1    
    38   18   67 1    
    39   18  143 1    
    40   19   20 am   BACKBONE|DICT|INTERRES
    41   19  144 1    
    42   20   21 2    
    43   20   22 1    
    44   22   23 1    
    45   22   24 1    
    46   22  145 1    
    47   23  146 1    
    48   23  147 1    
    49   23  148 1    
    50   24   25 am   BACKBONE|DICT|INTERRES
    51   24  149 1    
    52   25   26 2    
    53   25   27 1    
    54   27   28 1    
    55   27   29 1    
    56   27  150 1    
    57   28  151 1    
    58   28  152 1    
    59   28  153 1    
    60   29   30 am   BACKBONE|DICT|INTERRES
    61   29  154 1    
    62   30   31 2    
    63   30   32 1    
    64   32   33 1    
    65   32   34 1    
    66   32  155 1    
    67   33  156 1    
    68   33  157 1    
    69   33  158 1    
    70   34   35 am   BACKBONE|DICT|INTERRES
    71   34  159 1    
    72   35   36 2    
    73   35   37 1    
    74   37   38 1    
    75   37   39 1    
    76   37  160 1    
    77   38  161 1    
    78   38  162 1    
    79   38  163 1    
    80   39   40 am   BACKBONE|DICT|INTERRES
    81   39  164 1    
    82   40   41 2    
    83   40   42 1    
    84   42   43 1    
    85   42   44 1    
    86   42  165 1    
    87   43  166 1    
    88   43  167 1    
    89   43  168 1    
    90   44   45 am   BACKBONE|DICT|INTERRES
    91   44  169 1    
    92   45   46 2    
    93   45   47 1    
    94   47   48 1    
    95   47   49 1    
    96   47  170 1    
    97   48  171 1    
    98   48  172 1    
    99   48  173 1    
   100   49   50 am   BACKBONE|DICT|INTERRES
   101   49  174 1    
   102   50   51 2    
   103   50   52 1    
   104   52   53 1    
   105   52   54 1    
   106   52  175 1    
   107   53  176 1    
   108   53  177 1    
   109   53  178 1    
   110   54   55 am   BACKBONE|DICT|INTERRES
   111   54  179 1    
   112   55   56 2    
   113   55   57 1    
   114   57   58 1    
   115   57   59 1    
   116   57  180 1    
   117   58  181 1    
   118   58  182 1    
   119   58  183 1    
   120   59   60 am   BACKBONE|DICT|INTERRES
   121   59  184 1    
   122   60   61 2    
   123   60   62 1    
   124   62   63 1    
   125   62   64 1    
   126   62  185 1    
   127   63  186 1    
   128   63  187 1    
   129   63  188 1    
   130   64   65 am   BACKBONE|DICT|INTERRES
   131   64  189 1    
   132   65   66 2    
   133   67   68 2    
   134   67   69 am   BACKBONE|DICT|INTERRES
   135   69   70 1    
   136   69  190 1    
   137   70   71 1    
   138   70   72 1    
   139   70  191 1    
   140   71  192 1    
   141   71  193 1    
   142   71  194 1    
   143   72   73 2    
   144   72   74 am   BACKBONE|DICT|INTERRES
   145   74   75 1    
   146   74  195 1    
   147   75   76 1    
   148   75   77 1    
   149   75  196 1    
   150   76  197 1    
   151   76  198 1    
   152   76  199 1    
   153   77   78 2    
   154   77   79 am   BACKBONE|DICT|INTERRES
   155   79   80 1    
   156   79  200 1    
   157   80   81 1    
   158   80   82 1    
   159   80  201 1    
   160   81  202 1    
   161   81  203 1    
   162   81  204 1    
   163   82   83 2    
   164   82   84 am   BACKBONE|DICT|INTERRES
   165   84   85 1    
   166   84  205 1    
   167   85   86 1    
   168   85   87 1    
   169   85  206 1    
   170   86  207 1    
   171   86  208 1    
   172   86  209 1    
   173   87   88 2    
   174   87   89 am   BACKBONE|DICT|INTERRES
   175   89   90 1    
   176   89  210 1    
   177   90   91 1    
   178   90   92 1    
   179   90  211 1    
   180   91  212 1    
   181   91  213 1    
   182   91  214 1    
   183   92   93 2    
   184   92   94 am   BACKBONE|DICT|INTERRES
   185   94   95 1    
   186   94  215 1    
   187   95   96 1    
   188   95   97 1    
   189   95  216 1    
   190   96  217 1    
   191   96  218 1    
   192   96  219 1    
   193   97   98 2    
   194   97   99 am   BACKBONE|DICT|INTERRES
   195   99  100 1    
   196   99  220 1    
   197  100  101 1    
   198  100  102 1    
   199  100  221 1    
   200  101  222 1    
   201  101  223 1    
   202  101  224 1    
   203  102  103 2    
   204  102  104 am   BACKBONE|DICT|INTERRES
   205  104  105 1    
   206  104  225 1    
   207  105  106 1    
   208  105  107 1    
   209  105  226 1    
   210  106  227 1    
   211  106  228 1    
   212  106  229 1    
   213  107  108 2    
   214  107  109 am   BACKBONE|DICT|INTERRES
   215  109  110 1    
   216  109  230 1    
   217  110  111 1    
   218  110  112 1    
   219  110  231 1    
   220  111  232 1    
   221  111  233 1    
   222  111  234 1    
   223  112  113 2    
   224  112  114 am   BACKBONE|DICT|INTERRES
   225  114  115 1    
   226  114  235 1    
   227  115  116 1    
   228  115  117 1    
   229  115  236 1    
   230  116  237 1    
   231  116  238 1    
   232  116  239 1    
   233  117  118 2    
   234  117  119 am   BACKBONE|DICT|INTERRES
   235  119  120 1    
   236  119  240 1    
   237  120  121 1    
   238  120  124 1    
   239  120  241 1    
   240  121  122 am   BACKBONE|DICT|INTERRES
   241  121  123 2    
   242  122  242 1    
   243  122  243 1    
   244  124  125 1    
   245  124  244 1    
   246  124  245 1    
   247  125  126 1    
   248  126  246 1    
   249  126  247 1    
@<TRIPOS>SUBSTRUCTURE
     1 UNK         1 GROUP             0       ****    0 ROOT    
