@<TRIPOS>MOLECULE
3R540
247   249    1
SMALL
USER_CHARGES


@<TRIPOS>ATOM
      1 CA          5.5722  -13.7554  -46.9708 C.3       0 UNK        -0.1800 
      2 C           4.2629  -13.3258  -46.3294 C.2       0 UNK         0.5000 
      3 O           4.1842  -13.2252  -45.1047 O.2       0 UNK        -0.5000 
      4 N           3.2231  -13.0855  -47.1373 N.am      1 UNK        -0.5000 
      5 CA          1.8999  -12.6494  -46.6709 C.3       1 UNK         0.1400 
      6 C6          0.8064  -12.8085  -47.7505 C.3       23 UNK        -0.0398 
      7 S7          0.5617  -14.5537  -48.2170 S.3       23 UNK        -0.2404 
      8 C8         -1.2338  -14.5771  -48.4962 C.3       23 UNK        -0.0205 
      9 C9         -1.6959  -15.9346  -48.9989 C.ar      23 UNK        -0.0193 
     10 C10        -1.5216  -16.2754  -50.3423 C.ar      23 UNK        -0.1150 
     11 C11        -1.9598  -17.5117  -50.8192 C.ar      23 UNK        -0.0193 
     12 C12        -2.5642  -18.4129  -49.9407 C.ar      23 UNK        -0.1150 
     13 C13        -2.7658  -18.0829  -48.5941 C.ar      23 UNK        -0.0193 
     14 C14        -2.3165  -16.8408  -48.1335 C.ar      23 UNK        -0.1150 
     15 C15        -3.4467  -19.0301  -47.6032 C.3       23 UNK        -0.0205 
     16 S16        -4.2694  -20.4833  -48.3518 S.3       23 UNK        -0.2404 
     17 C17        -4.3676  -21.6415  -46.9481 C.3       23 UNK        -0.0398 
     18 CA         -3.1522  -22.5989  -46.9161 C.3       11 UNK         0.1400 
     19 N          -1.9028  -21.8814  -46.6559 N.am      11 UNK        -0.5000 
     20 C          -0.6727  -22.3292  -46.9293 C.2       10 UNK         0.5000 
     21 O          -0.4296  -23.4358  -47.4062 O.2       10 UNK        -0.5000 
     22 CA          0.4846  -21.3847  -46.5553 C.3       10 UNK         0.1400 
     23 CB          0.6869  -20.3244  -47.6491 C.3       10 UNK        -0.1800 
     24 N           0.2796  -20.7230  -45.2632 N.am      10 UNK        -0.5000 
     25 C           0.1981  -21.3753  -44.0939 C.2       9 UNK         0.5000 
     26 O           0.3207  -22.5942  -43.9865 O.2       9 UNK        -0.5000 
     27 CA         -0.1212  -20.5481  -42.8372 C.3       9 UNK         0.1400 
     28 CB          1.1628  -19.9475  -42.2503 C.3       9 UNK        -0.1800 
     29 N          -1.0940  -19.4789  -43.0541 N.am      9 UNK        -0.5000 
     30 C          -2.3322  -19.6050  -43.5458 C.2       8 UNK         0.5000 
     31 O          -2.8034  -20.6741  -43.9335 O.2       8 UNK        -0.5000 
     32 CA         -3.1818  -18.3215  -43.6616 C.3       8 UNK         0.1400 
     33 CB         -3.9385  -18.0360  -42.3513 C.3       8 UNK        -0.1800 
     34 N          -2.4355  -17.1431  -44.1305 N.am      8 UNK        -0.5000 
     35 C          -1.4435  -16.4788  -43.5212 C.2       7 UNK         0.5000 
     36 O          -1.0487  -16.7136  -42.3774 O.2       7 UNK        -0.5000 
     37 CA         -0.7077  -15.4278  -44.3703 C.3       7 UNK         0.1400 
     38 CB         -0.8432  -14.0272  -43.7542 C.3       7 UNK        -0.1800 
     39 N           0.7102  -15.7609  -44.5135 N.am      7 UNK        -0.5000 
     40 C           1.1994  -16.8926  -45.0448 C.2       6 UNK         0.5000 
     41 O           0.4973  -17.8025  -45.4893 O.2       6 UNK        -0.5000 
     42 CA          2.7306  -17.0431  -45.0868 C.3       6 UNK         0.1400 
     43 CB          3.2451  -16.8641  -46.5227 C.3       6 UNK        -0.1800 
     44 N           3.4143  -16.0895  -44.2066 N.am      6 UNK        -0.5000 
     45 C           3.7785  -16.3573  -42.9445 C.2       5 UNK         0.5000 
     46 O           3.5841  -17.4361  -42.3856 O.2       5 UNK        -0.5000 
     47 CA          4.4681  -15.2219  -42.1747 C.3       5 UNK         0.1400 
     48 CB          5.9323  -15.0726  -42.6184 C.3       5 UNK        -0.1800 
     49 N           3.7758  -13.9534  -42.3796 N.am      5 UNK        -0.5000 
     50 C           2.7836  -13.4841  -41.6121 C.2       4 UNK         0.5000 
     51 O           2.3281  -14.0938  -40.6436 O.2       4 UNK        -0.5000 
     52 CA          2.2032  -12.1050  -41.9985 C.3       4 UNK         0.1400 
     53 CB          1.5999  -11.3455  -40.7993 C.3       4 UNK        -0.1800 
     54 N           3.1524  -11.2635  -42.7350 N.am      4 UNK        -0.5000 
     55 C           4.3310  -10.7801  -42.3086 C.2       3 UNK         0.5000 
     56 O           4.7490  -10.9091  -41.1575 O.2       3 UNK        -0.5000 
     57 CA          5.2160  -10.0645  -43.3508 C.3       3 UNK         0.1400 
     58 CB          6.5114  -10.8591  -43.5885 C.3       3 UNK        -0.1800 
     59 N           4.5406   -9.8916  -44.6378 N.am      3 UNK        -0.5000 
     60 C           3.7339   -8.8703  -44.9559 C.2       2 UNK         0.5000 
     61 O           3.5306   -7.9027  -44.2223 O.2       2 UNK        -0.5000 
     62 CA          3.0083   -8.9658  -46.3133 C.3       2 UNK         0.1400 
     63 CB          3.8060   -8.2332  -47.4026 C.3       2 UNK        -0.1800 
     64 N           2.7706  -10.3485  -46.7415 N.am      2 UNK        -0.5000 
     65 C           1.9337  -11.2043  -46.1353 C.2       1 UNK         0.5000 
     66 O           1.2505  -10.9089  -45.1557 O.2       1 UNK        -0.5000 
     67 C          -3.3652  -23.7364  -45.9004 C.2       11 UNK         0.5000 
     68 O          -3.9086  -24.7795  -46.2637 O.2       11 UNK        -0.5000 
     69 N          -2.9145  -23.5296  -44.6549 N.am      12 UNK        -0.5000 
     70 CA         -2.8832  -24.5500  -43.6089 C.3       12 UNK         0.1400 
     71 CB         -2.5982  -23.8855  -42.2535 C.3       12 UNK        -0.1800 
     72 C          -1.8533  -25.6556  -43.9102 C.2       12 UNK         0.5000 
     73 O          -2.1405  -26.8298  -43.6743 O.2       12 UNK        -0.5000 
     74 N          -0.6841  -25.2640  -44.4380 N.am      13 UNK        -0.5000 
     75 CA          0.3879  -26.1666  -44.8548 C.3       13 UNK         0.1400 
     76 CB          1.6729  -25.3649  -45.1138 C.3       13 UNK        -0.1800 
     77 C           0.0124  -27.0113  -46.0849 C.2       13 UNK         0.5000 
     78 O           0.2773  -28.2147  -46.0878 O.2       13 UNK        -0.5000 
     79 N          -0.6048  -26.3846  -47.0947 N.am      14 UNK        -0.5000 
     80 CA         -1.0654  -27.0475  -48.3081 C.3       14 UNK         0.1400 
     81 CB          0.0722  -27.1022  -49.3438 C.3       14 UNK        -0.1800 
     82 C          -2.2865  -26.3115  -48.8693 C.2       14 UNK         0.5000 
     83 O          -2.1770  -25.1464  -49.2549 O.2       14 UNK        -0.5000 
     84 N          -3.4160  -27.0247  -48.9813 N.am      15 UNK        -0.5000 
     85 CA         -4.6689  -26.5303  -49.5686 C.3       15 UNK         0.1400 
     86 CB         -5.7669  -27.5860  -49.3746 C.3       15 UNK        -0.1800 
     87 C          -4.5499  -26.1436  -51.0579 C.2       15 UNK         0.5000 
     88 O          -5.3808  -25.3859  -51.5600 O.2       15 UNK        -0.5000 
     89 N          -3.4896  -26.6265  -51.7216 N.am      16 UNK        -0.5000 
     90 CA         -3.0708  -26.2589  -53.0723 C.3       16 UNK         0.1400 
     91 CB         -1.7858  -27.0238  -53.4225 C.3       16 UNK        -0.1800 
     92 C          -2.8626  -24.7446  -53.2697 C.2       16 UNK         0.5000 
     93 O          -3.1244  -24.2516  -54.3639 O.2       16 UNK        -0.5000 
     94 N          -2.4427  -24.0269  -52.2153 N.am      17 UNK        -0.5000 
     95 CA         -2.2874  -22.5693  -52.2271 C.3       17 UNK         0.1400 
     96 CB         -1.5648  -22.1264  -50.9447 C.3       17 UNK        -0.1800 
     97 C          -3.6319  -21.8308  -52.3806 C.2       17 UNK         0.5000 
     98 O          -3.6984  -20.8117  -53.0694 O.2       17 UNK        -0.5000 
     99 N          -4.6876  -22.3756  -51.7619 N.am      18 UNK        -0.5000 
    100 CA        -6.0520  -21.8743  -51.8894 C.3       18 UNK         0.1400 
    101 CB        -6.8982  -22.3540  -50.7002 C.3       18 UNK        -0.1800 
    102 C         -6.6802  -22.3078  -53.2241 C.2       18 UNK         0.5000 
    103 O         -7.2954  -21.4818  -53.8992 O.2       18 UNK        -0.5000 
    104 N         -6.5028  -23.5868  -53.5852 N.am      19 UNK        -0.5000 
    105 CA        -7.0518  -24.1908  -54.8014 C.3       19 UNK         0.1400 
    106 CB        -6.8463  -25.7115  -54.7528 C.3       19 UNK        -0.1800 
    107 C         -6.4655  -23.6059  -56.1004 C.2       19 UNK         0.5000 
    108 O         -7.1972  -23.4604  -57.0804 O.2       19 UNK        -0.5000 
    109 N         -5.1730  -23.2633  -56.0793 N.am      20 UNK        -0.5000 
    110 CA        -4.4426  -22.6356  -57.1724 C.3       20 UNK         0.1400 
    111 CB        -3.5491  -23.6932  -57.8470 C.3       20 UNK        -0.1800 
    112 C         -3.6368  -21.4511  -56.5992 C.2       20 UNK         0.5000 
    113 O         -2.4450  -21.6039  -56.3339 O.2       20 UNK        -0.5000 
    114 N         -4.2458  -20.2797  -56.3710 N.am      21 UNK        -0.5000 
    115 CA        -5.6354  -19.9094  -56.6525 C.3       21 UNK         0.1400 
    116 CB        -5.7681  -19.4700  -58.1266 C.3       21 UNK        -0.1800 
    117 C         -6.1149  -18.8132  -55.6814 C.2       21 UNK         0.5000 
    118 O         -6.9722  -18.0082  -56.0503 O.2       21 UNK        -0.5000 
    119 N         -5.5380  -18.7651  -54.4733 N.am      22 UNK        -0.5000 
    120 CA        -5.8048  -17.7145  -53.4761 C.3       22 UNK         0.1400 
    121 C         -7.1623  -17.8351  -52.7208 C.2       22 UNK         0.5000 
    122 N         -7.9307  -18.9065  -52.8682 N.am      22 UNK        -0.7600 
    123 O         -7.5386  -16.9208  -51.9926 O.2       22 UNK        -0.5000 
    124 C124       -4.6265  -17.5623  -52.4865 C.3       23 UNK        -0.0398 
    125 S125       -3.0785  -17.0469  -53.3121 S.3       23 UNK        -0.2404 
    126 C126       -1.8130  -17.8677  -52.2906 C.3       23 UNK        -0.0205 
    127 H127        6.3567  -13.0364  -46.7354 H         1 UNK         0.0600 
    128 H128        5.4872  -13.8281  -48.0552 H         1 UNK         0.0600 
    129 H129        5.8741  -14.7292  -46.5858 H         1 UNK         0.0600 
    130 H130        3.3212  -13.2151  -48.1345 H         1 UNK         0.3000 
    131 H131        1.6241  -13.2864  -45.8282 H         1 UNK         0.0600 
    132 H132       -0.1420  -12.4091  -47.3856 H         1 UNK         0.0800 
    133 H133        1.0558  -12.2382  -48.6470 H         1 UNK         0.0800 
    134 H134       -1.7512  -14.3146  -47.5724 H         1 UNK         0.0800 
    135 H135       -1.4970  -13.8106  -49.2270 H         1 UNK         0.0800 
    136 H136       -1.0555  -15.5734  -51.0195 H         1 UNK         0.1150 
    137 H137       -2.8943  -19.3636  -50.3298 H         1 UNK         0.1150 
    138 H138       -2.4571  -16.5735  -47.0977 H         1 UNK         0.1150 
    139 H139       -2.6945  -19.3547  -46.8865 H         1 UNK         0.0800 
    140 H140       -4.1963  -18.4766  -47.0361 H         1 UNK         0.0800 
    141 H141       -5.2933  -22.2078  -47.0655 H         1 UNK         0.0800 
    142 H142       -4.4664  -21.0873  -46.0135 H         1 UNK         0.0800 
    143 H143       -3.0710  -23.0674  -47.8984 H         1 UNK         0.0600 
    144 H144       -1.9897  -20.9963  -46.1807 H         1 UNK         0.3000 
    145 H145        1.3945  -21.9845  -46.4871 H         1 UNK         0.0600 
    146 H146        0.8268  -20.7898  -48.6257 H         1 UNK         0.0600 
    147 H147        1.5694  -19.7178  -47.4482 H         1 UNK         0.0600 
    148 H148       -0.1689  -19.6523  -47.7254 H         1 UNK         0.0600 
    149 H149        0.1969  -19.7095  -45.2739 H         1 UNK         0.3000 
    150 H150       -0.5486  -21.2261  -42.0965 H         1 UNK         0.0600 
    151 H151        1.6183  -19.2346  -42.9374 H         1 UNK         0.0600 
    152 H152        1.9013  -20.7233  -42.0437 H         1 UNK         0.0600 
    153 H153        0.9655  -19.4276  -41.3126 H         1 UNK         0.0600 
    154 H154       -0.8178  -18.5476  -42.7565 H         1 UNK         0.3000 
    155 H155       -3.9314  -18.5183  -44.4295 H         1 UNK         0.0600 
    156 H156       -3.2614  -17.8682  -41.5135 H         1 UNK         0.0600 
    157 H157       -4.5799  -18.8770  -42.0845 H         1 UNK         0.0600 
    158 H158       -4.5772  -17.1581  -42.4482 H         1 UNK         0.0600 
    159 H159       -2.6493  -16.8727  -45.0781 H         1 UNK         0.3000 
    160 H160       -1.1419  -15.4044  -45.3710 H         1 UNK         0.0600 
    161 H161       -0.3627  -13.2704  -44.3739 H         1 UNK         0.0600 
    162 H162       -0.4009  -13.9824  -42.7582 H         1 UNK         0.0600 
    163 H163       -1.8924  -13.7455  -43.6578 H         1 UNK         0.0600 
    164 H164        1.3687  -15.1103  -44.1169 H         1 UNK         0.3000 
    165 H165        2.9653  -18.0639  -44.7782 H         1 UNK         0.0600 
    166 H166        4.3292  -16.9656  -46.5718 H         1 UNK         0.0600 
    167 H167        2.8178  -17.6167  -47.1859 H         1 UNK         0.0600 
    168 H168        2.9769  -15.8905  -46.9293 H         1 UNK         0.0600 
    169 H169        3.6296  -15.1759  -44.5875 H         1 UNK         0.3000 
    170 H170        4.4622  -15.4769  -41.1127 H         1 UNK         0.0600 
    171 H171        6.4378  -14.2952  -42.0452 H         1 UNK         0.0600 
    172 H172        6.0142  -14.8130  -43.6746 H         1 UNK         0.0600 
    173 H173        6.4832  -16.0013  -42.4644 H         1 UNK         0.0600 
    174 H174        4.0502  -13.4191  -43.1989 H         1 UNK         0.3000 
    175 H175        1.3902  -12.3082  -42.6953 H         1 UNK         0.0600 
    176 H176        0.7782  -11.9077  -40.3542 H         1 UNK         0.0600 
    177 H177        2.3375  -11.1713  -40.0156 H         1 UNK         0.0600 
    178 H178        1.2004  -10.3790  -41.1063 H         1 UNK         0.0600 
    179 H179        2.8936  -11.0784  -43.6952 H         1 UNK         0.3000 
    180 H180        5.4825   -9.0870  -42.9437 H         1 UNK         0.0600 
    181 H181        6.3074  -11.8608  -43.9688 H         1 UNK         0.0600 
    182 H182        7.0786  -10.9706  -42.6635 H         1 UNK         0.0600 
    183 H183        7.1588  -10.3534  -44.3051 H         1 UNK         0.0600 
    184 H184        4.6375  -10.6504  -45.2966 H         1 UNK         0.3000 
    185 H185        2.0404   -8.4716  -46.2057 H         1 UNK         0.0600 
    186 H186        3.9792   -7.1922  -47.1264 H         1 UNK         0.0600 
    187 H187        4.7801   -8.6951  -47.5686 H         1 UNK         0.0600 
    188 H188        3.2686   -8.2309  -48.3511 H         1 UNK         0.0600 
    189 H189        3.3061  -10.6762  -47.5324 H         1 UNK         0.3000 
    190 H190       -2.5506  -22.6133  -44.4158 H         1 UNK         0.3000 
    191 H191       -3.8704  -25.0141  -43.5579 H         1 UNK         0.0600 
    192 H192       -3.3315  -23.1099  -42.0313 H         1 UNK         0.0600 
    193 H193       -2.6410  -24.6170  -41.4458 H         1 UNK         0.0600 
    194 H194       -1.6093  -23.4284  -42.2279 H         1 UNK         0.0600 
    195 H195       -0.4961  -24.2699  -44.5275 H         1 UNK         0.3000 
    196 H196        0.5847  -26.8539  -44.0293 H         1 UNK         0.0600 
    197 H197        2.4885  -26.0214  -45.4194 H         1 UNK         0.0600 
    198 H198        1.9974  -24.8408  -44.2148 H         1 UNK         0.0600 
    199 H199        1.5352  -24.6236  -45.9012 H         1 UNK         0.0600 
    200 H200       -0.7583  -25.3794  -47.0572 H         1 UNK         0.3000 
    201 H201       -1.3644  -28.0710  -48.0709 H         1 UNK         0.0600 
    202 H202       -0.2623  -27.5720  -50.2694 H         1 UNK         0.0600 
    203 H203        0.9176  -27.6816  -48.9728 H         1 UNK         0.0600 
    204 H204        0.4350  -26.1038  -49.5926 H         1 UNK         0.0600 
    205 H205       -3.4280  -27.9774  -48.6464 H         1 UNK         0.3000 
    206 H206       -4.9578  -25.6289  -49.0238 H         1 UNK         0.0600 
    207 H207       -5.9222  -27.8038  -48.3177 H         1 UNK         0.0600 
    208 H208       -6.7197  -27.2374  -49.7758 H         1 UNK         0.0600 
    209 H209       -5.5203  -28.5209  -49.8794 H         1 UNK         0.0600 
    210 H210       -2.8739  -27.2470  -51.2189 H         1 UNK         0.3000 
    211 H211       -3.8549  -26.5810  -53.7576 H         1 UNK         0.0600 
    212 H212       -0.9678  -26.7658  -52.7486 H         1 UNK         0.0600 
    213 H213       -1.4596  -26.7939  -54.4379 H         1 UNK         0.0600 
    214 H214       -1.9396  -28.1017  -53.3687 H         1 UNK         0.0600 
    215 H215       -2.2692  -24.4958  -51.3330 H         1 UNK         0.3000 
    216 H216       -1.6626  -22.3030  -53.0824 H         1 UNK         0.0600 
    217 H217       -1.3496  -21.0581  -50.9655 H         1 UNK         0.0600 
    218 H218       -0.6134  -22.6451  -50.8259 H         1 UNK         0.0600 
    219 H219       -2.1631  -22.3250  -50.0549 H         1 UNK         0.0600 
    220 H220       -4.5673  -23.2484  -51.2673 H         1 UNK         0.3000 
    221 H221       -6.0261  -20.7832  -51.8605 H         1 UNK         0.0600 
    222 H222       -6.9768  -23.4406  -50.6648 H         1 UNK         0.0600 
    223 H223       -6.4749  -22.0193  -49.7537 H         1 UNK         0.0600 
    224 H224       -7.9113  -21.9545  -50.7607 H         1 UNK         0.0600 
    225 H225       -6.0116  -24.2072  -52.9475 H         1 UNK         0.3000 
    226 H226       -8.1262  -23.9955  -54.8077 H         1 UNK         0.0600 
    227 H227       -7.3346  -26.1970  -55.5986 H         1 UNK         0.0600 
    228 H228       -5.7898  -25.9724  -54.7929 H         1 UNK         0.0600 
    229 H229       -7.2658  -26.1409  -53.8427 H         1 UNK         0.0600 
    230 H230       -4.6185  -23.4507  -55.2474 H         1 UNK         0.3000 
    231 H231       -5.1275  -22.2630  -57.9330 H         1 UNK         0.0600 
    232 H232       -2.8532  -24.1475  -57.1406 H         1 UNK         0.0600 
    233 H233       -2.9613  -23.2507  -58.6519 H         1 UNK         0.0600 
    234 H234       -4.1487  -24.4925  -58.2826 H         1 UNK         0.0600 
    235 H235       -3.6947  -19.5387  -55.9616 H         1 UNK         0.3000 
    236 H236       -6.2930  -20.7596  -56.4776 H         1 UNK         0.0600 
    237 H237       -5.4065  -20.2261  -58.8216 H         1 UNK         0.0600 
    238 H238       -6.8097  -19.2745  -58.3844 H         1 UNK         0.0600 
    239 H239       -5.2060  -18.5552  -58.3184 H         1 UNK         0.0600 
    240 H240       -4.8712  -19.4798  -54.2002 H         1 UNK         0.3000 
    241 H241       -5.8769  -16.7698  -54.0190 H         1 UNK         0.0600 
    242 H242       -8.8118  -18.9461  -52.3819 H         1 UNK         0.3800 
    243 H243       -7.6464  -19.6900  -53.4493 H         1 UNK         0.3800 
    244 H244       -4.4728  -18.5035  -51.9589 H         1 UNK         0.0800 
    245 H245       -4.8480  -16.8152  -51.7221 H         1 UNK         0.0800 
    246 H246       -0.8240  -17.5708  -52.6420 H         1 UNK         0.0800 
    247 H247       -1.8764  -18.9466  -52.4360 H         1 UNK         0.0800 
@<TRIPOS>BOND
     1    1    2 1    
     2    1  127 1    
     3    1  128 1    
     4    1  129 1    
     5    2    3 2    
     6    2    4 am   BACKBONE|DICT|INTERRES
     7    4    5 1    
     8    4  130 1    
     9    5    6 1    
    10    5   65 1    
    11    5  131 1    
    12    6    7 1    
    13    6  132 1    
    14    6  133 1    
    15    7    8 1    
    16    8    9 1    
    17    8  134 1    
    18    8  135 1    
    19    9   10 ar   
    20    9   14 ar   
    21   10   11 ar   
    22   10  136 1    
    23   11   12 ar   
    24   11  126 1    
    25   12   13 ar   
    26   12  137 1    
    27   13   14 ar   
    28   13   15 1    
    29   14  138 1    
    30   15   16 1    
    31   15  139 1    
    32   15  140 1    
    33   16   17 1    
    34   17   18 1    
    35   17  141 1    
    36   17  142 1    
    37   18   19 1    
    38   18   67 1    
    39   18  143 1    
    40   19   20 am   BACKBONE|DICT|INTERRES
    41   19  144 1    
    42   20   21 2    
    43   20   22 1    
    44   22   23 1    
    45   22   24 1    
    46   22  145 1    
    47   23  146 1    
    48   23  147 1    
    49   23  148 1    
    50   24   25 am   BACKBONE|DICT|INTERRES
    51   24  149 1    
    52   25   26 2    
    53   25   27 1    
    54   27   28 1    
    55   27   29 1    
    56   27  150 1    
    57   28  151 1    
    58   28  152 1    
    59   28  153 1    
    60   29   30 am   BACKBONE|DICT|INTERRES
    61   29  154 1    
    62   30   31 2    
    63   30   32 1    
    64   32   33 1    
    65   32   34 1    
    66   32  155 1    
    67   33  156 1    
    68   33  157 1    
    69   33  158 1    
    70   34   35 am   BACKBONE|DICT|INTERRES
    71   34  159 1    
    72   35   36 2    
    73   35   37 1    
    74   37   38 1    
    75   37   39 1    
    76   37  160 1    
    77   38  161 1    
    78   38  162 1    
    79   38  163 1    
    80   39   40 am   BACKBONE|DICT|INTERRES
    81   39  164 1    
    82   40   41 2    
    83   40   42 1    
    84   42   43 1    
    85   42   44 1    
    86   42  165 1    
    87   43  166 1    
    88   43  167 1    
    89   43  168 1    
    90   44   45 am   BACKBONE|DICT|INTERRES
    91   44  169 1    
    92   45   46 2    
    93   45   47 1    
    94   47   48 1    
    95   47   49 1    
    96   47  170 1    
    97   48  171 1    
    98   48  172 1    
    99   48  173 1    
   100   49   50 am   BACKBONE|DICT|INTERRES
   101   49  174 1    
   102   50   51 2    
   103   50   52 1    
   104   52   53 1    
   105   52   54 1    
   106   52  175 1    
   107   53  176 1    
   108   53  177 1    
   109   53  178 1    
   110   54   55 am   BACKBONE|DICT|INTERRES
   111   54  179 1    
   112   55   56 2    
   113   55   57 1    
   114   57   58 1    
   115   57   59 1    
   116   57  180 1    
   117   58  181 1    
   118   58  182 1    
   119   58  183 1    
   120   59   60 am   BACKBONE|DICT|INTERRES
   121   59  184 1    
   122   60   61 2    
   123   60   62 1    
   124   62   63 1    
   125   62   64 1    
   126   62  185 1    
   127   63  186 1    
   128   63  187 1    
   129   63  188 1    
   130   64   65 am   BACKBONE|DICT|INTERRES
   131   64  189 1    
   132   65   66 2    
   133   67   68 2    
   134   67   69 am   BACKBONE|DICT|INTERRES
   135   69   70 1    
   136   69  190 1    
   137   70   71 1    
   138   70   72 1    
   139   70  191 1    
   140   71  192 1    
   141   71  193 1    
   142   71  194 1    
   143   72   73 2    
   144   72   74 am   BACKBONE|DICT|INTERRES
   145   74   75 1    
   146   74  195 1    
   147   75   76 1    
   148   75   77 1    
   149   75  196 1    
   150   76  197 1    
   151   76  198 1    
   152   76  199 1    
   153   77   78 2    
   154   77   79 am   BACKBONE|DICT|INTERRES
   155   79   80 1    
   156   79  200 1    
   157   80   81 1    
   158   80   82 1    
   159   80  201 1    
   160   81  202 1    
   161   81  203 1    
   162   81  204 1    
   163   82   83 2    
   164   82   84 am   BACKBONE|DICT|INTERRES
   165   84   85 1    
   166   84  205 1    
   167   85   86 1    
   168   85   87 1    
   169   85  206 1    
   170   86  207 1    
   171   86  208 1    
   172   86  209 1    
   173   87   88 2    
   174   87   89 am   BACKBONE|DICT|INTERRES
   175   89   90 1    
   176   89  210 1    
   177   90   91 1    
   178   90   92 1    
   179   90  211 1    
   180   91  212 1    
   181   91  213 1    
   182   91  214 1    
   183   92   93 2    
   184   92   94 am   BACKBONE|DICT|INTERRES
   185   94   95 1    
   186   94  215 1    
   187   95   96 1    
   188   95   97 1    
   189   95  216 1    
   190   96  217 1    
   191   96  218 1    
   192   96  219 1    
   193   97   98 2    
   194   97   99 am   BACKBONE|DICT|INTERRES
   195   99  100 1    
   196   99  220 1    
   197  100  101 1    
   198  100  102 1    
   199  100  221 1    
   200  101  222 1    
   201  101  223 1    
   202  101  224 1    
   203  102  103 2    
   204  102  104 am   BACKBONE|DICT|INTERRES
   205  104  105 1    
   206  104  225 1    
   207  105  106 1    
   208  105  107 1    
   209  105  226 1    
   210  106  227 1    
   211  106  228 1    
   212  106  229 1    
   213  107  108 2    
   214  107  109 am   BACKBONE|DICT|INTERRES
   215  109  110 1    
   216  109  230 1    
   217  110  111 1    
   218  110  112 1    
   219  110  231 1    
   220  111  232 1    
   221  111  233 1    
   222  111  234 1    
   223  112  113 2    
   224  112  114 am   BACKBONE|DICT|INTERRES
   225  114  115 1    
   226  114  235 1    
   227  115  116 1    
   228  115  117 1    
   229  115  236 1    
   230  116  237 1    
   231  116  238 1    
   232  116  239 1    
   233  117  118 2    
   234  117  119 am   BACKBONE|DICT|INTERRES
   235  119  120 1    
   236  119  240 1    
   237  120  121 1    
   238  120  124 1    
   239  120  241 1    
   240  121  122 am   BACKBONE|DICT|INTERRES
   241  121  123 2    
   242  122  242 1    
   243  122  243 1    
   244  124  125 1    
   245  124  244 1    
   246  124  245 1    
   247  125  126 1    
   248  126  246 1    
   249  126  247 1    
@<TRIPOS>SUBSTRUCTURE
     1 UNK         1 GROUP             0       ****    0 ROOT    
