@<TRIPOS>MOLECULE
3R540
247   249    1
SMALL
USER_CHARGES


@<TRIPOS>ATOM
      1 CA          1.1870  -14.2905  -51.7455 C.3       0 UNK        -0.1800 
      2 C           0.7083  -15.1273  -50.5690 C.2       0 UNK         0.5000 
      3 O          -0.1239  -16.0140  -50.7487 O.2       0 UNK        -0.5000 
      4 N           1.2200  -14.8374  -49.3646 N.am      1 UNK        -0.5000 
      5 CA          0.9953  -15.5271  -48.0815 C.3       1 UNK         0.1400 
      6 C6          1.4379  -17.0109  -48.0852 C.3       23 UNK        -0.0398 
      7 S7          3.2393  -17.2537  -48.2419 S.3       23 UNK        -0.2404 
      8 C8          3.4484  -17.7107  -49.9934 C.3       23 UNK        -0.0205 
      9 C9          2.9683  -19.1197  -50.3242 C.ar      23 UNK        -0.0193 
     10 C10         1.7270  -19.3098  -50.9365 C.ar      23 UNK        -0.1150 
     11 C11         1.3138  -20.5845  -51.3456 C.ar      23 UNK        -0.0193 
     12 C12         2.1581  -21.6756  -51.1142 C.ar      23 UNK        -0.1150 
     13 C13         3.4009  -21.5072  -50.4933 C.ar      23 UNK        -0.0193 
     14 C14         3.7952  -20.2244  -50.0954 C.ar      23 UNK        -0.1150 
     15 C15         4.3631  -22.6844  -50.3408 C.3       23 UNK        -0.0205 
     16 S16         3.6254  -24.1776  -49.5904 S.3       23 UNK        -0.2404 
     17 C17         3.5555  -23.7133  -47.8263 C.3       23 UNK        -0.0398 
     18 CA          2.2649  -24.1670  -47.0955 C.3       11 UNK         0.1400 
     19 N           2.3768  -23.8931  -45.6578 N.am      11 UNK        -0.5000 
     20 C           1.4234  -24.0707  -44.7321 C.2       10 UNK         0.5000 
     21 O           0.3551  -24.6411  -44.9524 O.2       10 UNK        -0.5000 
     22 CA          1.6721  -23.4502  -43.3407 C.3       10 UNK         0.1400 
     23 CB          2.1244  -24.5292  -42.3466 C.3       10 UNK        -0.1800 
     24 N           2.6285  -22.3348  -43.3005 N.am      10 UNK        -0.5000 
     25 C           2.5779  -21.2119  -44.0310 C.2       9 UNK         0.5000 
     26 O           1.7584  -21.0180  -44.9289 O.2       9 UNK        -0.5000 
     27 CA          3.6161  -20.1282  -43.6879 C.3       9 UNK         0.1400 
     28 CB          3.7266  -19.0517  -44.7840 C.3       9 UNK        -0.1800 
     29 N           3.2814  -19.4811  -42.4218 N.am      9 UNK        -0.5000 
     30 C           3.5233  -19.9803  -41.2022 C.2       8 UNK         0.5000 
     31 O           4.0945  -21.0544  -41.0072 O.2       8 UNK        -0.5000 
     32 CA          3.0223  -19.1537  -40.0068 C.3       8 UNK         0.1400 
     33 CB          3.9159  -17.9235  -39.7816 C.3       8 UNK        -0.1800 
     34 N           1.6460  -18.7161  -40.2324 N.am      8 UNK        -0.5000 
     35 C           0.5593  -19.2926  -39.7004 C.2       7 UNK         0.5000 
     36 O           0.6024  -20.2051  -38.8742 O.2       7 UNK        -0.5000 
     37 CA         -0.8143  -18.7741  -40.1782 C.3       7 UNK         0.1400 
     38 CB         -1.3291  -17.6732  -39.2392 C.3       7 UNK        -0.1800 
     39 N          -0.7918  -18.2615  -41.5496 N.am      7 UNK        -0.5000 
     40 C          -0.5455  -19.0127  -42.6338 C.2       6 UNK         0.5000 
     41 O          -0.4344  -20.2371  -42.5939 O.2       6 UNK        -0.5000 
     42 CA         -0.3603  -18.2856  -43.9823 C.3       6 UNK         0.1400 
     43 CB         -1.6401  -18.4009  -44.8261 C.3       6 UNK        -0.1800 
     44 N           0.0102  -16.8720  -43.8804 N.am      6 UNK        -0.5000 
     45 C           1.0464  -16.3535  -43.2072 C.2       5 UNK         0.5000 
     46 O           1.8871  -17.0334  -42.6185 O.2       5 UNK        -0.5000 
     47 CA          1.1174  -14.8171  -43.1095 C.3       5 UNK         0.1400 
     48 CB          2.0893  -14.2476  -44.1513 C.3       5 UNK        -0.1800 
     49 N          -0.1792  -14.1411  -43.2340 N.am      5 UNK        -0.5000 
     50 C          -1.2429  -14.3263  -42.4407 C.2       4 UNK         0.5000 
     51 O          -1.2589  -15.1433  -41.5184 O.2       4 UNK        -0.5000 
     52 CA         -2.5144  -13.4954  -42.7165 C.3       4 UNK         0.1400 
     53 CB         -2.6247  -12.3231  -41.7233 C.3       4 UNK        -0.1800 
     54 N          -2.7042  -13.0310  -44.1000 N.am      4 UNK        -0.5000 
     55 C          -1.9996  -12.1378  -44.8079 C.2       3 UNK         0.5000 
     56 O          -0.9594  -11.6147  -44.4058 O.2       3 UNK        -0.5000 
     57 CA         -2.5412  -11.8102  -46.2171 C.3       3 UNK         0.1400 
     58 CB         -1.8019  -10.6316  -46.8757 C.3       3 UNK        -0.1800 
     59 N          -2.4568  -12.9668  -47.1071 N.am      3 UNK        -0.5000 
     60 C          -3.2556  -14.0417  -47.0799 C.2       2 UNK         0.5000 
     61 O          -4.2327  -14.1428  -46.3362 O.2       2 UNK        -0.5000 
     62 CA         -2.8847  -15.2128  -48.0133 C.3       2 UNK         0.1400 
     63 CB         -3.7164  -15.1479  -49.3039 C.3       2 UNK        -0.1800 
     64 N          -1.4616  -15.2858  -48.3666 N.am      2 UNK        -0.5000 
     65 C          -0.4382  -15.4024  -47.5096 C.2       1 UNK         0.5000 
     66 O          -0.5880  -15.4031  -46.2881 O.2       1 UNK        -0.5000 
     67 C           1.0128  -23.5065  -47.7142 C.2       11 UNK         0.5000 
     68 O           0.2640  -24.1587  -48.4408 O.2       11 UNK        -0.5000 
     69 N           0.7902  -22.2341  -47.3702 N.am      12 UNK        -0.5000 
     70 CA         -0.3086  -21.4202  -47.8702 C.3       12 UNK         0.1400 
     71 CB          0.0375  -19.9590  -47.5994 C.3       12 UNK        -0.1800 
     72 C          -1.6623  -21.7931  -47.2510 C.2       12 UNK         0.5000 
     73 O          -2.6855  -21.6749  -47.9256 O.2       12 UNK        -0.5000 
     74 N          -1.6482  -22.2632  -45.9967 N.am      13 UNK        -0.5000 
     75 CA         -2.8254  -22.8012  -45.3170 C.3       13 UNK         0.1400 
     76 CB         -2.5554  -22.9139  -43.8096 C.3       13 UNK        -0.1800 
     77 C          -3.2475  -24.1570  -45.9093 C.2       13 UNK         0.5000 
     78 O          -4.4372  -24.3724  -46.1399 O.2       13 UNK        -0.5000 
     79 N          -2.2627  -25.0256  -46.1813 N.am      14 UNK        -0.5000 
     80 CA         -2.4501  -26.3301  -46.8171 C.3       14 UNK         0.1400 
     81 CB         -1.1413  -27.1304  -46.7330 C.3       14 UNK        -0.1800 
     82 C          -2.9319  -26.2184  -48.2756 C.2       14 UNK         0.5000 
     83 O          -3.8302  -26.9589  -48.6773 O.2       14 UNK        -0.5000 
     84 N          -2.3420  -25.2839  -49.0337 N.am      15 UNK        -0.5000 
     85 CA         -2.7001  -24.9920  -50.4231 C.3       15 UNK         0.1400 
     86 CB         -1.5638  -24.1849  -51.0687 C.3       15 UNK        -0.1800 
     87 C          -4.0341  -24.2355  -50.5764 C.2       15 UNK         0.5000 
     88 O          -4.6077  -24.2667  -51.6647 O.2       15 UNK        -0.5000 
     89 N          -4.4844  -23.5653  -49.5039 N.am      16 UNK        -0.5000 
     90 CA         -5.6266  -22.6484  -49.4364 C.3       16 UNK         0.1400 
     91 CB         -6.9568  -23.3754  -49.7245 C.3       16 UNK        -0.1800 
     92 C          -5.3938  -21.4228  -50.3397 C.2       16 UNK         0.5000 
     93 O          -6.1215  -21.2101  -51.3110 O.2       16 UNK        -0.5000 
     94 N          -4.3429  -20.6599  -50.0100 N.am      17 UNK        -0.5000 
     95 CA         -3.7709  -19.5596  -50.7922 C.3       17 UNK         0.1400 
     96 CB         -2.6747  -18.8754  -49.9666 C.3       17 UNK        -0.1800 
     97 C          -4.7610  -18.5141  -51.3317 C.2       17 UNK         0.5000 
     98 O          -4.5995  -18.0573  -52.4641 O.2       17 UNK        -0.5000 
     99 N          -5.7819  -18.1832  -50.5309 N.am      18 UNK        -0.5000 
    100 CA        -6.8496  -17.2490  -50.8919 C.3       18 UNK         0.1400 
    101 CB        -7.6894  -16.9447  -49.6424 C.3       18 UNK        -0.1800 
    102 C         -7.7481  -17.7483  -52.0428 C.2       18 UNK         0.5000 
    103 O         -8.2960  -16.9245  -52.7761 O.2       18 UNK        -0.5000 
    104 N         -7.8764  -19.0741  -52.1868 N.am      19 UNK        -0.5000 
    105 CA        -8.5997  -19.7254  -53.2773 C.3       19 UNK         0.1400 
    106 CB        -9.3024  -20.9825  -52.7399 C.3       19 UNK        -0.1800 
    107 C         -7.6532  -20.0876  -54.4346 C.2       19 UNK         0.5000 
    108 O         -8.0460  -19.9669  -55.5955 O.2       19 UNK        -0.5000 
    109 N         -6.4290  -20.5244  -54.1032 N.am      20 UNK        -0.5000 
    110 CA        -5.4018  -20.9399  -55.0613 C.3       20 UNK         0.1400 
    111 CB        -4.2674  -21.6550  -54.3125 C.3       20 UNK        -0.1800 
    112 C         -4.8348  -19.7832  -55.9057 C.2       20 UNK         0.5000 
    113 O         -4.4530  -20.0140  -57.0536 O.2       20 UNK        -0.5000 
    114 N         -4.7874  -18.5743  -55.3241 N.am      21 UNK        -0.5000 
    115 CA        -4.2652  -17.3319  -55.9055 C.3       21 UNK         0.1400 
    116 CB        -5.1256  -16.8747  -57.1020 C.3       21 UNK        -0.1800 
    117 C         -2.7569  -17.4120  -56.2291 C.2       21 UNK         0.5000 
    118 O         -2.3066  -16.9031  -57.2572 O.2       21 UNK        -0.5000 
    119 N         -2.0057  -18.0564  -55.3292 N.am      22 UNK        -0.5000 
    120 CA        -0.5425  -18.2249  -55.3739 C.3       22 UNK         0.1400 
    121 C          0.2837  -16.9376  -55.0725 C.2       22 UNK         0.5000 
    122 N         -0.3198  -15.8445  -54.6222 N.am      22 UNK        -0.7600 
    123 O          1.4947  -16.9238  -55.2758 O.2       22 UNK        -0.5000 
    124 C124       -0.0855  -19.4252  -54.4989 C.3       23 UNK        -0.0398 
    125 S125       -0.7913  -19.3756  -52.8186 S.3       23 UNK        -0.2404 
    126 C126       -0.0376  -20.8304  -52.0183 C.3       23 UNK        -0.0205 
    127 H127        1.6761  -14.9298  -52.4806 H         1 UNK         0.0600 
    128 H128        1.8964  -13.5226  -51.4366 H         1 UNK         0.0600 
    129 H129        0.3403  -13.7997  -52.2250 H         1 UNK         0.0600 
    130 H130        1.8766  -14.0716  -49.3068 H         1 UNK         0.3000 
    131 H131        1.6348  -15.0029  -47.3715 H         1 UNK         0.0600 
    132 H132        0.9143  -17.5597  -48.8664 H         1 UNK         0.0800 
    133 H133        1.1628  -17.4803  -47.1390 H         1 UNK         0.0800 
    134 H134        2.9444  -16.9790  -50.6246 H         1 UNK         0.0800 
    135 H135        4.5076  -17.6319  -50.2418 H         1 UNK         0.0800 
    136 H136        1.0944  -18.4510  -51.1077 H         1 UNK         0.1150 
    137 H137        1.8533  -22.6629  -51.4324 H         1 UNK         0.1150 
    138 H138        4.7647  -20.0753  -49.6411 H         1 UNK         0.1150 
    139 H139        4.7296  -22.9483  -51.3336 H         1 UNK         0.0800 
    140 H140        5.2421  -22.3964  -49.7620 H         1 UNK         0.0800 
    141 H141        3.6837  -22.6332  -47.7309 H         1 UNK         0.0800 
    142 H142        4.4260  -24.1604  -47.3442 H         1 UNK         0.0800 
    143 H143        2.1595  -25.2476  -47.2101 H         1 UNK         0.0600 
    144 H144        3.2135  -23.4130  -45.3625 H         1 UNK         0.3000 
    145 H145        0.7144  -23.0530  -42.9983 H         1 UNK         0.0600 
    146 H146        1.4189  -25.3610  -42.3223 H         1 UNK         0.0600 
    147 H147        3.1018  -24.9342  -42.6117 H         1 UNK         0.0600 
    148 H148        2.1887  -24.1306  -41.3338 H         1 UNK         0.0600 
    149 H149        3.3129  -22.3638  -42.5539 H         1 UNK         0.3000 
    150 H150        4.5906  -20.6127  -43.5983 H         1 UNK         0.0600 
    151 H151        4.5060  -18.3275  -44.5473 H         1 UNK         0.0600 
    152 H152        2.7939  -18.5026  -44.9142 H         1 UNK         0.0600 
    153 H153        3.9788  -19.4974  -45.7471 H         1 UNK         0.0600 
    154 H154        2.7934  -18.5912  -42.4953 H         1 UNK         0.3000 
    155 H155        3.0828  -19.7806  -39.1148 H         1 UNK         0.0600 
    156 H156        4.9526  -18.2196  -39.6164 H         1 UNK         0.0600 
    157 H157        3.5945  -17.3616  -38.9045 H         1 UNK         0.0600 
    158 H158        3.8993  -17.2458  -40.6360 H         1 UNK         0.0600 
    159 H159        1.5178  -17.9997  -40.9391 H         1 UNK         0.3000 
    160 H160       -1.5151  -19.6107  -40.1425 H         1 UNK         0.0600 
    161 H161       -1.3942  -18.0338  -38.2118 H         1 UNK         0.0600 
    162 H162       -2.3250  -17.3392  -39.5310 H         1 UNK         0.0600 
    163 H163       -0.6708  -16.8034  -39.2419 H         1 UNK         0.0600 
    164 H164       -0.8874  -17.2579  -41.6599 H         1 UNK         0.3000 
    165 H165        0.4514  -18.7879  -44.5055 H         1 UNK         0.0600 
    166 H166       -1.4984  -17.9838  -45.8228 H         1 UNK         0.0600 
    167 H167       -1.9356  -19.4436  -44.9505 H         1 UNK         0.0600 
    168 H168       -2.4746  -17.8756  -44.3603 H         1 UNK         0.0600 
    169 H169       -0.5610  -16.2226  -44.4103 H         1 UNK         0.3000 
    170 H170        1.5100  -14.5826  -42.1182 H         1 UNK         0.0600 
    171 H171        2.2539  -13.1815  -43.9940 H         1 UNK         0.0600 
    172 H172        3.0614  -14.7394  -44.0943 H         1 UNK         0.0600 
    173 H173        1.7108  -14.3804  -45.1631 H         1 UNK         0.0600 
    174 H174       -0.2519  -13.4164  -43.9391 H         1 UNK         0.3000 
    175 H175       -3.3541  -14.1643  -42.5222 H         1 UNK         0.0600 
    176 H176       -1.8057  -11.6126  -41.8391 H         1 UNK         0.0600 
    177 H177       -3.5613  -11.7812  -41.8544 H         1 UNK         0.0600 
    178 H178       -2.5993  -12.6818  -40.6934 H         1 UNK         0.0600 
    179 H179       -3.4849  -13.4598  -44.5881 H         1 UNK         0.3000 
    180 H180       -3.5896  -11.5251  -46.1071 H         1 UNK         0.0600 
    181 H181       -2.2443  -10.3783  -47.8393 H         1 UNK         0.0600 
    182 H182       -0.7472  -10.8565  -47.0399 H         1 UNK         0.0600 
    183 H183       -1.8549   -9.7389  -46.2510 H         1 UNK         0.0600 
    184 H184       -1.6640  -12.9932  -47.7307 H         1 UNK         0.3000 
    185 H185       -3.1360  -16.1368  -47.4888 H         1 UNK         0.0600 
    186 H186       -3.5004  -14.2438  -49.8743 H         1 UNK         0.0600 
    187 H187       -3.5181  -16.0025  -49.9492 H         1 UNK         0.0600 
    188 H188       -4.7845  -15.1509  -49.0829 H         1 UNK         0.0600 
    189 H189       -1.2377  -15.3661  -49.3544 H         1 UNK         0.3000 
    190 H190        1.3874  -21.7955  -46.6751 H         1 UNK         0.3000 
    191 H191       -0.3834  -21.5633  -48.9488 H         1 UNK         0.0600 
    192 H192        0.1910  -19.7769  -46.5392 H         1 UNK         0.0600 
    193 H193       -0.7418  -19.2767  -47.9316 H         1 UNK         0.0600 
    194 H194        0.9610  -19.7041  -48.1157 H         1 UNK         0.0600 
    195 H195       -0.7623  -22.3389  -45.5180 H         1 UNK         0.3000 
    196 H196       -3.6525  -22.1018  -45.4583 H         1 UNK         0.0600 
    197 H197       -3.4288  -23.3049  -43.2865 H         1 UNK         0.0600 
    198 H198       -2.3305  -21.9393  -43.3780 H         1 UNK         0.0600 
    199 H199       -1.7199  -23.5790  -43.5926 H         1 UNK         0.0600 
    200 H200       -1.3117  -24.7856  -45.9142 H         1 UNK         0.3000 
    201 H201       -3.2146  -26.8701  -46.2547 H         1 UNK         0.0600 
    202 H202       -0.8374  -27.2793  -45.6967 H         1 UNK         0.0600 
    203 H203       -0.3248  -26.6243  -47.2493 H         1 UNK         0.0600 
    204 H204       -1.2558  -28.1167  -47.1844 H         1 UNK         0.0600 
    205 H205       -1.5504  -24.7709  -48.6544 H         1 UNK         0.3000 
    206 H206       -2.7951  -25.9372  -50.9616 H         1 UNK         0.0600 
    207 H207       -1.7939  -23.9315  -52.1045 H         1 UNK         0.0600 
    208 H208       -1.3917  -23.2538  -50.5302 H         1 UNK         0.0600 
    209 H209       -0.6300  -24.7474  -51.0701 H         1 UNK         0.0600 
    210 H210       -3.9079  -23.5889  -48.6736 H         1 UNK         0.3000 
    211 H211       -5.6683  -22.2823  -48.4094 H         1 UNK         0.0600 
    212 H212       -7.0159  -23.7375  -50.7511 H         1 UNK         0.0600 
    213 H213       -7.8037  -22.7060  -49.5700 H         1 UNK         0.0600 
    214 H214       -7.0897  -24.2288  -49.0597 H         1 UNK         0.0600 
    215 H215       -3.7927  -20.9545  -49.2052 H         1 UNK         0.3000 
    216 H216       -3.3017  -20.0201  -51.6589 H         1 UNK         0.0600 
    217 H217       -2.2655  -18.0065  -50.4842 H         1 UNK         0.0600 
    218 H218       -1.8477  -19.5631  -49.8078 H         1 UNK         0.0600 
    219 H219       -3.0402  -18.5431  -48.9944 H         1 UNK         0.0600 
    220 H220       -5.8447  -18.6231  -49.6248 H         1 UNK         0.3000 
    221 H221       -6.3816  -16.3192  -51.2226 H         1 UNK         0.0600 
    222 H222       -8.1663  -17.8437  -49.2500 H         1 UNK         0.0600 
    223 H223       -7.0770  -16.5147  -48.8496 H         1 UNK         0.0600 
    224 H224       -8.4784  -16.2260  -49.8677 H         1 UNK         0.0600 
    225 H225       -7.3441  -19.6877  -51.5787 H         1 UNK         0.3000 
    226 H226       -9.3682  -19.0550  -53.6682 H         1 UNK         0.0600 
    227 H227      -10.0028  -20.7310  -51.9434 H         1 UNK         0.0600 
    228 H228       -9.8703  -21.4780  -53.5282 H         1 UNK         0.0600 
    229 H229       -8.5914  -21.7080  -52.3429 H         1 UNK         0.0600 
    230 H230       -6.2144  -20.6559  -53.1187 H         1 UNK         0.3000 
    231 H231       -5.8586  -21.6567  -55.7468 H         1 UNK         0.0600 
    232 H232       -3.7371  -20.9774  -53.6457 H         1 UNK         0.0600 
    233 H233       -4.6475  -22.4851  -53.7174 H         1 UNK         0.0600 
    234 H234       -3.5354  -22.0626  -55.0106 H         1 UNK         0.0600 
    235 H235       -5.0607  -18.5068  -54.3481 H         1 UNK         0.3000 
    236 H236       -4.3643  -16.5744  -55.1267 H         1 UNK         0.0600 
    237 H237       -5.0309  -17.5490  -57.9534 H         1 UNK         0.0600 
    238 H238       -6.1802  -16.8228  -56.8309 H         1 UNK         0.0600 
    239 H239       -4.8283  -15.8810  -57.4389 H         1 UNK         0.0600 
    240 H240       -2.4552  -18.4262  -54.5034 H         1 UNK         0.3000 
    241 H241       -0.2909  -18.4790  -56.4052 H         1 UNK         0.0600 
    242 H242        0.2239  -15.0151  -54.4507 H         1 UNK         0.3800 
    243 H243       -1.3085  -15.8476  -54.4348 H         1 UNK         0.3800 
    244 H244       -0.4093  -20.3550  -54.9681 H         1 UNK         0.0800 
    245 H245        1.0026  -19.4856  -54.4346 H         1 UNK         0.0800 
    246 H246       -0.7323  -21.1775  -51.2560 H         1 UNK         0.0800 
    247 H247        0.0440  -21.6366  -52.7489 H         1 UNK         0.0800 
@<TRIPOS>BOND
     1    1    2 1    
     2    1  127 1    
     3    1  128 1    
     4    1  129 1    
     5    2    3 2    
     6    2    4 am   BACKBONE|DICT|INTERRES
     7    4    5 1    
     8    4  130 1    
     9    5    6 1    
    10    5   65 1    
    11    5  131 1    
    12    6    7 1    
    13    6  132 1    
    14    6  133 1    
    15    7    8 1    
    16    8    9 1    
    17    8  134 1    
    18    8  135 1    
    19    9   10 ar   
    20    9   14 ar   
    21   10   11 ar   
    22   10  136 1    
    23   11   12 ar   
    24   11  126 1    
    25   12   13 ar   
    26   12  137 1    
    27   13   14 ar   
    28   13   15 1    
    29   14  138 1    
    30   15   16 1    
    31   15  139 1    
    32   15  140 1    
    33   16   17 1    
    34   17   18 1    
    35   17  141 1    
    36   17  142 1    
    37   18   19 1    
    38   18   67 1    
    39   18  143 1    
    40   19   20 am   BACKBONE|DICT|INTERRES
    41   19  144 1    
    42   20   21 2    
    43   20   22 1    
    44   22   23 1    
    45   22   24 1    
    46   22  145 1    
    47   23  146 1    
    48   23  147 1    
    49   23  148 1    
    50   24   25 am   BACKBONE|DICT|INTERRES
    51   24  149 1    
    52   25   26 2    
    53   25   27 1    
    54   27   28 1    
    55   27   29 1    
    56   27  150 1    
    57   28  151 1    
    58   28  152 1    
    59   28  153 1    
    60   29   30 am   BACKBONE|DICT|INTERRES
    61   29  154 1    
    62   30   31 2    
    63   30   32 1    
    64   32   33 1    
    65   32   34 1    
    66   32  155 1    
    67   33  156 1    
    68   33  157 1    
    69   33  158 1    
    70   34   35 am   BACKBONE|DICT|INTERRES
    71   34  159 1    
    72   35   36 2    
    73   35   37 1    
    74   37   38 1    
    75   37   39 1    
    76   37  160 1    
    77   38  161 1    
    78   38  162 1    
    79   38  163 1    
    80   39   40 am   BACKBONE|DICT|INTERRES
    81   39  164 1    
    82   40   41 2    
    83   40   42 1    
    84   42   43 1    
    85   42   44 1    
    86   42  165 1    
    87   43  166 1    
    88   43  167 1    
    89   43  168 1    
    90   44   45 am   BACKBONE|DICT|INTERRES
    91   44  169 1    
    92   45   46 2    
    93   45   47 1    
    94   47   48 1    
    95   47   49 1    
    96   47  170 1    
    97   48  171 1    
    98   48  172 1    
    99   48  173 1    
   100   49   50 am   BACKBONE|DICT|INTERRES
   101   49  174 1    
   102   50   51 2    
   103   50   52 1    
   104   52   53 1    
   105   52   54 1    
   106   52  175 1    
   107   53  176 1    
   108   53  177 1    
   109   53  178 1    
   110   54   55 am   BACKBONE|DICT|INTERRES
   111   54  179 1    
   112   55   56 2    
   113   55   57 1    
   114   57   58 1    
   115   57   59 1    
   116   57  180 1    
   117   58  181 1    
   118   58  182 1    
   119   58  183 1    
   120   59   60 am   BACKBONE|DICT|INTERRES
   121   59  184 1    
   122   60   61 2    
   123   60   62 1    
   124   62   63 1    
   125   62   64 1    
   126   62  185 1    
   127   63  186 1    
   128   63  187 1    
   129   63  188 1    
   130   64   65 am   BACKBONE|DICT|INTERRES
   131   64  189 1    
   132   65   66 2    
   133   67   68 2    
   134   67   69 am   BACKBONE|DICT|INTERRES
   135   69   70 1    
   136   69  190 1    
   137   70   71 1    
   138   70   72 1    
   139   70  191 1    
   140   71  192 1    
   141   71  193 1    
   142   71  194 1    
   143   72   73 2    
   144   72   74 am   BACKBONE|DICT|INTERRES
   145   74   75 1    
   146   74  195 1    
   147   75   76 1    
   148   75   77 1    
   149   75  196 1    
   150   76  197 1    
   151   76  198 1    
   152   76  199 1    
   153   77   78 2    
   154   77   79 am   BACKBONE|DICT|INTERRES
   155   79   80 1    
   156   79  200 1    
   157   80   81 1    
   158   80   82 1    
   159   80  201 1    
   160   81  202 1    
   161   81  203 1    
   162   81  204 1    
   163   82   83 2    
   164   82   84 am   BACKBONE|DICT|INTERRES
   165   84   85 1    
   166   84  205 1    
   167   85   86 1    
   168   85   87 1    
   169   85  206 1    
   170   86  207 1    
   171   86  208 1    
   172   86  209 1    
   173   87   88 2    
   174   87   89 am   BACKBONE|DICT|INTERRES
   175   89   90 1    
   176   89  210 1    
   177   90   91 1    
   178   90   92 1    
   179   90  211 1    
   180   91  212 1    
   181   91  213 1    
   182   91  214 1    
   183   92   93 2    
   184   92   94 am   BACKBONE|DICT|INTERRES
   185   94   95 1    
   186   94  215 1    
   187   95   96 1    
   188   95   97 1    
   189   95  216 1    
   190   96  217 1    
   191   96  218 1    
   192   96  219 1    
   193   97   98 2    
   194   97   99 am   BACKBONE|DICT|INTERRES
   195   99  100 1    
   196   99  220 1    
   197  100  101 1    
   198  100  102 1    
   199  100  221 1    
   200  101  222 1    
   201  101  223 1    
   202  101  224 1    
   203  102  103 2    
   204  102  104 am   BACKBONE|DICT|INTERRES
   205  104  105 1    
   206  104  225 1    
   207  105  106 1    
   208  105  107 1    
   209  105  226 1    
   210  106  227 1    
   211  106  228 1    
   212  106  229 1    
   213  107  108 2    
   214  107  109 am   BACKBONE|DICT|INTERRES
   215  109  110 1    
   216  109  230 1    
   217  110  111 1    
   218  110  112 1    
   219  110  231 1    
   220  111  232 1    
   221  111  233 1    
   222  111  234 1    
   223  112  113 2    
   224  112  114 am   BACKBONE|DICT|INTERRES
   225  114  115 1    
   226  114  235 1    
   227  115  116 1    
   228  115  117 1    
   229  115  236 1    
   230  116  237 1    
   231  116  238 1    
   232  116  239 1    
   233  117  118 2    
   234  117  119 am   BACKBONE|DICT|INTERRES
   235  119  120 1    
   236  119  240 1    
   237  120  121 1    
   238  120  124 1    
   239  120  241 1    
   240  121  122 am   BACKBONE|DICT|INTERRES
   241  121  123 2    
   242  122  242 1    
   243  122  243 1    
   244  124  125 1    
   245  124  244 1    
   246  124  245 1    
   247  125  126 1    
   248  126  246 1    
   249  126  247 1    
@<TRIPOS>SUBSTRUCTURE
     1 UNK         1 GROUP             0       ****    0 ROOT    
