@<TRIPOS>MOLECULE
3R540
247   249    1
SMALL
USER_CHARGES


@<TRIPOS>ATOM
      1 CA          0.4188  -11.9678  -46.2404 C.3       0 UNK        -0.1800 
      2 C           1.7321  -11.4932  -46.8444 C.2       0 UNK         0.5000 
      3 O           1.8867  -10.3012  -47.1114 O.2       0 UNK        -0.5000 
      4 N           2.6792  -12.4170  -47.0482 N.am      1 UNK        -0.5000 
      5 CA          4.0124  -12.1769  -47.6144 C.3       1 UNK         0.1400 
      6 C6          4.7483  -13.5030  -47.9251 C.3       23 UNK        -0.0398 
      7 S7          3.9316  -14.4452  -49.2543 S.3       23 UNK        -0.2404 
      8 C8          3.0277  -15.7022  -48.3014 C.3       23 UNK        -0.0205 
      9 C9          2.2178  -16.5943  -49.2256 C.ar      23 UNK        -0.0193 
     10 C10         0.9696  -16.1726  -49.6932 C.ar      23 UNK        -0.1150 
     11 C11         0.2128  -16.9954  -50.5313 C.ar      23 UNK        -0.0193 
     12 C12         0.7267  -18.2336  -50.9260 C.ar      23 UNK        -0.1150 
     13 C13         1.9672  -18.6724  -50.4539 C.ar      23 UNK        -0.0193 
     14 C14         2.7092  -17.8461  -49.6049 C.ar      23 UNK        -0.1150 
     15 C15         2.5002  -20.0465  -50.8405 C.3       23 UNK        -0.0205 
     16 S16         1.3593  -21.3992  -50.3981 S.3       23 UNK        -0.2404 
     17 C17         1.0009  -21.0173  -48.6482 C.3       23 UNK        -0.0398 
     18 CA          0.3934  -22.2020  -47.8621 C.3       11 UNK         0.1400 
     19 N           0.3443  -21.9175  -46.4265 N.am      11 UNK        -0.5000 
     20 C           0.0069  -22.8030  -45.4786 C.2       10 UNK         0.5000 
     21 O          -0.2538  -23.9847  -45.7041 O.2       10 UNK        -0.5000 
     22 CA         -0.1031  -22.2669  -44.0406 C.3       10 UNK         0.1400 
     23 CB          1.2870  -22.1337  -43.4016 C.3       10 UNK        -0.1800 
     24 N          -0.8089  -20.9861  -43.9683 N.am      10 UNK        -0.5000 
     25 C          -2.0921  -20.8083  -44.3163 C.2       9 UNK         0.5000 
     26 O          -2.8268  -21.7161  -44.7021 O.2       9 UNK        -0.5000 
     27 CA         -2.6399  -19.3712  -44.2713 C.3       9 UNK         0.1400 
     28 CB         -2.9808  -18.9604  -42.8315 C.3       9 UNK        -0.1800 
     29 N          -1.7252  -18.3951  -44.8622 N.am      9 UNK        -0.5000 
     30 C          -1.3170  -18.4076  -46.1394 C.2       8 UNK         0.5000 
     31 O          -1.6860  -19.2384  -46.9678 O.2       8 UNK        -0.5000 
     32 CA         -0.2706  -17.3546  -46.5399 C.3       8 UNK         0.1400 
     33 CB         -0.9137  -15.9735  -46.7395 C.3       8 UNK        -0.1800 
     34 N           0.8135  -17.2585  -45.5630 N.am      8 UNK        -0.5000 
     35 C           1.6698  -18.2529  -45.2872 C.2       7 UNK         0.5000 
     36 O           1.6781  -19.3374  -45.8695 O.2       7 UNK        -0.5000 
     37 CA          2.6418  -18.0111  -44.1216 C.3       7 UNK         0.1400 
     38 CB          3.8600  -17.1955  -44.5828 C.3       7 UNK        -0.1800 
     39 N           1.9816  -17.3397  -43.0000 N.am      7 UNK        -0.5000 
     40 C           1.0649  -17.9248  -42.2132 C.2       6 UNK         0.5000 
     41 O           0.7092  -19.0958  -42.3379 O.2       6 UNK        -0.5000 
     42 CA          0.4041  -17.0520  -41.1296 C.3       6 UNK         0.1400 
     43 CB          1.2489  -17.0547  -39.8472 C.3       6 UNK        -0.1800 
     44 N           0.1858  -15.6718  -41.5606 N.am      6 UNK        -0.5000 
     45 C          -0.6204  -15.3002  -42.5652 C.2       5 UNK         0.5000 
     46 O          -1.3184  -16.0849  -43.2051 O.2       5 UNK        -0.5000 
     47 CA         -0.5981  -13.8105  -42.9574 C.3       5 UNK         0.1400 
     48 CB         -1.7043  -13.0391  -42.2244 C.3       5 UNK        -0.1800 
     49 N           0.6929  -13.1662  -42.6994 N.am      5 UNK        -0.5000 
     50 C           1.8531  -13.5169  -43.2673 C.2       4 UNK         0.5000 
     51 O           1.9465  -14.3971  -44.1262 O.2       4 UNK        -0.5000 
     52 CA          3.0989  -12.7445  -42.7940 C.3       4 UNK         0.1400 
     53 CB          4.4006  -13.4997  -43.1130 C.3       4 UNK        -0.1800 
     54 N           3.1315  -11.4040  -43.3847 N.am      4 UNK        -0.5000 
     55 C           2.3799  -10.3741  -42.9620 C.2       3 UNK         0.5000 
     56 O           1.6457  -10.4507  -41.9747 O.2       3 UNK        -0.5000 
     57 CA          2.3845   -9.0662  -43.7831 C.3       3 UNK         0.1400 
     58 CB          2.4270   -7.8063  -42.8931 C.3       3 UNK        -0.1800 
     59 N           3.3876   -9.0184  -44.8512 N.am      3 UNK        -0.5000 
     60 C           4.7158   -8.8586  -44.7457 C.2       2 UNK         0.5000 
     61 O           5.3094   -8.6776  -43.6817 O.2       2 UNK        -0.5000 
     62 CA          5.5015   -8.9602  -46.0749 C.3       2 UNK         0.1400 
     63 CB          7.0209   -9.1393  -45.8718 C.3       2 UNK        -0.1800 
     64 N           4.9611  -10.0057  -46.9568 N.am      2 UNK        -0.5000 
     65 C           4.8358  -11.3050  -46.6494 C.2       1 UNK         0.5000 
     66 O           5.2692  -11.8044  -45.6125 O.2       1 UNK        -0.5000 
     67 C          -0.9920  -22.6158  -48.4032 C.2       11 UNK         0.5000 
     68 O          -1.0984  -23.6438  -49.0727 O.2       11 UNK        -0.5000 
     69 N          -2.0341  -21.8438  -48.0624 N.am      12 UNK        -0.5000 
     70 CA         -3.4193  -22.1218  -48.4364 C.3       12 UNK         0.1400 
     71 CB         -4.3192  -20.9455  -48.0326 C.3       12 UNK        -0.1800 
     72 C          -3.9442  -23.4463  -47.8562 C.2       12 UNK         0.5000 
     73 O          -4.5952  -24.1976  -48.5808 O.2       12 UNK        -0.5000 
     74 N          -3.6199  -23.7295  -46.5864 N.am      13 UNK        -0.5000 
     75 CA         -3.9521  -24.9783  -45.8995 C.3       13 UNK         0.1400 
     76 CB         -3.6148  -24.8592  -44.4059 C.3       13 UNK        -0.1800 
     77 C          -3.2578  -26.2032  -46.5196 C.2       13 UNK         0.5000 
     78 O          -3.9115  -27.2269  -46.7211 O.2       13 UNK        -0.5000 
     79 N          -1.9668  -26.0702  -46.8588 N.am      14 UNK        -0.5000 
     80 CA         -1.1839  -27.0922  -47.5624 C.3       14 UNK         0.1400 
     81 CB          0.2916  -26.6677  -47.6078 C.3       14 UNK        -0.1800 
     82 C          -1.7136  -27.3792  -48.9816 C.2       14 UNK         0.5000 
     83 O          -1.6740  -28.5247  -49.4308 O.2       14 UNK        -0.5000 
     84 N          -2.2446  -26.3395  -49.6357 N.am      15 UNK        -0.5000 
     85 CA         -2.9194  -26.3909  -50.9321 C.3       15 UNK         0.1400 
     86 CB         -2.7399  -25.0251  -51.6066 C.3       15 UNK        -0.1800 
     87 C          -4.4148  -26.7752  -50.8348 C.2       15 UNK         0.5000 
     88 O          -5.1282  -26.6877  -51.8398 O.2       15 UNK        -0.5000 
     89 N          -4.8731  -27.1587  -49.6310 N.am      16 UNK        -0.5000 
     90 CA         -6.2206  -27.6166  -49.2669 C.3       16 UNK         0.1400 
     91 CB         -6.5119  -28.9758  -49.9356 C.3       16 UNK        -0.1800 
     92 C          -7.3385  -26.5858  -49.5339 C.2       16 UNK         0.5000 
     93 O          -8.5002  -26.9708  -49.6751 O.2       16 UNK        -0.5000 
     94 N          -6.9629  -25.3018  -49.6423 N.am      17 UNK        -0.5000 
     95 CA         -7.7670  -24.1571  -50.0861 C.3       17 UNK         0.1400 
     96 CB         -8.8647  -23.8321  -49.0532 C.3       17 UNK        -0.1800 
     97 C          -8.3284  -24.3002  -51.5220 C.2       17 UNK         0.5000 
     98 O          -9.2266  -23.5458  -51.8985 O.2       17 UNK        -0.5000 
     99 N          -7.7968  -25.2563  -52.2962 N.am      18 UNK        -0.5000 
    100 CA        -8.2730  -25.6303  -53.6260 C.3       18 UNK         0.1400 
    101 CB        -8.4983  -27.1506  -53.6643 C.3       18 UNK        -0.1800 
    102 C         -7.2669  -25.2073  -54.7028 C.2       18 UNK         0.5000 
    103 O         -7.6673  -24.6341  -55.7163 O.2       18 UNK        -0.5000 
    104 N         -5.9781  -25.4725  -54.4526 N.am      19 UNK        -0.5000 
    105 CA        -4.8667  -25.1062  -55.3343 C.3       19 UNK         0.1400 
    106 CB        -3.8776  -26.2843  -55.3805 C.3       19 UNK        -0.1800 
    107 C         -4.1731  -23.8029  -54.8857 C.2       19 UNK         0.5000 
    108 O         -3.1499  -23.4330  -55.4631 O.2       19 UNK        -0.5000 
    109 N         -4.7106  -23.1556  -53.8409 N.am      20 UNK        -0.5000 
    110 CA        -4.1707  -21.9563  -53.2044 C.3       20 UNK         0.1400 
    111 CB        -5.0158  -21.6313  -51.9619 C.3       20 UNK        -0.1800 
    112 C         -4.1242  -20.7519  -54.1622 C.2       20 UNK         0.5000 
    113 O         -5.1178  -20.4618  -54.8321 O.2       20 UNK        -0.5000 
    114 N         -2.9749  -20.0675  -54.1904 N.am      21 UNK        -0.5000 
    115 CA        -2.7349  -18.8808  -55.0154 C.3       21 UNK         0.1400 
    116 CB        -1.2201  -18.7437  -55.2398 C.3       21 UNK        -0.1800 
    117 C         -3.2990  -17.5869  -54.3957 C.2       21 UNK         0.5000 
    118 O         -3.4186  -16.5830  -55.0993 O.2       21 UNK        -0.5000 
    119 N         -3.5913  -17.6205  -53.0901 N.am      22 UNK        -0.5000 
    120 CA        -4.0634  -16.4848  -52.2877 C.3       22 UNK         0.1400 
    121 C         -5.4778  -15.9916  -52.7031 C.2       22 UNK         0.5000 
    122 N         -5.7202  -14.6879  -52.6784 N.am      22 UNK        -0.7600 
    123 O         -6.3702  -16.7817  -53.0023 O.2       22 UNK        -0.5000 
    124 C124       -4.0315  -16.8157  -50.7718 C.3       23 UNK        -0.0398 
    125 S125       -2.4628  -17.5042  -50.1249 S.3       23 UNK        -0.2404 
    126 C126       -1.1670  -16.5642  -50.9979 C.3       23 UNK        -0.0205 
    127 H127       -0.4114  -11.7111  -46.8982 H         1 UNK         0.0600 
    128 H128        0.2528  -11.4879  -45.2761 H         1 UNK         0.0600 
    129 H129        0.4111  -13.0470  -46.0908 H         1 UNK         0.0600 
    130 H130        2.5030  -13.3651  -46.7514 H         1 UNK         0.3000 
    131 H131        3.8886  -11.6294  -48.5514 H         1 UNK         0.0600 
    132 H132        5.7687  -13.3011  -48.2559 H         1 UNK         0.0800 
    133 H133        4.8385  -14.1225  -47.0305 H         1 UNK         0.0800 
    134 H134        2.3627  -15.2232  -47.5823 H         1 UNK         0.0800 
    135 H135        3.7338  -16.2979  -47.7207 H         1 UNK         0.0800 
    136 H136        0.5839  -15.2085  -49.3933 H         1 UNK         0.1150 
    137 H137        0.1426  -18.8732  -51.5726 H         1 UNK         0.1150 
    138 H138        3.6695  -18.1773  -49.2353 H         1 UNK         0.1150 
    139 H139        2.6775  -20.0693  -51.9164 H         1 UNK         0.0800 
    140 H140        3.4640  -20.2352  -50.3652 H         1 UNK         0.0800 
    141 H141        0.3445  -20.1466  -48.6014 H         1 UNK         0.0800 
    142 H142        1.9379  -20.7143  -48.1789 H         1 UNK         0.0800 
    143 H143        1.0583  -23.0593  -47.9880 H         1 UNK         0.0600 
    144 H144        0.5745  -20.9681  -46.1487 H         1 UNK         0.3000 
    145 H145       -0.6741  -22.9939  -43.4596 H         1 UNK         0.0600 
    146 H146        1.2115  -21.8528  -42.3511 H         1 UNK         0.0600 
    147 H147        1.8308  -23.0781  -43.4469 H         1 UNK         0.0600 
    148 H148        1.8923  -21.3801  -43.9064 H         1 UNK         0.0600 
    149 H149       -0.2793  -20.1961  -43.6114 H         1 UNK         0.3000 
    150 H150       -3.5620  -19.3510  -44.8557 H         1 UNK         0.0600 
    151 H151       -3.6881  -19.6593  -42.3834 H         1 UNK         0.0600 
    152 H152       -3.4372  -17.9709  -42.8013 H         1 UNK         0.0600 
    153 H153       -2.0941  -18.9392  -42.1981 H         1 UNK         0.0600 
    154 H154       -1.4076  -17.6447  -44.2538 H         1 UNK         0.3000 
    155 H155        0.1620  -17.6744  -47.4889 H         1 UNK         0.0600 
    156 H156       -1.6811  -16.0123  -47.5132 H         1 UNK         0.0600 
    157 H157       -0.1756  -15.2360  -47.0514 H         1 UNK         0.0600 
    158 H158       -1.3867  -15.6074  -45.8287 H         1 UNK         0.0600 
    159 H159        0.8756  -16.4058  -45.0234 H         1 UNK         0.3000 
    160 H160        2.9987  -18.9833  -43.7748 H         1 UNK         0.0600 
    161 H161        3.5742  -16.2255  -44.9891 H         1 UNK         0.0600 
    162 H162        4.4057  -17.7254  -45.3644 H         1 UNK         0.0600 
    163 H163        4.5549  -17.0232  -43.7609 H         1 UNK         0.0600 
    164 H164        2.1754  -16.3551  -42.8836 H         1 UNK         0.3000 
    165 H165       -0.5693  -17.4888  -40.8982 H         1 UNK         0.0600 
    166 H166        0.7526  -16.5059  -39.0466 H         1 UNK         0.0600 
    167 H167        1.4111  -18.0724  -39.4895 H         1 UNK         0.0600 
    168 H168        2.2286  -16.6030  -40.0079 H         1 UNK         0.0600 
    169 H169        0.7159  -14.9569  -41.0850 H         1 UNK         0.3000 
    170 H170       -0.7943  -13.7532  -44.0295 H         1 UNK         0.0600 
    171 H171       -2.6825  -13.4822  -42.4163 H         1 UNK         0.0600 
    172 H172       -1.5484  -13.0400  -41.1449 H         1 UNK         0.0600 
    173 H173       -1.7473  -12.0017  -42.5569 H         1 UNK         0.0600 
    174 H174        0.6965  -12.3817  -42.0576 H         1 UNK         0.3000 
    175 H175        3.0427  -12.6484  -41.7076 H         1 UNK         0.0600 
    176 H176        4.4836  -13.7472  -44.1711 H         1 UNK         0.0600 
    177 H177        5.2776  -12.9151  -42.8346 H         1 UNK         0.0600 
    178 H178        4.4460  -14.4392  -42.5613 H         1 UNK         0.0600 
    179 H179        3.7316  -11.2870  -44.1922 H         1 UNK         0.3000 
    180 H180        1.4244   -9.0537  -44.3008 H         1 UNK         0.0600 
    181 H181        3.3072   -7.7895  -42.2503 H         1 UNK         0.0600 
    182 H182        1.5532   -7.7597  -42.2422 H         1 UNK         0.0600 
    183 H183        2.4298   -6.8969  -43.4939 H         1 UNK         0.0600 
    184 H184        3.0159   -9.2096  -45.7769 H         1 UNK         0.3000 
    185 H185        5.3485   -8.0112  -46.5906 H         1 UNK         0.0600 
    186 H186        7.4440   -8.2927  -45.3300 H         1 UNK         0.0600 
    187 H187        7.2531  -10.0393  -45.3018 H         1 UNK         0.0600 
    188 H188        7.5410   -9.2042  -46.8274 H         1 UNK         0.0600 
    189 H189        4.5331   -9.6741  -47.8108 H         1 UNK         0.3000 
    190 H190       -1.8699  -20.9902  -47.5319 H         1 UNK         0.3000 
    191 H191       -3.4452  -22.2078  -49.5232 H         1 UNK         0.0600 
    192 H192       -4.3027  -20.7783  -46.9552 H         1 UNK         0.0600 
    193 H193       -5.3544  -21.1270  -48.3242 H         1 UNK         0.0600 
    194 H194       -4.0007  -20.0227  -48.5184 H         1 UNK         0.0600 
    195 H195       -3.1260  -23.0295  -46.0383 H         1 UNK         0.3000 
    196 H196       -5.0298  -25.1290  -45.9910 H         1 UNK         0.0600 
    197 H197       -3.8599  -25.7796  -43.8744 H         1 UNK         0.0600 
    198 H198       -4.1808  -24.0536  -43.9382 H         1 UNK         0.0600 
    199 H199       -2.5549  -24.6590  -44.2468 H         1 UNK         0.0600 
    200 H200       -1.4813  -25.2089  -46.6229 H         1 UNK         0.3000 
    201 H201       -1.2539  -28.0193  -46.9900 H         1 UNK         0.0600 
    202 H202        0.6954  -26.5399  -46.6033 H         1 UNK         0.0600 
    203 H203        0.4238  -25.7268  -48.1427 H         1 UNK         0.0600 
    204 H204        0.9002  -27.4204  -48.1102 H         1 UNK         0.0600 
    205 H205       -2.1740  -25.4217  -49.2084 H         1 UNK         0.3000 
    206 H206       -2.4330  -27.1434  -51.5556 H         1 UNK         0.0600 
    207 H207       -1.6892  -24.7378  -51.6511 H         1 UNK         0.0600 
    208 H208       -3.1051  -25.0526  -52.6285 H         1 UNK         0.0600 
    209 H209       -3.2799  -24.2400  -51.0777 H         1 UNK         0.0600 
    210 H210       -4.2192  -27.1358  -48.8581 H         1 UNK         0.3000 
    211 H211       -6.2079  -27.7728  -48.1877 H         1 UNK         0.0600 
    212 H212       -6.6064  -28.8809  -51.0180 H         1 UNK         0.0600 
    213 H213       -7.4411  -29.4079  -49.5626 H         1 UNK         0.0600 
    214 H214       -5.7182  -29.6941  -49.7299 H         1 UNK         0.0600 
    215 H215       -5.9917  -25.0799  -49.4303 H         1 UNK         0.3000 
    216 H216       -7.0839  -23.3076  -50.1145 H         1 UNK         0.0600 
    217 H217       -9.3659  -22.8943  -49.2949 H         1 UNK         0.0600 
    218 H218       -8.4439  -23.7243  -48.0534 H         1 UNK         0.0600 
    219 H219       -9.6281  -24.6094  -49.0147 H         1 UNK         0.0600 
    220 H220       -7.0379  -25.8110  -51.9167 H         1 UNK         0.3000 
    221 H221       -9.2251  -25.1429  -53.8458 H         1 UNK         0.0600 
    222 H222       -7.5834  -27.7027  -53.4443 H         1 UNK         0.0600 
    223 H223       -9.2505  -27.4524  -52.9351 H         1 UNK         0.0600 
    224 H224       -8.8492  -27.4701  -54.6464 H         1 UNK         0.0600 
    225 H225       -5.7259  -25.9482  -53.5910 H         1 UNK         0.3000 
    226 H226       -5.2293  -24.9374  -56.3502 H         1 UNK         0.0600 
    227 H227       -4.3583  -27.1810  -55.7716 H         1 UNK         0.0600 
    228 H228       -3.0295  -26.0652  -56.0304 H         1 UNK         0.0600 
    229 H229       -3.4836  -26.5249  -54.3933 H         1 UNK         0.0600 
    230 H230       -5.5706  -23.5200  -53.4617 H         1 UNK         0.3000 
    231 H231       -3.1554  -22.1894  -52.8766 H         1 UNK         0.0600 
    232 H232       -5.0457  -22.4747  -51.2727 H         1 UNK         0.0600 
    233 H233       -6.0442  -21.3839  -52.2289 H         1 UNK         0.0600 
    234 H234       -4.6036  -20.7795  -51.4192 H         1 UNK         0.0600 
    235 H235       -2.2003  -20.3814  -53.6237 H         1 UNK         0.3000 
    236 H236       -3.2137  -19.0187  -55.9874 H         1 UNK         0.0600 
    237 H237       -0.9949  -17.8903  -55.8808 H         1 UNK         0.0600 
    238 H238       -0.6846  -18.5980  -54.3004 H         1 UNK         0.0600 
    239 H239       -0.8114  -19.6295  -55.7264 H         1 UNK         0.0600 
    240 H240       -3.4733  -18.4908  -52.5957 H         1 UNK         0.3000 
    241 H241       -3.3708  -15.6610  -52.4685 H         1 UNK         0.0600 
    242 H242       -5.0079  -14.0188  -52.4294 H         1 UNK         0.3800 
    243 H243       -6.6390  -14.3573  -52.9305 H         1 UNK         0.3800 
    244 H244       -4.2583  -15.9191  -50.1924 H         1 UNK         0.0800 
    245 H245       -4.8172  -17.5335  -50.5289 H         1 UNK         0.0800 
    246 H246       -1.3167  -15.4969  -50.8284 H         1 UNK         0.0800 
    247 H247       -1.2346  -16.7265  -52.0733 H         1 UNK         0.0800 
@<TRIPOS>BOND
     1    1    2 1    
     2    1  127 1    
     3    1  128 1    
     4    1  129 1    
     5    2    3 2    
     6    2    4 am   BACKBONE|DICT|INTERRES
     7    4    5 1    
     8    4  130 1    
     9    5    6 1    
    10    5   65 1    
    11    5  131 1    
    12    6    7 1    
    13    6  132 1    
    14    6  133 1    
    15    7    8 1    
    16    8    9 1    
    17    8  134 1    
    18    8  135 1    
    19    9   10 ar   
    20    9   14 ar   
    21   10   11 ar   
    22   10  136 1    
    23   11   12 ar   
    24   11  126 1    
    25   12   13 ar   
    26   12  137 1    
    27   13   14 ar   
    28   13   15 1    
    29   14  138 1    
    30   15   16 1    
    31   15  139 1    
    32   15  140 1    
    33   16   17 1    
    34   17   18 1    
    35   17  141 1    
    36   17  142 1    
    37   18   19 1    
    38   18   67 1    
    39   18  143 1    
    40   19   20 am   BACKBONE|DICT|INTERRES
    41   19  144 1    
    42   20   21 2    
    43   20   22 1    
    44   22   23 1    
    45   22   24 1    
    46   22  145 1    
    47   23  146 1    
    48   23  147 1    
    49   23  148 1    
    50   24   25 am   BACKBONE|DICT|INTERRES
    51   24  149 1    
    52   25   26 2    
    53   25   27 1    
    54   27   28 1    
    55   27   29 1    
    56   27  150 1    
    57   28  151 1    
    58   28  152 1    
    59   28  153 1    
    60   29   30 am   BACKBONE|DICT|INTERRES
    61   29  154 1    
    62   30   31 2    
    63   30   32 1    
    64   32   33 1    
    65   32   34 1    
    66   32  155 1    
    67   33  156 1    
    68   33  157 1    
    69   33  158 1    
    70   34   35 am   BACKBONE|DICT|INTERRES
    71   34  159 1    
    72   35   36 2    
    73   35   37 1    
    74   37   38 1    
    75   37   39 1    
    76   37  160 1    
    77   38  161 1    
    78   38  162 1    
    79   38  163 1    
    80   39   40 am   BACKBONE|DICT|INTERRES
    81   39  164 1    
    82   40   41 2    
    83   40   42 1    
    84   42   43 1    
    85   42   44 1    
    86   42  165 1    
    87   43  166 1    
    88   43  167 1    
    89   43  168 1    
    90   44   45 am   BACKBONE|DICT|INTERRES
    91   44  169 1    
    92   45   46 2    
    93   45   47 1    
    94   47   48 1    
    95   47   49 1    
    96   47  170 1    
    97   48  171 1    
    98   48  172 1    
    99   48  173 1    
   100   49   50 am   BACKBONE|DICT|INTERRES
   101   49  174 1    
   102   50   51 2    
   103   50   52 1    
   104   52   53 1    
   105   52   54 1    
   106   52  175 1    
   107   53  176 1    
   108   53  177 1    
   109   53  178 1    
   110   54   55 am   BACKBONE|DICT|INTERRES
   111   54  179 1    
   112   55   56 2    
   113   55   57 1    
   114   57   58 1    
   115   57   59 1    
   116   57  180 1    
   117   58  181 1    
   118   58  182 1    
   119   58  183 1    
   120   59   60 am   BACKBONE|DICT|INTERRES
   121   59  184 1    
   122   60   61 2    
   123   60   62 1    
   124   62   63 1    
   125   62   64 1    
   126   62  185 1    
   127   63  186 1    
   128   63  187 1    
   129   63  188 1    
   130   64   65 am   BACKBONE|DICT|INTERRES
   131   64  189 1    
   132   65   66 2    
   133   67   68 2    
   134   67   69 am   BACKBONE|DICT|INTERRES
   135   69   70 1    
   136   69  190 1    
   137   70   71 1    
   138   70   72 1    
   139   70  191 1    
   140   71  192 1    
   141   71  193 1    
   142   71  194 1    
   143   72   73 2    
   144   72   74 am   BACKBONE|DICT|INTERRES
   145   74   75 1    
   146   74  195 1    
   147   75   76 1    
   148   75   77 1    
   149   75  196 1    
   150   76  197 1    
   151   76  198 1    
   152   76  199 1    
   153   77   78 2    
   154   77   79 am   BACKBONE|DICT|INTERRES
   155   79   80 1    
   156   79  200 1    
   157   80   81 1    
   158   80   82 1    
   159   80  201 1    
   160   81  202 1    
   161   81  203 1    
   162   81  204 1    
   163   82   83 2    
   164   82   84 am   BACKBONE|DICT|INTERRES
   165   84   85 1    
   166   84  205 1    
   167   85   86 1    
   168   85   87 1    
   169   85  206 1    
   170   86  207 1    
   171   86  208 1    
   172   86  209 1    
   173   87   88 2    
   174   87   89 am   BACKBONE|DICT|INTERRES
   175   89   90 1    
   176   89  210 1    
   177   90   91 1    
   178   90   92 1    
   179   90  211 1    
   180   91  212 1    
   181   91  213 1    
   182   91  214 1    
   183   92   93 2    
   184   92   94 am   BACKBONE|DICT|INTERRES
   185   94   95 1    
   186   94  215 1    
   187   95   96 1    
   188   95   97 1    
   189   95  216 1    
   190   96  217 1    
   191   96  218 1    
   192   96  219 1    
   193   97   98 2    
   194   97   99 am   BACKBONE|DICT|INTERRES
   195   99  100 1    
   196   99  220 1    
   197  100  101 1    
   198  100  102 1    
   199  100  221 1    
   200  101  222 1    
   201  101  223 1    
   202  101  224 1    
   203  102  103 2    
   204  102  104 am   BACKBONE|DICT|INTERRES
   205  104  105 1    
   206  104  225 1    
   207  105  106 1    
   208  105  107 1    
   209  105  226 1    
   210  106  227 1    
   211  106  228 1    
   212  106  229 1    
   213  107  108 2    
   214  107  109 am   BACKBONE|DICT|INTERRES
   215  109  110 1    
   216  109  230 1    
   217  110  111 1    
   218  110  112 1    
   219  110  231 1    
   220  111  232 1    
   221  111  233 1    
   222  111  234 1    
   223  112  113 2    
   224  112  114 am   BACKBONE|DICT|INTERRES
   225  114  115 1    
   226  114  235 1    
   227  115  116 1    
   228  115  117 1    
   229  115  236 1    
   230  116  237 1    
   231  116  238 1    
   232  116  239 1    
   233  117  118 2    
   234  117  119 am   BACKBONE|DICT|INTERRES
   235  119  120 1    
   236  119  240 1    
   237  120  121 1    
   238  120  124 1    
   239  120  241 1    
   240  121  122 am   BACKBONE|DICT|INTERRES
   241  121  123 2    
   242  122  242 1    
   243  122  243 1    
   244  124  125 1    
   245  124  244 1    
   246  124  245 1    
   247  125  126 1    
   248  126  246 1    
   249  126  247 1    
@<TRIPOS>SUBSTRUCTURE
     1 UNK         1 GROUP             0       ****    0 ROOT    
