@<TRIPOS>MOLECULE
3R540
247   249    1
SMALL
USER_CHARGES


@<TRIPOS>ATOM
      1 CA          0.5350  -13.5629  -53.1652 C.3       0 UNK        -0.1800 
      2 C           0.6051  -13.5743  -51.6446 C.2       0 UNK         0.5000 
      3 O           0.4714  -12.5247  -51.0153 O.2       0 UNK        -0.5000 
      4 N           0.8214  -14.7562  -51.0566 N.am      1 UNK        -0.5000 
      5 CA          0.8398  -14.9925  -49.6119 C.3       1 UNK         0.1400 
      6 C6          1.4832  -16.3573  -49.2544 C.3       23 UNK        -0.0398 
      7 S7          3.2669  -16.3943  -49.6271 S.3       23 UNK        -0.2404 
      8 C8          3.3199  -17.2970  -51.2138 C.3       23 UNK        -0.0205 
      9 C9          3.1082  -18.8054  -51.1007 C.ar      23 UNK        -0.0193 
     10 C10         2.3922  -19.4767  -52.0985 C.ar      23 UNK        -0.1150 
     11 C11         2.2653  -20.8687  -52.0716 C.ar      23 UNK        -0.0193 
     12 C12         2.8315  -21.5897  -51.0159 C.ar      23 UNK        -0.1150 
     13 C13         3.5521  -20.9366  -50.0112 C.ar      23 UNK        -0.0193 
     14 C14         3.6927  -19.5462  -50.0658 C.ar      23 UNK        -0.1150 
     15 C15         4.2292  -21.7453  -48.9075 C.3       23 UNK        -0.0205 
     16 S16         3.7638  -21.2204  -47.2239 S.3       23 UNK        -0.2404 
     17 C17         1.9798  -21.5851  -47.2034 C.3       23 UNK        -0.0398 
     18 CA          1.6055  -22.8336  -46.3644 C.3       11 UNK         0.1400 
     19 N           1.9505  -22.6721  -44.9547 N.am      11 UNK        -0.5000 
     20 C           2.2609  -23.6524  -44.0994 C.2       10 UNK         0.5000 
     21 O           2.3533  -24.8351  -44.4344 O.2       10 UNK        -0.5000 
     22 CA          2.4532  -23.2424  -42.6225 C.3       10 UNK         0.1400 
     23 CB          3.3166  -24.2391  -41.8214 C.3       10 UNK        -0.1800 
     24 N           2.9335  -21.8653  -42.4637 N.am      10 UNK        -0.5000 
     25 C           4.1205  -21.3585  -42.8307 C.2       9 UNK         0.5000 
     26 O           5.0395  -22.0334  -43.2961 O.2       9 UNK        -0.5000 
     27 CA          4.3206  -19.8356  -42.6689 C.3       9 UNK         0.1400 
     28 CB          4.4347  -19.1614  -44.0458 C.3       9 UNK        -0.1800 
     29 N           3.2530  -19.1749  -41.9134 N.am      9 UNK        -0.5000 
     30 C           3.1048  -19.2173  -40.5828 C.2       8 UNK         0.5000 
     31 O           3.8937  -19.7834  -39.8255 O.2       8 UNK        -0.5000 
     32 CA          1.8424  -18.5458  -40.0043 C.3       8 UNK         0.1400 
     33 CB          2.0815  -17.0481  -39.7610 C.3       8 UNK        -0.1800 
     34 N           0.6589  -18.7212  -40.8511 N.am      8 UNK        -0.5000 
     35 C           0.0756  -19.9022  -41.1049 C.2       7 UNK         0.5000 
     36 O           0.4537  -20.9694  -40.6214 O.2       7 UNK        -0.5000 
     37 CA         -1.0890  -19.9043  -42.1120 C.3       7 UNK         0.1400 
     38 CB         -2.3977  -19.4669  -41.4382 C.3       7 UNK        -0.1800 
     39 N          -0.8252  -19.0669  -43.2831 N.am      7 UNK        -0.5000 
     40 C           0.1730  -19.2820  -44.1524 C.2       6 UNK         0.5000 
     41 O           0.9514  -20.2297  -44.0755 O.2       6 UNK        -0.5000 
     42 CA          0.3713  -18.2436  -45.2669 C.3       6 UNK         0.1400 
     43 CB         -0.6673  -18.4371  -46.3772 C.3       6 UNK        -0.1800 
     44 N           0.2997  -16.8755  -44.7692 N.am      6 UNK        -0.5000 
     45 C           1.1136  -16.3365  -43.8537 C.2       5 UNK         0.5000 
     46 O           2.0791  -16.9192  -43.3630 O.2       5 UNK        -0.5000 
     47 CA          0.7432  -14.9269  -43.3665 C.3       5 UNK         0.1400 
     48 CB          1.2210  -13.8573  -44.3613 C.3       5 UNK        -0.1800 
     49 N          -0.6986  -14.7924  -43.1520 N.am      5 UNK        -0.5000 
     50 C          -1.3784  -15.4003  -42.1698 C.2       4 UNK         0.5000 
     51 O          -0.8527  -16.1186  -41.3187 O.2       4 UNK        -0.5000 
     52 CA         -2.9044  -15.1900  -42.1531 C.3       4 UNK         0.1400 
     53 CB         -3.2598  -13.8597  -41.4725 C.3       4 UNK        -0.1800 
     54 N          -3.5002  -15.2251  -43.4909 N.am      4 UNK        -0.5000 
     55 C          -3.6022  -16.3332  -44.2371 C.2       3 UNK         0.5000 
     56 O          -3.2072  -17.4406  -43.8742 O.2       3 UNK        -0.5000 
     57 CA         -4.1992  -16.1716  -45.6492 C.3       3 UNK         0.1400 
     58 CB         -5.7335  -16.1865  -45.6006 C.3       3 UNK        -0.1800 
     59 N          -3.7401  -14.9941  -46.3955 N.am      3 UNK        -0.5000 
     60 C          -2.4556  -14.6842  -46.6161 C.2       2 UNK         0.5000 
     61 O          -1.5121  -15.2304  -46.0453 O.2       2 UNK        -0.5000 
     62 CA         -2.1637  -13.5762  -47.6429 C.3       2 UNK         0.1400 
     63 CB         -2.1093  -12.2085  -46.9466 C.3       2 UNK        -0.1800 
     64 N          -0.8952  -13.8052  -48.3413 N.am      2 UNK        -0.5000 
     65 C          -0.5943  -14.8982  -49.0583 C.2       1 UNK         0.5000 
     66 O          -1.3907  -15.8077  -49.2936 O.2       1 UNK        -0.5000 
     67 C           0.0960  -23.1260  -46.4530 C.2       11 UNK         0.5000 
     68 O          -0.6746  -22.2525  -46.8528 O.2       11 UNK        -0.5000 
     69 N          -0.3141  -24.3377  -46.0537 N.am      12 UNK        -0.5000 
     70 CA         -1.7159  -24.7676  -45.9721 C.3       12 UNK         0.1400 
     71 CB         -1.7724  -26.2060  -45.4376 C.3       12 UNK        -0.1800 
     72 C          -2.4936  -24.6507  -47.2991 C.2       12 UNK         0.5000 
     73 O          -3.6740  -24.3003  -47.2851 O.2       12 UNK        -0.5000 
     74 N          -1.8017  -24.9016  -48.4198 N.am      13 UNK        -0.5000 
     75 CA         -2.3303  -24.7522  -49.7768 C.3       13 UNK         0.1400 
     76 CB         -1.3463  -25.3847  -50.7725 C.3       13 UNK        -0.1800 
     77 C          -2.6098  -23.2867  -50.1603 C.2       13 UNK         0.5000 
     78 O          -3.5395  -23.0320  -50.9264 O.2       13 UNK        -0.5000 
     79 N          -1.8150  -22.3539  -49.6161 N.am      14 UNK        -0.5000 
     80 CA         -1.9988  -20.9192  -49.8110 C.3       14 UNK         0.1400 
     81 CB         -0.6639  -20.1739  -49.6658 C.3       14 UNK        -0.1800 
     82 C          -3.0341  -20.3553  -48.8335 C.2       14 UNK         0.5000 
     83 O          -3.8718  -19.5568  -49.2483 O.2       14 UNK        -0.5000 
     84 N          -2.9815  -20.7953  -47.5687 N.am      15 UNK        -0.5000 
     85 CA         -3.8435  -20.3491  -46.4700 C.3       15 UNK         0.1400 
     86 CB         -3.4053  -21.0438  -45.1731 C.3       15 UNK        -0.1800 
     87 C          -5.3458  -20.5687  -46.7214 C.2       15 UNK         0.5000 
     88 O          -6.1666  -19.8022  -46.2183 O.2       15 UNK        -0.5000 
     89 N          -5.6693  -21.5900  -47.5229 N.am      16 UNK        -0.5000 
     90 CA         -7.0215  -21.9316  -47.9526 C.3       16 UNK         0.1400 
     91 CB         -6.9814  -23.3219  -48.6065 C.3       16 UNK        -0.1800 
     92 C          -7.6656  -20.9107  -48.9149 C.2       16 UNK         0.5000 
     93 O          -8.8932  -20.9031  -49.0201 O.2       16 UNK        -0.5000 
     94 N          -6.8587  -20.1016  -49.6200 N.am      17 UNK        -0.5000 
     95 CA         -7.3306  -19.2494  -50.7188 C.3       17 UNK         0.1400 
     96 CB         -7.1350  -20.0124  -52.0412 C.3       17 UNK        -0.1800 
     97 C          -6.6607  -17.8648  -50.7881 C.2       17 UNK         0.5000 
     98 O          -6.9682  -17.1103  -51.7100 O.2       17 UNK        -0.5000 
     99 N          -5.7385  -17.5576  -49.8640 N.am      18 UNK        -0.5000 
    100 CA        -4.8153  -16.4134  -49.8979 C.3       18 UNK         0.1400 
    101 CB        -5.5676  -15.0764  -49.7294 C.3       18 UNK        -0.1800 
    102 C         -3.9125  -16.4615  -51.1513 C.2       18 UNK         0.5000 
    103 O         -3.8201  -15.4878  -51.9000 O.2       18 UNK        -0.5000 
    104 N         -3.3187  -17.6442  -51.3714 N.am      19 UNK        -0.5000 
    105 CA        -2.4354  -18.0496  -52.4737 C.3       19 UNK         0.1400 
    106 CB        -1.1875  -17.1534  -52.5706 C.3       19 UNK        -0.1800 
    107 C         -3.1238  -18.2252  -53.8407 C.2       19 UNK         0.5000 
    108 O         -2.5112  -18.8080  -54.7387 O.2       19 UNK        -0.5000 
    109 N         -4.3893  -17.8049  -53.9818 N.am      20 UNK        -0.5000 
    110 CA        -5.2087  -17.9198  -55.1944 C.3       20 UNK         0.1400 
    111 CB        -6.3460  -16.8856  -55.1295 C.3       20 UNK        -0.1800 
    112 C         -5.7236  -19.3567  -55.4452 C.2       20 UNK         0.5000 
    113 O         -6.9039  -19.5600  -55.7347 O.2       20 UNK        -0.5000 
    114 N         -4.8161  -20.3271  -55.3267 N.am      21 UNK        -0.5000 
    115 CA        -5.0152  -21.7467  -55.5764 C.3       21 UNK         0.1400 
    116 CB        -5.5896  -22.4460  -54.3313 C.3       21 UNK        -0.1800 
    117 C         -3.6783  -22.3557  -56.0132 C.2       21 UNK         0.5000 
    118 O         -3.6041  -22.9313  -57.0997 O.2       21 UNK        -0.5000 
    119 N         -2.6419  -22.1935  -55.1774 N.am      22 UNK        -0.5000 
    120 CA        -1.2788  -22.6676  -55.4626 C.3       22 UNK         0.1400 
    121 C         -0.4129  -21.6926  -56.3122 C.2       22 UNK         0.5000 
    122 N         -0.7396  -20.4087  -56.4042 N.am      22 UNK        -0.7600 
    123 O          0.5696  -22.1161  -56.9146 O.2       22 UNK        -0.5000 
    124 C124       -0.5505  -23.1441  -54.1810 C.3       23 UNK        -0.0398 
    125 S125       -0.1992  -21.8386  -52.9492 S.3       23 UNK        -0.2404 
    126 C126        1.5865  -21.6058  -53.2176 C.3       23 UNK        -0.0205 
    127 H127        0.7180  -14.5513  -53.5877 H         1 UNK         0.0600 
    128 H128       -0.4507  -13.2313  -53.4916 H         1 UNK         0.0600 
    129 H129        1.2790  -12.8772  -53.5707 H         1 UNK         0.0600 
    130 H130        0.9017  -15.5805  -51.6307 H         1 UNK         0.3000 
    131 H131        1.4398  -14.2085  -49.1440 H         1 UNK         0.0600 
    132 H132        0.9794  -17.1831  -49.7595 H         1 UNK         0.0800 
    133 H133        1.3831  -16.5512  -48.1850 H         1 UNK         0.0800 
    134 H134        4.2993  -17.1315  -51.6641 H         1 UNK         0.0800 
    135 H135        2.5948  -16.8572  -51.8989 H         1 UNK         0.0800 
    136 H136        1.9642  -18.9214  -52.9213 H         1 UNK         0.1150 
    137 H137        2.7388  -22.6666  -50.9980 H         1 UNK         0.1150 
    138 H138        4.2753  -19.0448  -49.3060 H         1 UNK         0.1150 
    139 H139        4.0103  -22.8089  -49.0144 H         1 UNK         0.0800 
    140 H140        5.3096  -21.6439  -49.0169 H         1 UNK         0.0800 
    141 H141        1.6335  -21.7091  -48.2298 H         1 UNK         0.0800 
    142 H142        1.4739  -20.6985  -46.8202 H         1 UNK         0.0800 
    143 H143        2.1397  -23.6911  -46.7788 H         1 UNK         0.0600 
    144 H144        1.8016  -21.7378  -44.5772 H         1 UNK         0.3000 
    145 H145        1.4551  -23.2548  -42.1828 H         1 UNK         0.0600 
    146 H146        3.4346  -23.9156  -40.7872 H         1 UNK         0.0600 
    147 H147        2.8537  -25.2262  -41.8007 H         1 UNK         0.0600 
    148 H148        4.3106  -24.3564  -42.2534 H         1 UNK         0.0600 
    149 H149        2.2447  -21.2115  -42.1141 H         1 UNK         0.3000 
    150 H150        5.2632  -19.6865  -42.1386 H         1 UNK         0.0600 
    151 H151        5.2455  -19.5959  -44.6319 H         1 UNK         0.0600 
    152 H152        4.6397  -18.0953  -43.9483 H         1 UNK         0.0600 
    153 H153        3.5173  -19.2742  -44.6241 H         1 UNK         0.0600 
    154 H154        2.5948  -18.6240  -42.4562 H         1 UNK         0.3000 
    155 H155        1.6330  -19.0145  -39.0406 H         1 UNK         0.0600 
    156 H156        2.2781  -16.5140  -40.6906 H         1 UNK         0.0600 
    157 H157        2.9380  -16.8909  -39.1044 H         1 UNK         0.0600 
    158 H158        1.2172  -16.5834  -39.2859 H         1 UNK         0.0600 
    159 H159        0.2641  -17.8820  -41.2624 H         1 UNK         0.3000 
    160 H160       -1.2183  -20.9300  -42.4639 H         1 UNK         0.0600 
    161 H161       -3.2433  -19.5685  -42.1182 H         1 UNK         0.0600 
    162 H162       -2.3555  -18.4281  -41.1105 H         1 UNK         0.0600 
    163 H163       -2.6108  -20.0805  -40.5621 H         1 UNK         0.0600 
    164 H164       -1.4640  -18.2939  -43.4418 H         1 UNK         0.3000 
    165 H165        1.3647  -18.3965  -45.6932 H         1 UNK         0.0600 
    166 H166       -0.4252  -17.8501  -47.2624 H         1 UNK         0.0600 
    167 H167       -0.7186  -19.4823  -46.6744 H         1 UNK         0.0600 
    168 H168       -1.6621  -18.1428  -46.0481 H         1 UNK         0.0600 
    169 H169       -0.4492  -16.2952  -45.1466 H         1 UNK         0.3000 
    170 H170        1.2490  -14.7570  -42.4136 H         1 UNK         0.0600 
    171 H171        2.2998  -13.9198  -44.5094 H         1 UNK         0.0600 
    172 H172        0.7503  -13.9697  -45.3384 H         1 UNK         0.0600 
    173 H173        1.0007  -12.8539  -43.9969 H         1 UNK         0.0600 
    174 H174       -1.2158  -14.2917  -43.8599 H         1 UNK         0.3000 
    175 H175       -3.3425  -15.9987  -41.5641 H         1 UNK         0.0600 
    176 H176       -4.3395  -13.7403  -41.3808 H         1 UNK         0.0600 
    177 H177       -2.8421  -13.8131  -40.4658 H         1 UNK         0.0600 
    178 H178       -2.8729  -13.0048  -42.0285 H         1 UNK         0.0600 
    179 H179       -3.8340  -14.3519  -43.8713 H         1 UNK         0.3000 
    180 H180       -3.8812  -17.0384  -46.2283 H         1 UNK         0.0600 
    181 H181       -6.1305  -15.2986  -45.1074 H         1 UNK         0.0600 
    182 H182       -6.0981  -17.0580  -45.0545 H         1 UNK         0.0600 
    183 H183       -6.1601  -16.2369  -46.6024 H         1 UNK         0.0600 
    184 H184       -4.4565  -14.4593  -46.8637 H         1 UNK         0.3000 
    185 H185       -2.9594  -13.5664  -48.3890 H         1 UNK         0.0600 
    186 H186       -1.3139  -12.1684  -46.2009 H         1 UNK         0.0600 
    187 H187       -1.9367  -11.4066  -47.6648 H         1 UNK         0.0600 
    188 H188       -3.0485  -11.9894  -46.4370 H         1 UNK         0.0600 
    189 H189       -0.1868  -13.0967  -48.2201 H         1 UNK         0.3000 
    190 H190        0.3810  -24.9845  -45.7033 H         1 UNK         0.3000 
    191 H191       -2.2110  -24.1186  -45.2477 H         1 UNK         0.0600 
    192 H192       -1.3151  -26.2783  -44.4506 H         1 UNK         0.0600 
    193 H193       -1.2553  -26.9019  -46.0994 H         1 UNK         0.0600 
    194 H194       -2.8040  -26.5476  -45.3422 H         1 UNK         0.0600 
    195 H195       -0.8378  -25.1878  -48.3341 H         1 UNK         0.3000 
    196 H196       -3.2752  -25.2968  -49.8341 H         1 UNK         0.0600 
    197 H197       -1.7442  -25.3468  -51.7871 H         1 UNK         0.0600 
    198 H198       -1.1632  -26.4332  -50.5370 H         1 UNK         0.0600 
    199 H199       -0.3863  -24.8664  -50.7767 H         1 UNK         0.0600 
    200 H200       -1.1209  -22.6348  -48.9375 H         1 UNK         0.3000 
    201 H201       -2.3706  -20.7520  -50.8220 H         1 UNK         0.0600 
    202 H202        0.0590  -20.5064  -50.4059 H         1 UNK         0.0600 
    203 H203       -0.2173  -20.3265  -48.6871 H         1 UNK         0.0600 
    204 H204       -0.7965  -19.0997  -49.8021 H         1 UNK         0.0600 
    205 H205       -2.2296  -21.4330  -47.3155 H         1 UNK         0.3000 
    206 H206       -3.6894  -19.2781  -46.3506 H         1 UNK         0.0600 
    207 H207       -2.3466  -20.8811  -44.9739 H         1 UNK         0.0600 
    208 H208       -3.9603  -20.6571  -44.3177 H         1 UNK         0.0600 
    209 H209       -3.5758  -22.1195  -45.2195 H         1 UNK         0.0600 
    210 H210       -4.9232  -22.1855  -47.8571 H         1 UNK         0.3000 
    211 H211       -7.6536  -21.9881  -47.0641 H         1 UNK         0.0600 
    212 H212       -6.3415  -23.3307  -49.4903 H         1 UNK         0.0600 
    213 H213       -7.9774  -23.6395  -48.9176 H         1 UNK         0.0600 
    214 H214       -6.6032  -24.0735  -47.9129 H         1 UNK         0.0600 
    215 H215       -5.8563  -20.1605  -49.4811 H         1 UNK         0.3000 
    216 H216       -8.3962  -19.0437  -50.5999 H         1 UNK         0.0600 
    217 H217       -7.5294  -19.4481  -52.8870 H         1 UNK         0.0600 
    218 H218       -7.6548  -20.9704  -52.0266 H         1 UNK         0.0600 
    219 H219       -6.0796  -20.2061  -52.2371 H         1 UNK         0.0600 
    220 H220       -5.5060  -18.2674  -49.1817 H         1 UNK         0.3000 
    221 H221       -4.1509  -16.5270  -49.0397 H         1 UNK         0.0600 
    222 H222       -6.2287  -14.8693  -50.5709 H         1 UNK         0.0600 
    223 H223       -6.1711  -15.0742  -48.8223 H         1 UNK         0.0600 
    224 H224       -4.8683  -14.2435  -49.6599 H         1 UNK         0.0600 
    225 H225       -3.5084  -18.3673  -50.6832 H         1 UNK         0.3000 
    226 H226       -2.0771  -19.0439  -52.2137 H         1 UNK         0.0600 
    227 H227       -0.6502  -17.1434  -51.6239 H         1 UNK         0.0600 
    228 H228       -1.4390  -16.1255  -52.8313 H         1 UNK         0.0600 
    229 H229       -0.4971  -17.5238  -53.3295 H         1 UNK         0.0600 
    230 H230       -4.8284  -17.3500  -53.1930 H         1 UNK         0.3000 
    231 H231       -4.5815  -17.6592  -56.0494 H         1 UNK         0.0600 
    232 H232       -5.9604  -15.8827  -54.9449 H         1 UNK         0.0600 
    233 H233       -7.0597  -17.1217  -54.3405 H         1 UNK         0.0600 
    234 H234       -6.8980  -16.8524  -56.0696 H         1 UNK         0.0600 
    235 H235       -3.8611  -20.0323  -55.1454 H         1 UNK         0.3000 
    236 H236       -5.7193  -21.8693  -56.4023 H         1 UNK         0.0600 
    237 H237       -5.6646  -23.5227  -54.4878 H         1 UNK         0.0600 
    238 H238       -4.9691  -22.2835  -53.4489 H         1 UNK         0.0600 
    239 H239       -6.5918  -22.0821  -54.1069 H         1 UNK         0.0600 
    240 H240       -2.7711  -21.7236  -54.2940 H         1 UNK         0.3000 
    241 H241       -1.3736  -23.5613  -56.0830 H         1 UNK         0.0600 
    242 H242       -0.1696  -19.8011  -56.9698 H         1 UNK         0.3800 
    243 H243       -1.4890  -20.0064  -55.8514 H         1 UNK         0.3800 
    244 H244       -1.1614  -23.8999  -53.6869 H         1 UNK         0.0800 
    245 H245        0.3723  -23.6602  -54.4496 H         1 UNK         0.0800 
    246 H246        1.7390  -21.0646  -54.1526 H         1 UNK         0.0800 
    247 H247        2.0686  -22.5757  -53.3473 H         1 UNK         0.0800 
@<TRIPOS>BOND
     1    1    2 1    
     2    1  127 1    
     3    1  128 1    
     4    1  129 1    
     5    2    3 2    
     6    2    4 am   BACKBONE|DICT|INTERRES
     7    4    5 1    
     8    4  130 1    
     9    5    6 1    
    10    5   65 1    
    11    5  131 1    
    12    6    7 1    
    13    6  132 1    
    14    6  133 1    
    15    7    8 1    
    16    8    9 1    
    17    8  134 1    
    18    8  135 1    
    19    9   10 ar   
    20    9   14 ar   
    21   10   11 ar   
    22   10  136 1    
    23   11   12 ar   
    24   11  126 1    
    25   12   13 ar   
    26   12  137 1    
    27   13   14 ar   
    28   13   15 1    
    29   14  138 1    
    30   15   16 1    
    31   15  139 1    
    32   15  140 1    
    33   16   17 1    
    34   17   18 1    
    35   17  141 1    
    36   17  142 1    
    37   18   19 1    
    38   18   67 1    
    39   18  143 1    
    40   19   20 am   BACKBONE|DICT|INTERRES
    41   19  144 1    
    42   20   21 2    
    43   20   22 1    
    44   22   23 1    
    45   22   24 1    
    46   22  145 1    
    47   23  146 1    
    48   23  147 1    
    49   23  148 1    
    50   24   25 am   BACKBONE|DICT|INTERRES
    51   24  149 1    
    52   25   26 2    
    53   25   27 1    
    54   27   28 1    
    55   27   29 1    
    56   27  150 1    
    57   28  151 1    
    58   28  152 1    
    59   28  153 1    
    60   29   30 am   BACKBONE|DICT|INTERRES
    61   29  154 1    
    62   30   31 2    
    63   30   32 1    
    64   32   33 1    
    65   32   34 1    
    66   32  155 1    
    67   33  156 1    
    68   33  157 1    
    69   33  158 1    
    70   34   35 am   BACKBONE|DICT|INTERRES
    71   34  159 1    
    72   35   36 2    
    73   35   37 1    
    74   37   38 1    
    75   37   39 1    
    76   37  160 1    
    77   38  161 1    
    78   38  162 1    
    79   38  163 1    
    80   39   40 am   BACKBONE|DICT|INTERRES
    81   39  164 1    
    82   40   41 2    
    83   40   42 1    
    84   42   43 1    
    85   42   44 1    
    86   42  165 1    
    87   43  166 1    
    88   43  167 1    
    89   43  168 1    
    90   44   45 am   BACKBONE|DICT|INTERRES
    91   44  169 1    
    92   45   46 2    
    93   45   47 1    
    94   47   48 1    
    95   47   49 1    
    96   47  170 1    
    97   48  171 1    
    98   48  172 1    
    99   48  173 1    
   100   49   50 am   BACKBONE|DICT|INTERRES
   101   49  174 1    
   102   50   51 2    
   103   50   52 1    
   104   52   53 1    
   105   52   54 1    
   106   52  175 1    
   107   53  176 1    
   108   53  177 1    
   109   53  178 1    
   110   54   55 am   BACKBONE|DICT|INTERRES
   111   54  179 1    
   112   55   56 2    
   113   55   57 1    
   114   57   58 1    
   115   57   59 1    
   116   57  180 1    
   117   58  181 1    
   118   58  182 1    
   119   58  183 1    
   120   59   60 am   BACKBONE|DICT|INTERRES
   121   59  184 1    
   122   60   61 2    
   123   60   62 1    
   124   62   63 1    
   125   62   64 1    
   126   62  185 1    
   127   63  186 1    
   128   63  187 1    
   129   63  188 1    
   130   64   65 am   BACKBONE|DICT|INTERRES
   131   64  189 1    
   132   65   66 2    
   133   67   68 2    
   134   67   69 am   BACKBONE|DICT|INTERRES
   135   69   70 1    
   136   69  190 1    
   137   70   71 1    
   138   70   72 1    
   139   70  191 1    
   140   71  192 1    
   141   71  193 1    
   142   71  194 1    
   143   72   73 2    
   144   72   74 am   BACKBONE|DICT|INTERRES
   145   74   75 1    
   146   74  195 1    
   147   75   76 1    
   148   75   77 1    
   149   75  196 1    
   150   76  197 1    
   151   76  198 1    
   152   76  199 1    
   153   77   78 2    
   154   77   79 am   BACKBONE|DICT|INTERRES
   155   79   80 1    
   156   79  200 1    
   157   80   81 1    
   158   80   82 1    
   159   80  201 1    
   160   81  202 1    
   161   81  203 1    
   162   81  204 1    
   163   82   83 2    
   164   82   84 am   BACKBONE|DICT|INTERRES
   165   84   85 1    
   166   84  205 1    
   167   85   86 1    
   168   85   87 1    
   169   85  206 1    
   170   86  207 1    
   171   86  208 1    
   172   86  209 1    
   173   87   88 2    
   174   87   89 am   BACKBONE|DICT|INTERRES
   175   89   90 1    
   176   89  210 1    
   177   90   91 1    
   178   90   92 1    
   179   90  211 1    
   180   91  212 1    
   181   91  213 1    
   182   91  214 1    
   183   92   93 2    
   184   92   94 am   BACKBONE|DICT|INTERRES
   185   94   95 1    
   186   94  215 1    
   187   95   96 1    
   188   95   97 1    
   189   95  216 1    
   190   96  217 1    
   191   96  218 1    
   192   96  219 1    
   193   97   98 2    
   194   97   99 am   BACKBONE|DICT|INTERRES
   195   99  100 1    
   196   99  220 1    
   197  100  101 1    
   198  100  102 1    
   199  100  221 1    
   200  101  222 1    
   201  101  223 1    
   202  101  224 1    
   203  102  103 2    
   204  102  104 am   BACKBONE|DICT|INTERRES
   205  104  105 1    
   206  104  225 1    
   207  105  106 1    
   208  105  107 1    
   209  105  226 1    
   210  106  227 1    
   211  106  228 1    
   212  106  229 1    
   213  107  108 2    
   214  107  109 am   BACKBONE|DICT|INTERRES
   215  109  110 1    
   216  109  230 1    
   217  110  111 1    
   218  110  112 1    
   219  110  231 1    
   220  111  232 1    
   221  111  233 1    
   222  111  234 1    
   223  112  113 2    
   224  112  114 am   BACKBONE|DICT|INTERRES
   225  114  115 1    
   226  114  235 1    
   227  115  116 1    
   228  115  117 1    
   229  115  236 1    
   230  116  237 1    
   231  116  238 1    
   232  116  239 1    
   233  117  118 2    
   234  117  119 am   BACKBONE|DICT|INTERRES
   235  119  120 1    
   236  119  240 1    
   237  120  121 1    
   238  120  124 1    
   239  120  241 1    
   240  121  122 am   BACKBONE|DICT|INTERRES
   241  121  123 2    
   242  122  242 1    
   243  122  243 1    
   244  124  125 1    
   245  124  244 1    
   246  124  245 1    
   247  125  126 1    
   248  126  246 1    
   249  126  247 1    
@<TRIPOS>SUBSTRUCTURE
     1 UNK         1 GROUP             0       ****    0 ROOT    
