@<TRIPOS>MOLECULE
3R540
247   249    1
SMALL
USER_CHARGES


@<TRIPOS>ATOM
      1 CA         -2.9466  -12.4886  -43.5629 C.3       0 UNK        -0.1800 
      2 C          -2.4195  -12.7902  -44.9586 C.2       0 UNK         0.5000 
      3 O          -3.0720  -13.5015  -45.7211 O.2       0 UNK        -0.5000 
      4 N          -1.2434  -12.2548  -45.2944 N.am      1 UNK        -0.5000 
      5 CA         -0.5723  -12.4189  -46.5813 C.3       1 UNK         0.1400 
      6 C6          0.1801  -13.7734  -46.6813 C.3       23 UNK        -0.0398 
      7 S7          0.1533  -14.4798  -48.3608 S.3       23 UNK        -0.2404 
      8 C8         -1.1933  -15.6823  -48.1635 C.3       23 UNK        -0.0205 
      9 C9         -1.3744  -16.5492  -49.3967 C.ar      23 UNK        -0.0193 
     10 C10        -2.0932  -16.0667  -50.4928 C.ar      23 UNK        -0.1150 
     11 C11        -2.2855  -16.8661  -51.6228 C.ar      23 UNK        -0.0193 
     12 C12        -1.7696  -18.1663  -51.6378 C.ar      23 UNK        -0.1150 
     13 C13        -1.0455  -18.6607  -50.5488 C.ar      23 UNK        -0.0193 
     14 C14        -0.8424  -17.8415  -49.4341 C.ar      23 UNK        -0.1150 
     15 C15        -0.4696  -20.0698  -50.5911 C.3       23 UNK        -0.0205 
     16 S16        -1.6530  -21.3111  -49.9720 S.3       23 UNK        -0.2404 
     17 C17        -1.4951  -21.1171  -48.1629 C.3       23 UNK        -0.0398 
     18 CA         -1.0772  -22.4261  -47.4397 C.3       11 UNK         0.1400 
     19 N          -0.2045  -22.1621  -46.2881 N.am      11 UNK        -0.5000 
     20 C           0.3995  -23.1032  -45.5468 C.2       10 UNK         0.5000 
     21 O           0.3171  -24.3085  -45.7744 O.2       10 UNK        -0.5000 
     22 CA          1.1839  -22.6281  -44.3107 C.3       10 UNK         0.1400 
     23 CB          2.5671  -22.0934  -44.7092 C.3       10 UNK        -0.1800 
     24 N           0.4586  -21.6180  -43.5397 N.am      10 UNK        -0.5000 
     25 C          -0.7130  -21.8343  -42.9234 C.2       9 UNK         0.5000 
     26 O          -1.2746  -22.9285  -42.8911 O.2       9 UNK        -0.5000 
     27 CA         -1.4048  -20.6141  -42.2880 C.3       9 UNK         0.1400 
     28 CB         -0.8065  -20.2958  -40.9102 C.3       9 UNK        -0.1800 
     29 N          -1.3408  -19.4270  -43.1406 N.am      9 UNK        -0.5000 
     30 C          -1.8736  -19.3421  -44.3683 C.2       8 UNK         0.5000 
     31 O          -2.5268  -20.2393  -44.9007 O.2       8 UNK        -0.5000 
     32 CA         -1.5655  -18.0635  -45.1610 C.3       8 UNK         0.1400 
     33 CB         -2.4906  -16.9131  -44.7376 C.3       8 UNK        -0.1800 
     34 N          -0.1643  -17.6638  -45.0162 N.am      8 UNK        -0.5000 
     35 C           0.8674  -18.3520  -45.5271 C.2       7 UNK         0.5000 
     36 O           0.7365  -19.3583  -46.2217 O.2       7 UNK        -0.5000 
     37 CA          2.2803  -17.8666  -45.1626 C.3       7 UNK         0.1400 
     38 CB          2.7521  -16.7816  -46.1411 C.3       7 UNK        -0.1800 
     39 N           2.3493  -17.3672  -43.7885 N.am      7 UNK        -0.5000 
     40 C           2.2821  -18.1584  -42.7058 C.2       6 UNK         0.5000 
     41 O           2.1972  -19.3842  -42.7686 O.2       6 UNK        -0.5000 
     42 CA          2.2597  -17.4756  -41.3230 C.3       6 UNK         0.1400 
     43 CB          3.6882  -17.3111  -40.7839 C.3       6 UNK        -0.1800 
     44 N           1.5989  -16.1708  -41.3310 N.am      6 UNK        -0.5000 
     45 C           0.3234  -15.9526  -41.6803 C.2       5 UNK         0.5000 
     46 O          -0.4719  -16.8563  -41.9377 O.2       5 UNK        -0.5000 
     47 CA         -0.1191  -14.4816  -41.8347 C.3       5 UNK         0.1400 
     48 CB         -0.9246  -14.0287  -40.6089 C.3       5 UNK        -0.1800 
     49 N           0.9850  -13.5382  -42.0647 N.am      5 UNK        -0.5000 
     50 C           1.8259  -13.5863  -43.1064 C.2       4 UNK         0.5000 
     51 O           1.7614  -14.4453  -43.9900 O.2       4 UNK        -0.5000 
     52 CA          2.9634  -12.5572  -43.1336 C.3       4 UNK         0.1400 
     53 CB          4.0555  -12.9479  -42.1178 C.3       4 UNK        -0.1800 
     54 N           3.5080  -12.5338  -44.4867 N.am      4 UNK        -0.5000 
     55 C           4.3794  -11.6530  -44.9897 C.2       3 UNK         0.5000 
     56 O           4.8593  -10.7153  -44.3517 O.2       3 UNK        -0.5000 
     57 CA          4.7506  -11.8430  -46.4717 C.3       3 UNK         0.1400 
     58 CB          5.1920  -13.2853  -46.7815 C.3       3 UNK        -0.1800 
     59 N           3.6179  -11.4886  -47.3235 N.am      3 UNK        -0.5000 
     60 C           3.2460  -10.2343  -47.6169 C.2       2 UNK         0.5000 
     61 O           3.8964   -9.2340  -47.3121 O.2       2 UNK        -0.5000 
     62 CA          1.9059  -10.0696  -48.3619 C.3       2 UNK         0.1400 
     63 CB          2.1248  -10.0981  -49.8822 C.3       2 UNK        -0.1800 
     64 N           0.9171  -11.0894  -47.9985 N.am      2 UNK        -0.5000 
     65 C           0.3740  -11.2226  -46.7812 C.2       1 UNK         0.5000 
     66 O           0.6166  -10.4674  -45.8347 O.2       1 UNK        -0.5000 
     67 C          -2.3090  -23.2685  -47.0421 C.2       11 UNK         0.5000 
     68 O          -2.6376  -24.2439  -47.7223 O.2       11 UNK        -0.5000 
     69 N          -2.9486  -22.8936  -45.9249 N.am      12 UNK        -0.5000 
     70 CA         -4.0774  -23.6018  -45.3239 C.3       12 UNK         0.1400 
     71 CB         -4.6528  -22.7731  -44.1664 C.3       12 UNK        -0.1800 
     72 C          -3.7127  -25.0233  -44.8612 C.2       12 UNK         0.5000 
     73 O          -4.4678  -25.9565  -45.1294 O.2       12 UNK        -0.5000 
     74 N          -2.5560  -25.1717  -44.2045 N.am      13 UNK        -0.5000 
     75 CA         -2.0409  -26.4561  -43.7328 C.3       13 UNK         0.1400 
     76 CB         -0.8527  -26.2159  -42.7886 C.3       13 UNK        -0.1800 
     77 C          -1.6411  -27.4044  -44.8780 C.2       13 UNK         0.5000 
     78 O          -1.9597  -28.5928  -44.8183 O.2       13 UNK        -0.5000 
     79 N          -0.9386  -26.8713  -45.8858 N.am      14 UNK        -0.5000 
     80 CA         -0.3744  -27.6487  -46.9862 C.3       14 UNK         0.1400 
     81 CB          0.7841  -26.8659  -47.6247 C.3       14 UNK        -0.1800 
     82 C          -1.4042  -28.0350  -48.0591 C.2       14 UNK         0.5000 
     83 O          -1.3850  -29.1777  -48.5194 O.2       14 UNK        -0.5000 
     84 N          -2.2424  -27.0758  -48.4739 N.am      15 UNK        -0.5000 
     85 CA         -3.0376  -27.1768  -49.7014 C.3       15 UNK         0.1400 
     86 CB         -2.4250  -26.2169  -50.7353 C.3       15 UNK        -0.1800 
     87 C          -4.5300  -26.8637  -49.5097 C.2       15 UNK         0.5000 
     88 O          -5.2745  -26.9488  -50.4866 O.2       15 UNK        -0.5000 
     89 N          -4.9435  -26.4856  -48.2900 N.am      16 UNK        -0.5000 
     90 CA         -6.2592  -25.9142  -47.9635 C.3       16 UNK         0.1400 
     91 CB         -7.4040  -26.9178  -48.2215 C.3       16 UNK        -0.1800 
     92 C          -6.4772  -24.5394  -48.6354 C.2       16 UNK         0.5000 
     93 O          -7.6023  -24.2054  -49.0113 O.2       16 UNK        -0.5000 
     94 N          -5.3806  -23.7723  -48.7437 N.am      17 UNK        -0.5000 
     95 CA         -5.2363  -22.4565  -49.3706 C.3       17 UNK         0.1400 
     96 CB         -6.1920  -21.4235  -48.7372 C.3       17 UNK        -0.1800 
     97 C          -5.3343  -22.4968  -50.9102 C.2       17 UNK         0.5000 
     98 O          -5.5813  -23.5512  -51.4986 O.2       17 UNK        -0.5000 
     99 N          -5.1094  -21.3314  -51.5355 N.am      18 UNK        -0.5000 
    100 CA        -5.2014  -21.0753  -52.9789 C.3       18 UNK         0.1400 
    101 CB        -6.6580  -21.2337  -53.4652 C.3       18 UNK        -0.1800 
    102 C         -4.1863  -21.8685  -53.8318 C.2       18 UNK         0.5000 
    103 O         -4.4847  -22.2175  -54.9752 O.2       18 UNK        -0.5000 
    104 N         -2.9968  -22.1323  -53.2700 N.am      19 UNK        -0.5000 
    105 CA        -1.9119  -22.8483  -53.9503 C.3       19 UNK         0.1400 
    106 CB        -0.9445  -23.4178  -52.9021 C.3       19 UNK        -0.1800 
    107 C         -1.1400  -21.9696  -54.9538 C.2       19 UNK         0.5000 
    108 O         -0.5301  -22.5062  -55.8801 O.2       19 UNK        -0.5000 
    109 N         -1.1617  -20.6479  -54.7385 N.am      20 UNK        -0.5000 
    110 CA        -0.5111  -19.6440  -55.5800 C.3       20 UNK         0.1400 
    111 CB         0.1748  -18.6010  -54.6749 C.3       20 UNK        -0.1800 
    112 C         -1.5260  -19.0193  -56.5598 C.2       20 UNK         0.5000 
    113 O         -2.5262  -19.6536  -56.9033 O.2       20 UNK        -0.5000 
    114 N         -1.2576  -17.7796  -56.9939 N.am      21 UNK        -0.5000 
    115 CA        -2.0234  -17.0265  -57.9949 C.3       21 UNK         0.1400 
    116 CB        -1.3237  -15.6807  -58.2409 C.3       21 UNK        -0.1800 
    117 C         -3.5121  -16.8016  -57.6573 C.2       21 UNK         0.5000 
    118 O         -4.3123  -16.6162  -58.5754 O.2       21 UNK        -0.5000 
    119 N         -3.8604  -16.8351  -56.3643 N.am      22 UNK        -0.5000 
    120 CA        -5.2483  -16.8086  -55.8777 C.3       22 UNK         0.1400 
    121 C         -6.0151  -18.1592  -56.0225 C.2       22 UNK         0.5000 
    122 N         -5.3760  -19.2579  -56.4091 N.am      22 UNK        -0.7600 
    123 O         -7.2208  -18.2058  -55.7947 O.2       22 UNK        -0.5000 
    124 C124       -5.3491  -16.2116  -54.4495 C.3       23 UNK        -0.0398 
    125 S125       -4.5759  -17.2210  -53.1362 S.3       23 UNK        -0.2404 
    126 C126       -3.0308  -16.3148  -52.8303 C.3       23 UNK        -0.0205 
    127 H127       -3.8762  -11.9232  -43.6271 H         1 UNK         0.0600 
    128 H128       -2.2332  -11.9078  -42.9776 H         1 UNK         0.0600 
    129 H129       -3.1477  -13.4173  -43.0289 H         1 UNK         0.0600 
    130 H130       -0.7679  -11.6115  -44.6729 H         1 UNK         0.3000 
    131 H131       -1.3356  -12.3574  -47.3605 H         1 UNK         0.0600 
    132 H132        1.2217  -13.6736  -46.3764 H         1 UNK         0.0800 
    133 H133       -0.2443  -14.5035  -45.9908 H         1 UNK         0.0800 
    134 H134       -0.9727  -16.3136  -47.3061 H         1 UNK         0.0800 
    135 H135       -2.1229  -15.1582  -47.9345 H         1 UNK         0.0800 
    136 H136       -2.4953  -15.0636  -50.4650 H         1 UNK         0.1150 
    137 H137       -1.9325  -18.7927  -52.5012 H         1 UNK         0.1150 
    138 H138       -0.2739  -18.2084  -48.5917 H         1 UNK         0.1150 
    139 H139       -0.2029  -20.3201  -51.6186 H         1 UNK         0.0800 
    140 H140        0.4598  -20.1223  -50.0217 H         1 UNK         0.0800 
    141 H141       -2.4212  -20.7007  -47.7619 H         1 UNK         0.0800 
    142 H142       -0.7445  -20.3522  -47.9848 H         1 UNK         0.0800 
    143 H143       -0.4843  -23.0301  -48.1301 H         1 UNK         0.0600 
    144 H144       -0.0453  -21.1871  -46.0546 H         1 UNK         0.3000 
    145 H145        1.3334  -23.4937  -43.6621 H         1 UNK         0.0600 
    146 H146        3.1542  -21.8266  -43.8303 H         1 UNK         0.0600 
    147 H147        3.1315  -22.8461  -45.2609 H         1 UNK         0.0600 
    148 H148        2.4932  -21.2099  -45.3427 H         1 UNK         0.0600 
    149 H149        0.8929  -20.7037  -43.4641 H         1 UNK         0.3000 
    150 H150       -2.4589  -20.8635  -42.1505 H         1 UNK         0.0600 
    151 H151       -0.9119  -21.1461  -40.2355 H         1 UNK         0.0600 
    152 H152       -1.3098  -19.4468  -40.4471 H         1 UNK         0.0600 
    153 H153        0.2553  -20.0607  -40.9756 H         1 UNK         0.0600 
    154 H154       -0.8587  -18.6163  -42.7648 H         1 UNK         0.3000 
    155 H155       -1.7528  -18.2781  -46.2153 H         1 UNK         0.0600 
    156 H156       -2.3957  -16.6755  -43.6787 H         1 UNK         0.0600 
    157 H157       -3.5348  -17.1695  -44.9204 H         1 UNK         0.0600 
    158 H158       -2.2774  -16.0071  -45.3017 H         1 UNK         0.0600 
    159 H159        0.0300  -16.8803  -44.4102 H         1 UNK         0.3000 
    160 H160        2.9600  -18.7166  -45.2519 H         1 UNK         0.0600 
    161 H161        2.0849  -15.9216  -46.1421 H         1 UNK         0.0600 
    162 H162        2.7846  -17.1664  -47.1612 H         1 UNK         0.0600 
    163 H163        3.7537  -16.4316  -45.8916 H         1 UNK         0.0600 
    164 H164        2.3614  -16.3596  -43.6731 H         1 UNK         0.3000 
    165 H165        1.7074  -18.1243  -40.6406 H         1 UNK         0.0600 
    166 H166        3.6843  -16.9042  -39.7726 H         1 UNK         0.0600 
    167 H167        4.2033  -18.2719  -40.7442 H         1 UNK         0.0600 
    168 H168        4.2817  -16.6457  -41.4123 H         1 UNK         0.0600 
    169 H169        2.1784  -15.3700  -41.1304 H         1 UNK         0.3000 
    170 H170       -0.7728  -14.4401  -42.7079 H         1 UNK         0.0600 
    171 H171       -1.7741  -14.6902  -40.4334 H         1 UNK         0.0600 
    172 H172       -0.3148  -14.0296  -39.7046 H         1 UNK         0.0600 
    173 H173       -1.3220  -13.0229  -40.7460 H         1 UNK         0.0600 
    174 H174        1.1100  -12.8183  -41.3671 H         1 UNK         0.3000 
    175 H175        2.5562  -11.5730  -42.8941 H         1 UNK         0.0600 
    176 H176        4.4918  -13.9197  -42.3529 H         1 UNK         0.0600 
    177 H177        4.8638  -12.2174  -42.0960 H         1 UNK         0.0600 
    178 H178        3.6532  -13.0040  -41.1056 H         1 UNK         0.0600 
    179 H179        3.1488  -13.2790  -45.0689 H         1 UNK         0.3000 
    180 H180        5.5900  -11.1810  -46.6954 H         1 UNK         0.0600 
    181 H181        4.3759  -14.0007  -46.6757 H         1 UNK         0.0600 
    182 H182        5.9954  -13.5997  -46.1140 H         1 UNK         0.0600 
    183 H183        5.5695  -13.3655  -47.8011 H         1 UNK         0.0600 
    184 H184        3.0230  -12.2434  -47.6290 H         1 UNK         0.3000 
    185 H185        1.4970   -9.0931  -48.0936 H         1 UNK         0.0600 
    186 H186        2.8416   -9.3346  -50.1876 H         1 UNK         0.0600 
    187 H187        2.5099  -11.0624  -50.2164 H         1 UNK         0.0600 
    188 H188        1.1960   -9.9027  -50.4185 H         1 UNK         0.0600 
    189 H189        0.6681  -11.7519  -48.7201 H         1 UNK         0.3000 
    190 H190       -2.6411  -22.0499  -45.4468 H         1 UNK         0.3000 
    191 H191       -4.8564  -23.6899  -46.0806 H         1 UNK         0.0600 
    192 H192       -4.9818  -21.7925  -44.5110 H         1 UNK         0.0600 
    193 H193       -5.5166  -23.2693  -43.7225 H         1 UNK         0.0600 
    194 H194       -3.9196  -22.6193  -43.3749 H         1 UNK         0.0600 
    195 H195       -2.0096  -24.3467  -43.9723 H         1 UNK         0.3000 
    196 H196       -2.8316  -26.9444  -43.1593 H         1 UNK         0.0600 
    197 H197       -0.4537  -27.1589  -42.4129 H         1 UNK         0.0600 
    198 H198       -1.1507  -25.6215  -41.9247 H         1 UNK         0.0600 
    199 H199       -0.0395  -25.6903  -43.2904 H         1 UNK         0.0600 
    200 H200       -0.6744  -25.8894  -45.8411 H         1 UNK         0.3000 
    201 H201        0.0402  -28.5727  -46.5770 H         1 UNK         0.0600 
    202 H202        1.5637  -26.6504  -46.8939 H         1 UNK         0.0600 
    203 H203        0.4470  -25.9167  -48.0435 H         1 UNK         0.0600 
    204 H204        1.2444  -27.4363  -48.4325 H         1 UNK         0.0600 
    205 H205       -2.1995  -26.1556  -48.0455 H         1 UNK         0.3000 
    206 H206       -2.9945  -28.1873  -50.1123 H         1 UNK         0.0600 
    207 H207       -1.3787  -26.4555  -50.9272 H         1 UNK         0.0600 
    208 H208       -2.9497  -26.2706  -51.6901 H         1 UNK         0.0600 
    209 H209       -2.4767  -25.1835  -50.3899 H         1 UNK         0.0600 
    210 H210       -4.2690  -26.4836  -47.5366 H         1 UNK         0.3000 
    211 H211       -6.2570  -25.7171  -46.8930 H         1 UNK         0.0600 
    212 H212       -7.5704  -27.0882  -49.2851 H         1 UNK         0.0600 
    213 H213       -8.3419  -26.5498  -47.8044 H         1 UNK         0.0600 
    214 H214       -7.1975  -27.8803  -47.7536 H         1 UNK         0.0600 
    215 H215       -4.5038  -24.1782  -48.4334 H         1 UNK         0.3000 
    216 H216       -4.2225  -22.1430  -49.1331 H         1 UNK         0.0600 
    217 H217       -5.9335  -20.4081  -49.0385 H         1 UNK         0.0600 
    218 H218       -6.1403  -21.4555  -47.6486 H         1 UNK         0.0600 
    219 H219       -7.2282  -21.5937  -49.0302 H         1 UNK         0.0600 
    220 H220       -4.8834  -20.5235  -50.9723 H         1 UNK         0.3000 
    221 H221       -4.9318  -20.0300  -53.1151 H         1 UNK         0.0600 
    222 H222       -6.9931  -22.2698  -53.4144 H         1 UNK         0.0600 
    223 H223       -7.3400  -20.6296  -52.8669 H         1 UNK         0.0600 
    224 H224       -6.7669  -20.9080  -54.4994 H         1 UNK         0.0600 
    225 H225       -2.8308  -21.8451  -52.3158 H         1 UNK         0.3000 
    226 H226       -2.3421  -23.6872  -54.5017 H         1 UNK         0.0600 
    227 H227       -1.4733  -24.0040  -52.1539 H         1 UNK         0.0600 
    228 H228       -0.2083  -24.0734  -53.3688 H         1 UNK         0.0600 
    229 H229       -0.3962  -22.6310  -52.3850 H         1 UNK         0.0600 
    230 H230       -1.7458  -20.3054  -53.9930 H         1 UNK         0.3000 
    231 H231        0.2651  -20.1172  -56.1845 H         1 UNK         0.0600 
    232 H232       -0.5447  -17.9383  -54.1960 H         1 UNK         0.0600 
    233 H233        0.8658  -17.9783  -55.2439 H         1 UNK         0.0600 
    234 H234        0.7591  -19.0818  -53.8899 H         1 UNK         0.0600 
    235 H235       -0.4216  -17.3283  -56.6520 H         1 UNK         0.3000 
    236 H236       -1.9920  -17.6006  -58.9231 H         1 UNK         0.0600 
    237 H237       -0.3008  -15.8243  -58.5895 H         1 UNK         0.0600 
    238 H238       -1.8455  -15.1009  -59.0035 H         1 UNK         0.0600 
    239 H239       -1.2893  -15.0748  -57.3345 H         1 UNK         0.0600 
    240 H240       -3.1471  -17.0166  -55.6763 H         1 UNK         0.3000 
    241 H241       -5.7934  -16.1167  -56.5227 H         1 UNK         0.0600 
    242 H242       -5.8876  -20.1201  -56.5021 H         1 UNK         0.3800 
    243 H243       -4.3788  -19.2557  -56.6031 H         1 UNK         0.3800 
    244 H244       -4.9167  -15.2103  -54.4411 H         1 UNK         0.0800 
    245 H245       -6.3976  -16.0705  -54.1822 H         1 UNK         0.0800 
    246 H246       -3.2595  -15.2580  -52.6838 H         1 UNK         0.0800 
    247 H247       -2.3889  -16.3731  -53.7094 H         1 UNK         0.0800 
@<TRIPOS>BOND
     1    1    2 1    
     2    1  127 1    
     3    1  128 1    
     4    1  129 1    
     5    2    3 2    
     6    2    4 am   BACKBONE|DICT|INTERRES
     7    4    5 1    
     8    4  130 1    
     9    5    6 1    
    10    5   65 1    
    11    5  131 1    
    12    6    7 1    
    13    6  132 1    
    14    6  133 1    
    15    7    8 1    
    16    8    9 1    
    17    8  134 1    
    18    8  135 1    
    19    9   10 ar   
    20    9   14 ar   
    21   10   11 ar   
    22   10  136 1    
    23   11   12 ar   
    24   11  126 1    
    25   12   13 ar   
    26   12  137 1    
    27   13   14 ar   
    28   13   15 1    
    29   14  138 1    
    30   15   16 1    
    31   15  139 1    
    32   15  140 1    
    33   16   17 1    
    34   17   18 1    
    35   17  141 1    
    36   17  142 1    
    37   18   19 1    
    38   18   67 1    
    39   18  143 1    
    40   19   20 am   BACKBONE|DICT|INTERRES
    41   19  144 1    
    42   20   21 2    
    43   20   22 1    
    44   22   23 1    
    45   22   24 1    
    46   22  145 1    
    47   23  146 1    
    48   23  147 1    
    49   23  148 1    
    50   24   25 am   BACKBONE|DICT|INTERRES
    51   24  149 1    
    52   25   26 2    
    53   25   27 1    
    54   27   28 1    
    55   27   29 1    
    56   27  150 1    
    57   28  151 1    
    58   28  152 1    
    59   28  153 1    
    60   29   30 am   BACKBONE|DICT|INTERRES
    61   29  154 1    
    62   30   31 2    
    63   30   32 1    
    64   32   33 1    
    65   32   34 1    
    66   32  155 1    
    67   33  156 1    
    68   33  157 1    
    69   33  158 1    
    70   34   35 am   BACKBONE|DICT|INTERRES
    71   34  159 1    
    72   35   36 2    
    73   35   37 1    
    74   37   38 1    
    75   37   39 1    
    76   37  160 1    
    77   38  161 1    
    78   38  162 1    
    79   38  163 1    
    80   39   40 am   BACKBONE|DICT|INTERRES
    81   39  164 1    
    82   40   41 2    
    83   40   42 1    
    84   42   43 1    
    85   42   44 1    
    86   42  165 1    
    87   43  166 1    
    88   43  167 1    
    89   43  168 1    
    90   44   45 am   BACKBONE|DICT|INTERRES
    91   44  169 1    
    92   45   46 2    
    93   45   47 1    
    94   47   48 1    
    95   47   49 1    
    96   47  170 1    
    97   48  171 1    
    98   48  172 1    
    99   48  173 1    
   100   49   50 am   BACKBONE|DICT|INTERRES
   101   49  174 1    
   102   50   51 2    
   103   50   52 1    
   104   52   53 1    
   105   52   54 1    
   106   52  175 1    
   107   53  176 1    
   108   53  177 1    
   109   53  178 1    
   110   54   55 am   BACKBONE|DICT|INTERRES
   111   54  179 1    
   112   55   56 2    
   113   55   57 1    
   114   57   58 1    
   115   57   59 1    
   116   57  180 1    
   117   58  181 1    
   118   58  182 1    
   119   58  183 1    
   120   59   60 am   BACKBONE|DICT|INTERRES
   121   59  184 1    
   122   60   61 2    
   123   60   62 1    
   124   62   63 1    
   125   62   64 1    
   126   62  185 1    
   127   63  186 1    
   128   63  187 1    
   129   63  188 1    
   130   64   65 am   BACKBONE|DICT|INTERRES
   131   64  189 1    
   132   65   66 2    
   133   67   68 2    
   134   67   69 am   BACKBONE|DICT|INTERRES
   135   69   70 1    
   136   69  190 1    
   137   70   71 1    
   138   70   72 1    
   139   70  191 1    
   140   71  192 1    
   141   71  193 1    
   142   71  194 1    
   143   72   73 2    
   144   72   74 am   BACKBONE|DICT|INTERRES
   145   74   75 1    
   146   74  195 1    
   147   75   76 1    
   148   75   77 1    
   149   75  196 1    
   150   76  197 1    
   151   76  198 1    
   152   76  199 1    
   153   77   78 2    
   154   77   79 am   BACKBONE|DICT|INTERRES
   155   79   80 1    
   156   79  200 1    
   157   80   81 1    
   158   80   82 1    
   159   80  201 1    
   160   81  202 1    
   161   81  203 1    
   162   81  204 1    
   163   82   83 2    
   164   82   84 am   BACKBONE|DICT|INTERRES
   165   84   85 1    
   166   84  205 1    
   167   85   86 1    
   168   85   87 1    
   169   85  206 1    
   170   86  207 1    
   171   86  208 1    
   172   86  209 1    
   173   87   88 2    
   174   87   89 am   BACKBONE|DICT|INTERRES
   175   89   90 1    
   176   89  210 1    
   177   90   91 1    
   178   90   92 1    
   179   90  211 1    
   180   91  212 1    
   181   91  213 1    
   182   91  214 1    
   183   92   93 2    
   184   92   94 am   BACKBONE|DICT|INTERRES
   185   94   95 1    
   186   94  215 1    
   187   95   96 1    
   188   95   97 1    
   189   95  216 1    
   190   96  217 1    
   191   96  218 1    
   192   96  219 1    
   193   97   98 2    
   194   97   99 am   BACKBONE|DICT|INTERRES
   195   99  100 1    
   196   99  220 1    
   197  100  101 1    
   198  100  102 1    
   199  100  221 1    
   200  101  222 1    
   201  101  223 1    
   202  101  224 1    
   203  102  103 2    
   204  102  104 am   BACKBONE|DICT|INTERRES
   205  104  105 1    
   206  104  225 1    
   207  105  106 1    
   208  105  107 1    
   209  105  226 1    
   210  106  227 1    
   211  106  228 1    
   212  106  229 1    
   213  107  108 2    
   214  107  109 am   BACKBONE|DICT|INTERRES
   215  109  110 1    
   216  109  230 1    
   217  110  111 1    
   218  110  112 1    
   219  110  231 1    
   220  111  232 1    
   221  111  233 1    
   222  111  234 1    
   223  112  113 2    
   224  112  114 am   BACKBONE|DICT|INTERRES
   225  114  115 1    
   226  114  235 1    
   227  115  116 1    
   228  115  117 1    
   229  115  236 1    
   230  116  237 1    
   231  116  238 1    
   232  116  239 1    
   233  117  118 2    
   234  117  119 am   BACKBONE|DICT|INTERRES
   235  119  120 1    
   236  119  240 1    
   237  120  121 1    
   238  120  124 1    
   239  120  241 1    
   240  121  122 am   BACKBONE|DICT|INTERRES
   241  121  123 2    
   242  122  242 1    
   243  122  243 1    
   244  124  125 1    
   245  124  244 1    
   246  124  245 1    
   247  125  126 1    
   248  126  246 1    
   249  126  247 1    
@<TRIPOS>SUBSTRUCTURE
     1 UNK         1 GROUP             0       ****    0 ROOT    
