@<TRIPOS>MOLECULE
3R540
247   249    1
SMALL
USER_CHARGES


@<TRIPOS>ATOM
      1 CA          5.2121  -13.6120  -49.9492 C.3       0 UNK        -0.1800 
      2 C           4.4571  -13.5369  -51.2752 C.2       0 UNK         0.5000 
      3 O           4.4608  -12.4848  -51.9109 O.2       0 UNK        -0.5000 
      4 N           3.8102  -14.6133  -51.7456 N.am      1 UNK        -0.5000 
      5 CA          3.6669  -15.9227  -51.0934 C.3       1 UNK         0.1400 
      6 C6          3.1388  -16.9969  -52.0783 C.3       23 UNK        -0.0398 
      7 S7          4.3333  -17.3347  -53.4175 S.3       23 UNK        -0.2404 
      8 C8          3.9131  -19.0503  -53.8976 C.3       23 UNK        -0.0205 
      9 C9          4.1106  -20.1237  -52.8236 C.ar      23 UNK        -0.0193 
     10 C10         3.4497  -21.3493  -52.9690 C.ar      23 UNK        -0.1150 
     11 C11         3.5961  -22.3595  -52.0134 C.ar      23 UNK        -0.0193 
     12 C12         4.4128  -22.1416  -50.9023 C.ar      23 UNK        -0.1150 
     13 C13         5.0690  -20.9215  -50.7340 C.ar      23 UNK        -0.0193 
     14 C14         4.9334  -19.9278  -51.7065 C.ar      23 UNK        -0.1150 
     15 C15         5.8954  -20.6583  -49.4830 C.3       23 UNK        -0.0205 
     16 S16         4.8959  -20.7200  -47.9565 S.3       23 UNK        -0.2404 
     17 C17         3.4847  -19.6266  -48.3535 C.3       23 UNK        -0.0398 
     18 CA          2.1489  -20.4030  -48.4535 C.3       11 UNK         0.1400 
     19 N           1.8299  -21.0515  -47.1776 N.am      11 UNK        -0.5000 
     20 C           0.7697  -21.8222  -46.9029 C.2       10 UNK         0.5000 
     21 O          -0.0629  -22.1634  -47.7417 O.2       10 UNK        -0.5000 
     22 CA          0.5709  -22.2085  -45.4219 C.3       10 UNK         0.1400 
     23 CB          1.1425  -23.6076  -45.1516 C.3       10 UNK        -0.1800 
     24 N           1.1545  -21.2582  -44.4643 N.am      10 UNK        -0.5000 
     25 C           0.8911  -19.9452  -44.4002 C.2       9 UNK         0.5000 
     26 O           0.1079  -19.3692  -45.1563 O.2       9 UNK        -0.5000 
     27 CA          1.6549  -19.1491  -43.3278 C.3       9 UNK         0.1400 
     28 CB          1.6634  -17.6369  -43.6193 C.3       9 UNK        -0.1800 
     29 N           1.0821  -19.3737  -42.0052 N.am      9 UNK        -0.5000 
     30 C           1.2887  -20.4512  -41.2370 C.2       8 UNK         0.5000 
     31 O           2.0098  -21.3944  -41.5661 O.2       8 UNK        -0.5000 
     32 CA          0.5611  -20.4826  -39.8831 C.3       8 UNK         0.1400 
     33 CB          1.2642  -19.5641  -38.8707 C.3       8 UNK        -0.1800 
     34 N          -0.8281  -20.0532  -40.0350 N.am      8 UNK        -0.5000 
     35 C          -1.8921  -20.8678  -40.0172 C.2       7 UNK         0.5000 
     36 O          -1.8269  -22.0766  -39.7900 O.2       7 UNK        -0.5000 
     37 CA         -3.2682  -20.2306  -40.3079 C.3       7 UNK         0.1400 
     38 CB         -3.9701  -19.8462  -38.9965 C.3       7 UNK        -0.1800 
     39 N          -3.1898  -19.0487  -41.1690 N.am      7 UNK        -0.5000 
     40 C          -2.7922  -19.0649  -42.4489 C.2       6 UNK         0.5000 
     41 O          -2.5568  -20.1011  -43.0668 O.2       6 UNK        -0.5000 
     42 CA         -2.5912  -17.7028  -43.1459 C.3       6 UNK         0.1400 
     43 CB         -3.7733  -17.3927  -44.0776 C.3       6 UNK        -0.1800 
     44 N          -2.3859  -16.5645  -42.2391 N.am      6 UNK        -0.5000 
     45 C          -1.4035  -16.4359  -41.3360 C.2       5 UNK         0.5000 
     46 O          -0.5883  -17.3283  -41.0988 O.2       5 UNK        -0.5000 
     47 CA         -1.3214  -15.0961  -40.5742 C.3       5 UNK         0.1400 
     48 CB         -0.0563  -14.9947  -39.7025 C.3       5 UNK        -0.1800 
     49 N          -1.3550  -13.9500  -41.4832 N.am      5 UNK        -0.5000 
     50 C          -2.4577  -13.4054  -42.0133 C.2       4 UNK         0.5000 
     51 O          -3.5960  -13.8124  -41.7790 O.2       4 UNK        -0.5000 
     52 CA         -2.2500  -12.2404  -43.0006 C.3       4 UNK         0.1400 
     53 CB         -2.2790  -10.8953  -42.2590 C.3       4 UNK        -0.1800 
     54 N          -1.0051  -12.3405  -43.7708 N.am      4 UNK        -0.5000 
     55 C          -0.7477  -13.3015  -44.6671 C.2       3 UNK         0.5000 
     56 O          -1.5267  -14.2240  -44.9273 O.2       3 UNK        -0.5000 
     57 CA          0.6076  -13.2277  -45.3862 C.3       3 UNK         0.1400 
     58 CB          1.7478  -13.7277  -44.4824 C.3       3 UNK        -0.1800 
     59 N           0.5115  -14.0696  -46.5689 N.am      3 UNK        -0.5000 
     60 C           1.1641  -13.9153  -47.7224 C.2       2 UNK         0.5000 
     61 O           2.0221  -13.0547  -47.9301 O.2       2 UNK        -0.5000 
     62 CA          0.7288  -14.8788  -48.8364 C.3       2 UNK         0.1400 
     63 CB         -0.6048  -14.4380  -49.4581 C.3       2 UNK        -0.1800 
     64 N           1.7192  -15.0135  -49.9002 N.am      2 UNK        -0.5000 
     65 C           2.7583  -15.8548  -49.8493 C.2       1 UNK         0.5000 
     66 O           3.0167  -16.5581  -48.8744 O.2       1 UNK        -0.5000 
     67 C           1.0180  -19.4807  -48.9716 C.2       11 UNK         0.5000 
     68 O           0.9064  -19.2847  -50.1821 O.2       11 UNK        -0.5000 
     69 N           0.1551  -18.9767  -48.0724 N.am      12 UNK        -0.5000 
     70 CA         -1.0358  -18.1914  -48.4025 C.3       12 UNK         0.1400 
     71 CB         -1.5481  -17.4782  -47.1422 C.3       12 UNK        -0.1800 
     72 C          -2.1535  -18.9965  -49.0920 C.2       12 UNK         0.5000 
     73 O          -3.1192  -18.3960  -49.5644 O.2       12 UNK        -0.5000 
     74 N          -2.0030  -20.3239  -49.2139 N.am      13 UNK        -0.5000 
     75 CA         -2.8153  -21.1647  -50.0972 C.3       13 UNK         0.1400 
     76 CB         -2.4616  -22.6398  -49.8763 C.3       13 UNK        -0.1800 
     77 C          -2.6683  -20.7898  -51.5864 C.2       13 UNK         0.5000 
     78 O          -3.5825  -21.0511  -52.3649 O.2       13 UNK        -0.5000 
     79 N          -1.5619  -20.1242  -51.9551 N.am      14 UNK        -0.5000 
     80 CA         -1.3502  -19.5304  -53.2778 C.3       14 UNK         0.1400 
     81 CB          0.1087  -19.0683  -53.3845 C.3       14 UNK        -0.1800 
     82 C          -2.3123  -18.3611  -53.5811 C.2       14 UNK         0.5000 
     83 O          -2.5929  -18.0987  -54.7504 O.2       14 UNK        -0.5000 
     84 N          -2.8212  -17.7066  -52.5274 N.am      15 UNK        -0.5000 
     85 CA         -3.8647  -16.6800  -52.5813 C.3       15 UNK         0.1400 
     86 CB         -3.4559  -15.5179  -51.6608 C.3       15 UNK        -0.1800 
     87 C          -5.2446  -17.2482  -52.1850 C.2       15 UNK         0.5000 
     88 O          -6.1811  -16.4745  -51.9831 O.2       15 UNK        -0.5000 
     89 N          -5.3431  -18.5816  -52.0684 N.am      16 UNK        -0.5000 
     90 CA         -6.5110  -19.3721  -51.6721 C.3       16 UNK         0.1400 
     91 CB         -7.6600  -19.2113  -52.6892 C.3       16 UNK        -0.1800 
     92 C          -6.9672  -19.1423  -50.2116 C.2       16 UNK         0.5000 
     93 O          -8.1261  -19.4157  -49.8929 O.2       16 UNK        -0.5000 
     94 N          -6.0734  -18.6348  -49.3479 N.am      17 UNK        -0.5000 
     95 CA         -6.3953  -18.2702  -47.9677 C.3       17 UNK         0.1400 
     96 CB         -5.5391  -17.0691  -47.5377 C.3       17 UNK        -0.1800 
     97 C          -6.2194  -19.4478  -46.9949 C.2       17 UNK         0.5000 
     98 O          -7.1454  -19.7541  -46.2434 O.2       17 UNK        -0.5000 
     99 N          -5.0340  -20.0755  -47.0075 N.am      18 UNK        -0.5000 
    100 CA        -4.6740  -21.1525  -46.0746 C.3       18 UNK         0.1400 
    101 CB        -3.1462  -21.2743  -46.0027 C.3       18 UNK        -0.1800 
    102 C         -5.2947  -22.5122  -46.4487 C.2       18 UNK         0.5000 
    103 O         -5.5447  -23.3380  -45.5704 O.2       18 UNK        -0.5000 
    104 N         -5.5305  -22.7082  -47.7466 N.am      19 UNK        -0.5000 
    105 CA        -6.1504  -23.8605  -48.3872 C.3       19 UNK         0.1400 
    106 CB        -5.1656  -25.0428  -48.4497 C.3       19 UNK        -0.1800 
    107 C         -6.5709  -23.3986  -49.7898 C.2       19 UNK         0.5000 
    108 O         -6.1681  -22.3108  -50.2059 O.2       19 UNK        -0.5000 
    109 N         -7.3680  -24.2115  -50.4941 N.am      20 UNK        -0.5000 
    110 CA        -7.9506  -23.8777  -51.8008 C.3       20 UNK         0.1400 
    111 CB        -8.9083  -25.0019  -52.2249 C.3       20 UNK        -0.1800 
    112 C         -6.9238  -23.5959  -52.9180 C.2       20 UNK         0.5000 
    113 O         -7.1998  -22.7804  -53.7987 O.2       20 UNK        -0.5000 
    114 N         -5.7663  -24.2616  -52.8563 N.am      21 UNK        -0.5000 
    115 CA        -4.6264  -24.0775  -53.7467 C.3       21 UNK         0.1400 
    116 CB        -4.8753  -24.7916  -55.0881 C.3       21 UNK        -0.1800 
    117 C         -3.3790  -24.6385  -53.0516 C.2       21 UNK         0.5000 
    118 O         -3.5052  -25.5397  -52.2176 O.2       21 UNK        -0.5000 
    119 N         -2.2027  -24.1132  -53.4150 N.am      22 UNK        -0.5000 
    120 CA        -0.8945  -24.5773  -52.9152 C.3       22 UNK         0.1400 
    121 C         -0.2930  -25.7709  -53.7198 C.2       22 UNK         0.5000 
    122 N         -0.9015  -26.2110  -54.8148 N.am      22 UNK        -0.7600 
    123 O          0.7368  -26.3212  -53.3416 O.2       22 UNK        -0.5000 
    124 C124        0.1074  -23.3972  -52.7757 C.3       23 UNK        -0.0398 
    125 S125        1.2320  -23.6057  -51.3520 S.3       23 UNK        -0.2404 
    126 C126        2.8621  -23.6821  -52.1563 C.3       23 UNK        -0.0205 
    127 H127        4.5176  -13.6340  -49.1098 H         1 UNK         0.0600 
    128 H128        5.8511  -12.7372  -49.8269 H         1 UNK         0.0600 
    129 H129        5.8523  -14.4922  -49.9018 H         1 UNK         0.0600 
    130 H130        3.3599  -14.5376  -52.6463 H         1 UNK         0.3000 
    131 H131        4.6515  -16.2478  -50.7524 H         1 UNK         0.0600 
    132 H132        2.9282  -17.9292  -51.5515 H         1 UNK         0.0800 
    133 H133        2.1943  -16.6827  -52.5251 H         1 UNK         0.0800 
    134 H134        4.5250  -19.3194  -54.7593 H         1 UNK         0.0800 
    135 H135        2.8795  -19.0617  -54.2437 H         1 UNK         0.0800 
    136 H136        2.8116  -21.5165  -53.8254 H         1 UNK         0.1150 
    137 H137        4.5132  -22.9105  -50.1489 H         1 UNK         0.1150 
    138 H138        5.4573  -18.9931  -51.5733 H         1 UNK         0.1150 
    139 H139        6.6918  -21.4007  -49.4170 H         1 UNK         0.0800 
    140 H140        6.3861  -19.6854  -49.5398 H         1 UNK         0.0800 
    141 H141        3.6909  -19.0905  -49.2801 H         1 UNK         0.0800 
    142 H142        3.4212  -18.8632  -47.5762 H         1 UNK         0.0800 
    143 H143        2.2632  -21.1953  -49.1958 H         1 UNK         0.0600 
    144 H144        2.4623  -20.8472  -46.4186 H         1 UNK         0.3000 
    145 H145       -0.5029  -22.2360  -45.2349 H         1 UNK         0.0600 
    146 H146        0.9249  -23.9330  -44.1340 H         1 UNK         0.0600 
    147 H147        0.7071  -24.3448  -45.8277 H         1 UNK         0.0600 
    148 H148        2.2242  -23.6330  -45.2894 H         1 UNK         0.0600 
    149 H149        1.7658  -21.6471  -43.7565 H         1 UNK         0.3000 
    150 H150        2.6921  -19.4908  -43.3295 H         1 UNK         0.0600 
    151 H151        2.1087  -17.4294  -44.5932 H         1 UNK         0.0600 
    152 H152        2.2448  -17.0953  -42.8731 H         1 UNK         0.0600 
    153 H153        0.6575  -17.2166  -43.6249 H         1 UNK         0.0600 
    154 H154        0.4687  -18.6380  -41.6609 H         1 UNK         0.3000 
    155 H155        0.6091  -21.5045  -39.5011 H         1 UNK         0.0600 
    156 H156        1.2465  -18.5206  -39.1887 H         1 UNK         0.0600 
    157 H157        2.3084  -19.8517  -38.7416 H         1 UNK         0.0600 
    158 H158        0.7873  -19.6223  -37.8922 H         1 UNK         0.0600 
    159 H159       -0.9679  -19.0769  -40.2723 H         1 UNK         0.3000 
    160 H160       -3.8781  -20.9799  -40.8170 H         1 UNK         0.0600 
    161 H161       -3.4142  -19.0821  -38.4515 H         1 UNK         0.0600 
    162 H162       -4.0700  -20.7111  -38.3392 H         1 UNK         0.0600 
    163 H163       -4.9739  -19.4640  -39.1830 H         1 UNK         0.0600 
    164 H164       -3.3748  -18.1556  -40.7375 H         1 UNK         0.3000 
    165 H165       -1.6945  -17.7930  -43.7612 H         1 UNK         0.0600 
    166 H166       -3.5803  -16.4994  -44.6726 H         1 UNK         0.0600 
    167 H167       -3.9506  -18.2127  -44.7747 H         1 UNK         0.0600 
    168 H168       -4.6954  -17.2327  -43.5177 H         1 UNK         0.0600 
    169 H169       -3.0130  -15.7772  -42.3553 H         1 UNK         0.3000 
    170 H170       -2.1866  -15.0512  -39.9098 H         1 UNK         0.0600 
    171 H171       -0.0195  -15.8005  -38.9680 H         1 UNK         0.0600 
    172 H172        0.8523  -15.0555  -40.3030 H         1 UNK         0.0600 
    173 H173       -0.0319  -14.0549  -39.1506 H         1 UNK         0.0600 
    174 H174       -0.4612  -13.5757  -41.7646 H         1 UNK         0.3000 
    175 H175       -3.0834  -12.2579  -43.7062 H         1 UNK         0.0600 
    176 H176       -1.4514  -10.8054  -41.5542 H         1 UNK         0.0600 
    177 H177       -2.2203  -10.0589  -42.9557 H         1 UNK         0.0600 
    178 H178       -3.2052  -10.7808  -41.6940 H         1 UNK         0.0600 
    179 H179       -0.3182  -11.6170  -43.6126 H         1 UNK         0.3000 
    180 H180        0.7910  -12.1932  -45.6839 H         1 UNK         0.0600 
    181 H181        1.5711  -14.7486  -44.1429 H         1 UNK         0.0600 
    182 H182        1.8531  -13.0996  -43.5973 H         1 UNK         0.0600 
    183 H183        2.7034  -13.7110  -45.0068 H         1 UNK         0.0600 
    184 H184       -0.2359  -14.7498  -46.4980 H         1 UNK         0.3000 
    185 H185        0.5911  -15.8537  -48.3705 H         1 UNK         0.0600 
    186 H186       -0.9282  -15.1485  -50.2172 H         1 UNK         0.0600 
    187 H187       -1.3954  -14.3837  -48.7085 H         1 UNK         0.0600 
    188 H188       -0.5265  -13.4565  -49.9271 H         1 UNK         0.0600 
    189 H189        1.6154  -14.4084  -50.7015 H         1 UNK         0.3000 
    190 H190        0.2782  -19.1976  -47.0874 H         1 UNK         0.3000 
    191 H191       -0.7384  -17.4349  -49.1281 H         1 UNK         0.0600 
    192 H192       -2.2727  -16.7054  -47.3979 H         1 UNK         0.0600 
    193 H193       -0.7382  -16.9901  -46.6001 H         1 UNK         0.0600 
    194 H194       -2.0293  -18.1726  -46.4546 H         1 UNK         0.0600 
    195 H195       -1.2049  -20.7743  -48.7766 H         1 UNK         0.3000 
    196 H196       -3.8624  -21.0186  -49.8285 H         1 UNK         0.0600 
    197 H197       -1.4199  -22.8450  -50.1216 H         1 UNK         0.0600 
    198 H198       -2.6248  -22.9410  -48.8426 H         1 UNK         0.0600 
    199 H199       -3.0821  -23.2829  -50.4988 H         1 UNK         0.0600 
    200 H200       -0.8358  -19.9524  -51.2679 H         1 UNK         0.3000 
    201 H201       -1.5214  -20.3052  -54.0279 H         1 UNK         0.0600 
    202 H202        0.7961  -19.8910  -53.1876 H         1 UNK         0.0600 
    203 H203        0.3278  -18.2728  -52.6720 H         1 UNK         0.0600 
    204 H204        0.3278  -18.6872  -54.3825 H         1 UNK         0.0600 
    205 H205       -2.5637  -18.0087  -51.5964 H         1 UNK         0.3000 
    206 H206       -3.9602  -16.2895  -53.5962 H         1 UNK         0.0600 
    207 H207       -2.5057  -15.0885  -51.9770 H         1 UNK         0.0600 
    208 H208       -4.1928  -14.7143  -51.6861 H         1 UNK         0.0600 
    209 H209       -3.3569  -15.8400  -50.6235 H         1 UNK         0.0600 
    210 H210       -4.5207  -19.1341  -52.2760 H         1 UNK         0.3000 
    211 H211       -6.1833  -20.4066  -51.7395 H         1 UNK         0.0600 
    212 H212       -8.4520  -19.9367  -52.4994 H         1 UNK         0.0600 
    213 H213       -7.3105  -19.3797  -53.7079 H         1 UNK         0.0600 
    214 H214       -8.1082  -18.2185  -52.6446 H         1 UNK         0.0600 
    215 H215       -5.1276  -18.4459  -49.6627 H         1 UNK         0.3000 
    216 H216       -7.4388  -17.9512  -47.9159 H         1 UNK         0.0600 
    217 H217       -4.4785  -17.3106  -47.5293 H         1 UNK         0.0600 
    218 H218       -5.8060  -16.7399  -46.5327 H         1 UNK         0.0600 
    219 H219       -5.6834  -16.2216  -48.2080 H         1 UNK         0.0600 
    220 H220       -4.3265  -19.7692  -47.6576 H         1 UNK         0.3000 
    221 H221       -5.0334  -20.8833  -45.0788 H         1 UNK         0.0600 
    222 H222       -2.6762  -20.3229  -45.7575 H         1 UNK         0.0600 
    223 H223       -2.7195  -21.6292  -46.9381 H         1 UNK         0.0600 
    224 H224       -2.8593  -21.9835  -45.2259 H         1 UNK         0.0600 
    225 H225       -5.3646  -21.9496  -48.3964 H         1 UNK         0.3000 
    226 H226       -7.0438  -24.1439  -47.8275 H         1 UNK         0.0600 
    227 H227       -4.2842  -24.8052  -49.0447 H         1 UNK         0.0600 
    228 H228       -4.8278  -25.3334  -47.4550 H         1 UNK         0.0600 
    229 H229       -5.6339  -25.9195  -48.8980 H         1 UNK         0.0600 
    230 H230       -7.6475  -25.0943  -50.0913 H         1 UNK         0.3000 
    231 H231       -8.5371  -22.9656  -51.6700 H         1 UNK         0.0600 
    232 H232       -8.3868  -25.9536  -52.3347 H         1 UNK         0.0600 
    233 H233       -9.3798  -24.7738  -53.1818 H         1 UNK         0.0600 
    234 H234       -9.7072  -25.1373  -51.4955 H         1 UNK         0.0600 
    235 H235       -5.5939  -24.8973  -52.0876 H         1 UNK         0.3000 
    236 H236       -4.4808  -23.0100  -53.9223 H         1 UNK         0.0600 
    237 H237       -5.7494  -24.3872  -55.5986 H         1 UNK         0.0600 
    238 H238       -4.0261  -24.6696  -55.7612 H         1 UNK         0.0600 
    239 H239       -5.0354  -25.8614  -54.9484 H         1 UNK         0.0600 
    240 H240       -2.1828  -23.3863  -54.1154 H         1 UNK         0.3000 
    241 H241       -1.0651  -24.9730  -51.9119 H         1 UNK         0.0600 
    242 H242       -0.5052  -26.9876  -55.3211 H         1 UNK         0.3800 
    243 H243       -1.7528  -25.7841  -55.1407 H         1 UNK         0.3800 
    244 H244       -0.4303  -22.4697  -52.5936 H         1 UNK         0.0800 
    245 H245        0.6609  -23.2285  -53.7005 H         1 UNK         0.0800 
    246 H246        2.7714  -23.9631  -53.2063 H         1 UNK         0.0800 
    247 H247        3.4420  -24.4778  -51.6865 H         1 UNK         0.0800 
@<TRIPOS>BOND
     1    1    2 1    
     2    1  127 1    
     3    1  128 1    
     4    1  129 1    
     5    2    3 2    
     6    2    4 am   BACKBONE|DICT|INTERRES
     7    4    5 1    
     8    4  130 1    
     9    5    6 1    
    10    5   65 1    
    11    5  131 1    
    12    6    7 1    
    13    6  132 1    
    14    6  133 1    
    15    7    8 1    
    16    8    9 1    
    17    8  134 1    
    18    8  135 1    
    19    9   10 ar   
    20    9   14 ar   
    21   10   11 ar   
    22   10  136 1    
    23   11   12 ar   
    24   11  126 1    
    25   12   13 ar   
    26   12  137 1    
    27   13   14 ar   
    28   13   15 1    
    29   14  138 1    
    30   15   16 1    
    31   15  139 1    
    32   15  140 1    
    33   16   17 1    
    34   17   18 1    
    35   17  141 1    
    36   17  142 1    
    37   18   19 1    
    38   18   67 1    
    39   18  143 1    
    40   19   20 am   BACKBONE|DICT|INTERRES
    41   19  144 1    
    42   20   21 2    
    43   20   22 1    
    44   22   23 1    
    45   22   24 1    
    46   22  145 1    
    47   23  146 1    
    48   23  147 1    
    49   23  148 1    
    50   24   25 am   BACKBONE|DICT|INTERRES
    51   24  149 1    
    52   25   26 2    
    53   25   27 1    
    54   27   28 1    
    55   27   29 1    
    56   27  150 1    
    57   28  151 1    
    58   28  152 1    
    59   28  153 1    
    60   29   30 am   BACKBONE|DICT|INTERRES
    61   29  154 1    
    62   30   31 2    
    63   30   32 1    
    64   32   33 1    
    65   32   34 1    
    66   32  155 1    
    67   33  156 1    
    68   33  157 1    
    69   33  158 1    
    70   34   35 am   BACKBONE|DICT|INTERRES
    71   34  159 1    
    72   35   36 2    
    73   35   37 1    
    74   37   38 1    
    75   37   39 1    
    76   37  160 1    
    77   38  161 1    
    78   38  162 1    
    79   38  163 1    
    80   39   40 am   BACKBONE|DICT|INTERRES
    81   39  164 1    
    82   40   41 2    
    83   40   42 1    
    84   42   43 1    
    85   42   44 1    
    86   42  165 1    
    87   43  166 1    
    88   43  167 1    
    89   43  168 1    
    90   44   45 am   BACKBONE|DICT|INTERRES
    91   44  169 1    
    92   45   46 2    
    93   45   47 1    
    94   47   48 1    
    95   47   49 1    
    96   47  170 1    
    97   48  171 1    
    98   48  172 1    
    99   48  173 1    
   100   49   50 am   BACKBONE|DICT|INTERRES
   101   49  174 1    
   102   50   51 2    
   103   50   52 1    
   104   52   53 1    
   105   52   54 1    
   106   52  175 1    
   107   53  176 1    
   108   53  177 1    
   109   53  178 1    
   110   54   55 am   BACKBONE|DICT|INTERRES
   111   54  179 1    
   112   55   56 2    
   113   55   57 1    
   114   57   58 1    
   115   57   59 1    
   116   57  180 1    
   117   58  181 1    
   118   58  182 1    
   119   58  183 1    
   120   59   60 am   BACKBONE|DICT|INTERRES
   121   59  184 1    
   122   60   61 2    
   123   60   62 1    
   124   62   63 1    
   125   62   64 1    
   126   62  185 1    
   127   63  186 1    
   128   63  187 1    
   129   63  188 1    
   130   64   65 am   BACKBONE|DICT|INTERRES
   131   64  189 1    
   132   65   66 2    
   133   67   68 2    
   134   67   69 am   BACKBONE|DICT|INTERRES
   135   69   70 1    
   136   69  190 1    
   137   70   71 1    
   138   70   72 1    
   139   70  191 1    
   140   71  192 1    
   141   71  193 1    
   142   71  194 1    
   143   72   73 2    
   144   72   74 am   BACKBONE|DICT|INTERRES
   145   74   75 1    
   146   74  195 1    
   147   75   76 1    
   148   75   77 1    
   149   75  196 1    
   150   76  197 1    
   151   76  198 1    
   152   76  199 1    
   153   77   78 2    
   154   77   79 am   BACKBONE|DICT|INTERRES
   155   79   80 1    
   156   79  200 1    
   157   80   81 1    
   158   80   82 1    
   159   80  201 1    
   160   81  202 1    
   161   81  203 1    
   162   81  204 1    
   163   82   83 2    
   164   82   84 am   BACKBONE|DICT|INTERRES
   165   84   85 1    
   166   84  205 1    
   167   85   86 1    
   168   85   87 1    
   169   85  206 1    
   170   86  207 1    
   171   86  208 1    
   172   86  209 1    
   173   87   88 2    
   174   87   89 am   BACKBONE|DICT|INTERRES
   175   89   90 1    
   176   89  210 1    
   177   90   91 1    
   178   90   92 1    
   179   90  211 1    
   180   91  212 1    
   181   91  213 1    
   182   91  214 1    
   183   92   93 2    
   184   92   94 am   BACKBONE|DICT|INTERRES
   185   94   95 1    
   186   94  215 1    
   187   95   96 1    
   188   95   97 1    
   189   95  216 1    
   190   96  217 1    
   191   96  218 1    
   192   96  219 1    
   193   97   98 2    
   194   97   99 am   BACKBONE|DICT|INTERRES
   195   99  100 1    
   196   99  220 1    
   197  100  101 1    
   198  100  102 1    
   199  100  221 1    
   200  101  222 1    
   201  101  223 1    
   202  101  224 1    
   203  102  103 2    
   204  102  104 am   BACKBONE|DICT|INTERRES
   205  104  105 1    
   206  104  225 1    
   207  105  106 1    
   208  105  107 1    
   209  105  226 1    
   210  106  227 1    
   211  106  228 1    
   212  106  229 1    
   213  107  108 2    
   214  107  109 am   BACKBONE|DICT|INTERRES
   215  109  110 1    
   216  109  230 1    
   217  110  111 1    
   218  110  112 1    
   219  110  231 1    
   220  111  232 1    
   221  111  233 1    
   222  111  234 1    
   223  112  113 2    
   224  112  114 am   BACKBONE|DICT|INTERRES
   225  114  115 1    
   226  114  235 1    
   227  115  116 1    
   228  115  117 1    
   229  115  236 1    
   230  116  237 1    
   231  116  238 1    
   232  116  239 1    
   233  117  118 2    
   234  117  119 am   BACKBONE|DICT|INTERRES
   235  119  120 1    
   236  119  240 1    
   237  120  121 1    
   238  120  124 1    
   239  120  241 1    
   240  121  122 am   BACKBONE|DICT|INTERRES
   241  121  123 2    
   242  122  242 1    
   243  122  243 1    
   244  124  125 1    
   245  124  244 1    
   246  124  245 1    
   247  125  126 1    
   248  126  246 1    
   249  126  247 1    
@<TRIPOS>SUBSTRUCTURE
     1 UNK         1 GROUP             0       ****    0 ROOT    
