@<TRIPOS>MOLECULE
3R540
247   249    1
SMALL
USER_CHARGES


@<TRIPOS>ATOM
      1 CA          0.7728  -14.7927  -51.7156 C.3       0 UNK        -0.1800 
      2 C           1.7481  -14.0546  -50.8127 C.2       0 UNK         0.5000 
      3 O           1.8263  -12.8277  -50.8764 O.2       0 UNK        -0.5000 
      4 N           2.4850  -14.7898  -49.9677 N.am      1 UNK        -0.5000 
      5 CA          3.4258  -14.2380  -48.9786 C.3       1 UNK         0.1400 
      6 C6          4.3393  -15.3176  -48.3472 C.3       23 UNK        -0.0398 
      7 S7          5.2353  -16.3197  -49.5834 S.3       23 UNK        -0.2404 
      8 C8          4.5655  -17.9855  -49.2764 C.3       23 UNK        -0.0205 
      9 C9          3.1429  -18.1410  -49.7941 C.ar      23 UNK        -0.0193 
     10 C10         2.9162  -18.4881  -51.1304 C.ar      23 UNK        -0.1150 
     11 C11         1.6133  -18.6663  -51.6050 C.ar      23 UNK        -0.0193 
     12 C12         0.5375  -18.4873  -50.7342 C.ar      23 UNK        -0.1150 
     13 C13         0.7475  -18.1230  -49.4040 C.ar      23 UNK        -0.0193 
     14 C14         2.0533  -17.9591  -48.9364 C.ar      23 UNK        -0.1150 
     15 C15        -0.4417  -17.9273  -48.4792 C.3       23 UNK        -0.0205 
     16 S16        -1.1229  -19.5272  -47.9530 S.3       23 UNK        -0.2404 
     17 C17         0.1721  -20.0985  -46.8049 C.3       23 UNK        -0.0398 
     18 CA          1.1503  -21.1405  -47.4096 C.3       11 UNK         0.1400 
     19 N           2.4414  -21.1707  -46.7121 N.am      11 UNK        -0.5000 
     20 C           2.6374  -21.4716  -45.4188 C.2       10 UNK         0.5000 
     21 O           1.7291  -21.7998  -44.6563 O.2       10 UNK        -0.5000 
     22 CA          4.0773  -21.3638  -44.8692 C.3       10 UNK         0.1400 
     23 CB          5.1233  -20.9465  -45.9231 C.3       10 UNK        -0.1800 
     24 N           4.1090  -20.3936  -43.7771 N.am      10 UNK        -0.5000 
     25 C           3.8534  -20.6406  -42.4862 C.2       9 UNK         0.5000 
     26 O           3.7058  -21.7731  -42.0248 O.2       9 UNK        -0.5000 
     27 CA          3.7157  -19.4217  -41.5461 C.3       9 UNK         0.1400 
     28 CB          5.0628  -19.0524  -40.8952 C.3       9 UNK        -0.1800 
     29 N           3.0620  -18.2573  -42.1664 N.am      9 UNK        -0.5000 
     30 C           3.5289  -17.4471  -43.1273 C.2       8 UNK         0.5000 
     31 O           4.6647  -17.5260  -43.5948 O.2       8 UNK        -0.5000 
     32 CA          2.5426  -16.4479  -43.7552 C.3       8 UNK         0.1400 
     33 CB          2.0105  -17.0420  -45.0670 C.3       8 UNK        -0.1800 
     34 N           1.4053  -16.1009  -42.9015 N.am      8 UNK        -0.5000 
     35 C           1.4653  -15.2413  -41.8748 C.2       7 UNK         0.5000 
     36 O           2.5091  -14.7174  -41.4849 O.2       7 UNK        -0.5000 
     37 CA          0.1405  -14.8988  -41.1717 C.3       7 UNK         0.1400 
     38 CB         -0.6334  -13.8285  -41.9571 C.3       7 UNK        -0.1800 
     39 N          -0.7077  -16.0792  -41.0258 N.am      7 UNK        -0.5000 
     40 C          -0.8917  -16.7501  -39.8810 C.2       6 UNK         0.5000 
     41 O          -0.3991  -16.4177  -38.8022 O.2       6 UNK        -0.5000 
     42 CA         -1.7719  -18.0154  -39.9469 C.3       6 UNK         0.1400 
     43 CB         -3.2207  -17.6810  -39.5603 C.3       6 UNK        -0.1800 
     44 N          -1.7706  -18.6673  -41.2583 N.am      6 UNK        -0.5000 
     45 C          -0.6933  -19.2062  -41.8448 C.2       5 UNK         0.5000 
     46 O           0.4228  -19.2349  -41.3288 O.2       5 UNK        -0.5000 
     47 CA         -0.8807  -19.7661  -43.2653 C.3       5 UNK         0.1400 
     48 CB         -1.2282  -21.2617  -43.1953 C.3       5 UNK        -0.1800 
     49 N          -1.9001  -19.0778  -44.0680 N.am      5 UNK        -0.5000 
     50 C          -1.9464  -17.7670  -44.3458 C.2       4 UNK         0.5000 
     51 O          -1.1340  -16.9410  -43.9156 O.2       4 UNK        -0.5000 
     52 CA         -3.1280  -17.3066  -45.2123 C.3       4 UNK         0.1400 
     53 CB         -4.4632  -17.5113  -44.4669 C.3       4 UNK        -0.1800 
     54 N          -2.9566  -15.8989  -45.5589 N.am      4 UNK        -0.5000 
     55 C          -3.6381  -15.2391  -46.5034 C.2       3 UNK         0.5000 
     56 O          -4.4815  -15.7615  -47.2325 O.2       3 UNK        -0.5000 
     57 CA         -3.3382  -13.7353  -46.6650 C.3       3 UNK         0.1400 
     58 CB         -4.2571  -12.9100  -45.7512 C.3       3 UNK        -0.1800 
     59 N          -1.9462  -13.3582  -46.4059 N.am      3 UNK        -0.5000 
     60 C          -0.8949  -13.7898  -47.1131 C.2       2 UNK         0.5000 
     61 O          -0.9780  -14.6067  -48.0356 O.2       2 UNK        -0.5000 
     62 CA          0.4776  -13.2114  -46.7287 C.3       2 UNK         0.1400 
     63 CB          0.7966  -13.4040  -45.2347 C.3       2 UNK        -0.1800 
     64 N           1.4641  -13.8757  -47.5668 N.am      2 UNK        -0.5000 
     65 C           2.6953  -13.4522  -47.8668 C.2       1 UNK         0.5000 
     66 O           3.2422  -12.4857  -47.3343 O.2       1 UNK        -0.5000 
     67 C           0.5344  -22.5499  -47.5320 C.2       11 UNK         0.5000 
     68 O          -0.5596  -22.8026  -47.0266 O.2       11 UNK        -0.5000 
     69 N           1.2314  -23.4477  -48.2447 N.am      12 UNK        -0.5000 
     70 CA          0.7402  -24.7915  -48.5861 C.3       12 UNK         0.1400 
     71 CB          1.8333  -25.5508  -49.3519 C.3       12 UNK        -0.1800 
     72 C          -0.5763  -24.7737  -49.3948 C.2       12 UNK         0.5000 
     73 O          -1.3822  -25.6967  -49.2830 O.2       12 UNK        -0.5000 
     74 N          -0.7964  -23.6841  -50.1425 N.am      13 UNK        -0.5000 
     75 CA         -2.0276  -23.3679  -50.8611 C.3       13 UNK         0.1400 
     76 CB         -1.7708  -22.1322  -51.7340 C.3       13 UNK        -0.1800 
     77 C          -3.2549  -23.1446  -49.9526 C.2       13 UNK         0.5000 
     78 O          -4.3805  -23.2416  -50.4449 O.2       13 UNK        -0.5000 
     79 N          -3.0573  -22.8612  -48.6543 N.am      14 UNK        -0.5000 
     80 CA         -4.1458  -22.7439  -47.6780 C.3       14 UNK         0.1400 
     81 CB         -3.6438  -22.0758  -46.3897 C.3       14 UNK        -0.1800 
     82 C          -4.8003  -24.1017  -47.3667 C.2       14 UNK         0.5000 
     83 O          -6.0071  -24.1450  -47.1315 O.2       14 UNK        -0.5000 
     84 N          -4.0205  -25.1922  -47.4323 N.am      15 UNK        -0.5000 
     85 CA         -4.5136  -26.5666  -47.2905 C.3       15 UNK         0.1400 
     86 CB         -3.3293  -27.5174  -47.0618 C.3       15 UNK        -0.1800 
     87 C          -5.3531  -27.0186  -48.5023 C.2       15 UNK         0.5000 
     88 O          -6.2439  -27.8543  -48.3494 O.2       15 UNK        -0.5000 
     89 N          -5.0812  -26.4245  -49.6726 N.am      16 UNK        -0.5000 
     90 CA         -5.8639  -26.5744  -50.9011 C.3       16 UNK         0.1400 
     91 CB         -4.9370  -26.3306  -52.1041 C.3       16 UNK        -0.1800 
     92 C          -7.0850  -25.6290  -50.9510 C.2       16 UNK         0.5000 
     93 O          -7.8495  -25.6913  -51.9141 O.2       16 UNK        -0.5000 
     94 N          -7.2343  -24.7628  -49.9352 N.am      17 UNK        -0.5000 
     95 CA         -8.2640  -23.7310  -49.7616 C.3       17 UNK         0.1400 
     96 CB         -9.6729  -24.3556  -49.6862 C.3       17 UNK        -0.1800 
     97 C          -8.1785  -22.5732  -50.7803 C.2       17 UNK         0.5000 
     98 O          -9.1354  -21.8080  -50.9104 O.2       17 UNK        -0.5000 
     99 N          -7.0357  -22.4427  -51.4658 N.am      18 UNK        -0.5000 
    100 CA        -6.7466  -21.3571  -52.4016 C.3       18 UNK         0.1400 
    101 CB        -5.8288  -21.8898  -53.5113 C.3       18 UNK        -0.1800 
    102 C         -6.0984  -20.1604  -51.6843 C.2       18 UNK         0.5000 
    103 O         -6.3805  -19.0135  -52.0340 O.2       18 UNK        -0.5000 
    104 N         -5.2552  -20.4567  -50.6837 N.am      19 UNK        -0.5000 
    105 CA        -4.4822  -19.5180  -49.8676 C.3       19 UNK         0.1400 
    106 CB        -5.4057  -18.7951  -48.8657 C.3       19 UNK        -0.1800 
    107 C         -3.6156  -18.5855  -50.7401 C.2       19 UNK         0.5000 
    108 O         -2.8461  -19.0888  -51.5562 O.2       19 UNK        -0.5000 
    109 N         -3.7576  -17.2628  -50.5797 N.am      20 UNK        -0.5000 
    110 CA        -3.0010  -16.2310  -51.2976 C.3       20 UNK         0.1400 
    111 CB        -3.3704  -14.8588  -50.7165 C.3       20 UNK        -0.1800 
    112 C         -3.1663  -16.2287  -52.8334 C.2       20 UNK         0.5000 
    113 O         -2.3390  -15.6276  -53.5201 O.2       20 UNK        -0.5000 
    114 N         -4.2033  -16.8950  -53.3608 N.am      21 UNK        -0.5000 
    115 CA        -4.3972  -17.1279  -54.7918 C.3       21 UNK         0.1400 
    116 CB        -5.8956  -17.3461  -55.0684 C.3       21 UNK        -0.1800 
    117 C         -3.5245  -18.3104  -55.2617 C.2       21 UNK         0.5000 
    118 O         -4.0457  -19.3925  -55.5360 O.2       21 UNK        -0.5000 
    119 N         -2.2052  -18.0860  -55.3012 N.am      22 UNK        -0.5000 
    120 CA        -1.1668  -19.0631  -55.6685 C.3       22 UNK         0.1400 
    121 C         -1.3712  -19.6943  -57.0754 C.2       22 UNK         0.5000 
    122 N         -1.1357  -20.9912  -57.2227 N.am      22 UNK        -0.7600 
    123 O         -1.6911  -19.0078  -58.0438 O.2       22 UNK        -0.5000 
    124 C124        0.2569  -18.4525  -55.5784 C.3       23 UNK        -0.0398 
    125 S125        0.6202  -17.6683  -53.9730 S.3       23 UNK        -0.2404 
    126 C126        1.3510  -19.0545  -53.0513 C.3       23 UNK        -0.0205 
    127 H127        0.7016  -15.8460  -51.4535 H         1 UNK         0.0600 
    128 H128       -0.2232  -14.3587  -51.6302 H         1 UNK         0.0600 
    129 H129        1.0901  -14.7200  -52.7556 H         1 UNK         0.0600 
    130 H130        2.4148  -15.7983  -49.9932 H         1 UNK         0.3000 
    131 H131        4.0678  -13.5278  -49.5042 H         1 UNK         0.0600 
    132 H132        3.7690  -15.9704  -47.6864 H         1 UNK         0.0800 
    133 H133        5.0892  -14.8421  -47.7123 H         1 UNK         0.0800 
    134 H134        5.2108  -18.7155  -49.7674 H         1 UNK         0.0800 
    135 H135        4.6151  -18.2117  -48.2103 H         1 UNK         0.0800 
    136 H136        3.7556  -18.6252  -51.7977 H         1 UNK         0.1150 
    137 H137       -0.4680  -18.6237  -51.1001 H         1 UNK         0.1150 
    138 H138        2.2187  -17.6997  -47.9026 H         1 UNK         0.1150 
    139 H139       -0.1712  -17.3295  -47.6073 H         1 UNK         0.0800 
    140 H140       -1.2181  -17.3637  -48.9968 H         1 UNK         0.0800 
    141 H141       -0.3125  -20.4939  -45.9160 H         1 UNK         0.0800 
    142 H142        0.7304  -19.2280  -46.4733 H         1 UNK         0.0800 
    143 H143        1.3808  -20.8212  -48.4271 H         1 UNK         0.0600 
    144 H144        3.2473  -20.9251  -47.2685 H         1 UNK         0.3000 
    145 H145        4.3536  -22.3502  -44.4913 H         1 UNK         0.0600 
    146 H146        6.1213  -20.9182  -45.4851 H         1 UNK         0.0600 
    147 H147        5.1620  -21.6569  -46.7500 H         1 UNK         0.0600 
    148 H148        4.9198  -19.9563  -46.3329 H         1 UNK         0.0600 
    149 H149        4.2622  -19.4250  -44.0335 H         1 UNK         0.3000 
    150 H150        3.0466  -19.7303  -40.7416 H         1 UNK         0.0600 
    151 H151        5.4504  -19.8886  -40.3124 H         1 UNK         0.0600 
    152 H152        4.9544  -18.2058  -40.2174 H         1 UNK         0.0600 
    153 H153        5.8217  -18.7975  -41.6350 H         1 UNK         0.0600 
    154 H154        2.0888  -18.1529  -41.9002 H         1 UNK         0.3000 
    155 H155        3.0981  -15.5375  -43.9907 H         1 UNK         0.0600 
    156 H156        1.4210  -16.3251  -45.6355 H         1 UNK         0.0600 
    157 H157        1.3815  -17.9059  -44.8624 H         1 UNK         0.0600 
    158 H158        2.8283  -17.3709  -45.7087 H         1 UNK         0.0600 
    159 H159        0.4999  -16.4609  -43.1906 H         1 UNK         0.3000 
    160 H160        0.3868  -14.4796  -40.1939 H         1 UNK         0.0600 
    161 H161       -0.9649  -14.1991  -42.9273 H         1 UNK         0.0600 
    162 H162       -0.0167  -12.9454  -42.1287 H         1 UNK         0.0600 
    163 H163       -1.5173  -13.5046  -41.4076 H         1 UNK         0.0600 
    164 H164       -1.1256  -16.4424  -41.8736 H         1 UNK         0.3000 
    165 H165       -1.3772  -18.7275  -39.2193 H         1 UNK         0.0600 
    166 H166       -3.6771  -16.9902  -40.2705 H         1 UNK         0.0600 
    167 H167       -3.8367  -18.5796  -39.5211 H         1 UNK         0.0600 
    168 H168       -3.2649  -17.2155  -38.5748 H         1 UNK         0.0600 
    169 H169       -2.6478  -18.6870  -41.7565 H         1 UNK         0.3000 
    170 H170        0.0772  -19.6566  -43.7758 H         1 UNK         0.0600 
    171 H171       -0.4730  -21.8097  -42.6298 H         1 UNK         0.0600 
    172 H172       -2.1901  -21.4305  -42.7101 H         1 UNK         0.0600 
    173 H173       -1.2696  -21.7121  -44.1867 H         1 UNK         0.0600 
    174 H174       -2.6217  -19.6709  -44.4500 H         1 UNK         0.3000 
    175 H175       -3.1229  -17.8980  -46.1301 H         1 UNK         0.0600 
    176 H176       -5.3140  -17.2184  -45.0819 H         1 UNK         0.0600 
    177 H177       -4.6172  -18.5568  -44.1981 H         1 UNK         0.0600 
    178 H178       -4.5010  -16.9254  -43.5475 H         1 UNK         0.0600 
    179 H179       -2.2371  -15.4230  -45.0306 H         1 UNK         0.3000 
    180 H180       -3.5644  -13.4670  -47.6987 H         1 UNK         0.0600 
    181 H181       -4.0557  -13.1042  -44.6969 H         1 UNK         0.0600 
    182 H182       -5.3060  -13.1478  -45.9340 H         1 UNK         0.0600 
    183 H183       -4.1331  -11.8412  -45.9267 H         1 UNK         0.0600 
    184 H184       -1.7957  -12.6888  -45.6655 H         1 UNK         0.3000 
    185 H185        0.4796  -12.1467  -46.9702 H         1 UNK         0.0600 
    186 H186        1.8530  -13.2498  -45.0160 H         1 UNK         0.0600 
    187 H187        0.2391  -12.6899  -44.6290 H         1 UNK         0.0600 
    188 H188        0.5239  -14.4004  -44.8930 H         1 UNK         0.0600 
    189 H189        1.0632  -14.6298  -48.1126 H         1 UNK         0.3000 
    190 H190        2.1340  -23.1880  -48.6157 H         1 UNK         0.3000 
    191 H191        0.5421  -25.3217  -47.6522 H         1 UNK         0.0600 
    192 H192        2.7418  -25.6422  -48.7563 H         1 UNK         0.0600 
    193 H193        1.5059  -26.5615  -49.5996 H         1 UNK         0.0600 
    194 H194        2.0919  -25.0511  -50.2864 H         1 UNK         0.0600 
    195 H195       -0.0720  -22.9828  -50.1732 H         1 UNK         0.3000 
    196 H196       -2.2620  -24.2096  -51.5157 H         1 UNK         0.0600 
    197 H197       -2.6711  -21.8251  -52.2671 H         1 UNK         0.0600 
    198 H198       -1.0041  -22.3294  -52.4832 H         1 UNK         0.0600 
    199 H199       -1.4396  -21.2838  -51.1338 H         1 UNK         0.0600 
    200 H200       -2.1137  -22.7977  -48.2848 H         1 UNK         0.3000 
    201 H201       -4.9177  -22.0998  -48.1041 H         1 UNK         0.0600 
    202 H202       -3.1952  -21.1052  -46.5948 H         1 UNK         0.0600 
    203 H203       -2.9035  -22.6909  -45.8780 H         1 UNK         0.0600 
    204 H204       -4.4663  -21.9111  -45.6927 H         1 UNK         0.0600 
    205 H205       -3.0425  -25.0829  -47.6656 H         1 UNK         0.3000 
    206 H206       -5.1559  -26.6085  -46.4082 H         1 UNK         0.0600 
    207 H207       -2.7336  -27.2090  -46.2026 H         1 UNK         0.0600 
    208 H208       -3.6790  -28.5321  -46.8676 H         1 UNK         0.0600 
    209 H209       -2.6714  -27.5614  -47.9298 H         1 UNK         0.0600 
    210 H210       -4.3261  -25.7548  -49.7022 H         1 UNK         0.3000 
    211 H211       -6.2396  -27.5977  -50.9636 H         1 UNK         0.0600 
    212 H212       -4.5722  -25.3040  -52.1343 H         1 UNK         0.0600 
    213 H213       -5.4588  -26.5176  -53.0434 H         1 UNK         0.0600 
    214 H214       -4.0721  -26.9938  -52.0777 H         1 UNK         0.0600 
    215 H215       -6.5518  -24.8002  -49.1897 H         1 UNK         0.3000 
    216 H216       -8.0620  -23.2772  -48.7906 H         1 UNK         0.0600 
    217 H217       -9.7064  -25.1656  -48.9576 H         1 UNK         0.0600 
    218 H218       -9.9934  -24.7547  -50.6487 H         1 UNK         0.0600 
    219 H219      -10.4130  -23.6157  -49.3794 H         1 UNK         0.0600 
    220 H220       -6.2747  -23.0801  -51.2606 H         1 UNK         0.3000 
    221 H221       -7.6723  -21.0117  -52.8669 H         1 UNK         0.0600 
    222 H222       -4.8803  -22.2525  -53.1149 H         1 UNK         0.0600 
    223 H223       -6.3006  -22.7110  -54.0509 H         1 UNK         0.0600 
    224 H224       -5.6062  -21.1088  -54.2382 H         1 UNK         0.0600 
    225 H225       -5.0577  -21.4388  -50.5253 H         1 UNK         0.3000 
    226 H226       -3.7808  -20.1192  -49.2896 H         1 UNK         0.0600 
    227 H227       -5.9732  -19.5127  -48.2732 H         1 UNK         0.0600 
    228 H228       -4.8258  -18.1960  -48.1641 H         1 UNK         0.0600 
    229 H229       -6.1214  -18.1391  -49.3625 H         1 UNK         0.0600 
    230 H230       -4.4184  -16.9318  -49.8908 H         1 UNK         0.3000 
    231 H231       -1.9421  -16.4076  -51.1002 H         1 UNK         0.0600 
    232 H232       -2.7999  -14.0613  -51.1943 H         1 UNK         0.0600 
    233 H233       -3.1510  -14.8163  -49.6509 H         1 UNK         0.0600 
    234 H234       -4.4292  -14.6357  -50.8525 H         1 UNK         0.0600 
    235 H235       -4.8144  -17.4090  -52.7385 H         1 UNK         0.3000 
    236 H236       -4.0877  -16.2415  -55.3497 H         1 UNK         0.0600 
    237 H237       -6.0774  -17.4776  -56.1356 H         1 UNK         0.0600 
    238 H238       -6.2791  -18.2314  -54.5610 H         1 UNK         0.0600 
    239 H239       -6.4861  -16.4905  -54.7407 H         1 UNK         0.0600 
    240 H240       -1.8693  -17.1820  -54.9918 H         1 UNK         0.3000 
    241 H241       -1.2343  -19.8643  -54.9300 H         1 UNK         0.0600 
    242 H242       -0.8651  -21.5737  -56.4456 H         1 UNK         0.3800 
    243 H243       -1.2486  -21.4075  -58.1342 H         1 UNK         0.3800 
    244 H244        1.0144  -19.2128  -55.7776 H         1 UNK         0.0800 
    245 H245        0.3875  -17.6904  -56.3489 H         1 UNK         0.0800 
    246 H246        0.6707  -19.9072  -53.0757 H         1 UNK         0.0800 
    247 H247        2.2730  -19.3717  -53.5407 H         1 UNK         0.0800 
@<TRIPOS>BOND
     1    1    2 1    
     2    1  127 1    
     3    1  128 1    
     4    1  129 1    
     5    2    3 2    
     6    2    4 am   BACKBONE|DICT|INTERRES
     7    4    5 1    
     8    4  130 1    
     9    5    6 1    
    10    5   65 1    
    11    5  131 1    
    12    6    7 1    
    13    6  132 1    
    14    6  133 1    
    15    7    8 1    
    16    8    9 1    
    17    8  134 1    
    18    8  135 1    
    19    9   10 ar   
    20    9   14 ar   
    21   10   11 ar   
    22   10  136 1    
    23   11   12 ar   
    24   11  126 1    
    25   12   13 ar   
    26   12  137 1    
    27   13   14 ar   
    28   13   15 1    
    29   14  138 1    
    30   15   16 1    
    31   15  139 1    
    32   15  140 1    
    33   16   17 1    
    34   17   18 1    
    35   17  141 1    
    36   17  142 1    
    37   18   19 1    
    38   18   67 1    
    39   18  143 1    
    40   19   20 am   BACKBONE|DICT|INTERRES
    41   19  144 1    
    42   20   21 2    
    43   20   22 1    
    44   22   23 1    
    45   22   24 1    
    46   22  145 1    
    47   23  146 1    
    48   23  147 1    
    49   23  148 1    
    50   24   25 am   BACKBONE|DICT|INTERRES
    51   24  149 1    
    52   25   26 2    
    53   25   27 1    
    54   27   28 1    
    55   27   29 1    
    56   27  150 1    
    57   28  151 1    
    58   28  152 1    
    59   28  153 1    
    60   29   30 am   BACKBONE|DICT|INTERRES
    61   29  154 1    
    62   30   31 2    
    63   30   32 1    
    64   32   33 1    
    65   32   34 1    
    66   32  155 1    
    67   33  156 1    
    68   33  157 1    
    69   33  158 1    
    70   34   35 am   BACKBONE|DICT|INTERRES
    71   34  159 1    
    72   35   36 2    
    73   35   37 1    
    74   37   38 1    
    75   37   39 1    
    76   37  160 1    
    77   38  161 1    
    78   38  162 1    
    79   38  163 1    
    80   39   40 am   BACKBONE|DICT|INTERRES
    81   39  164 1    
    82   40   41 2    
    83   40   42 1    
    84   42   43 1    
    85   42   44 1    
    86   42  165 1    
    87   43  166 1    
    88   43  167 1    
    89   43  168 1    
    90   44   45 am   BACKBONE|DICT|INTERRES
    91   44  169 1    
    92   45   46 2    
    93   45   47 1    
    94   47   48 1    
    95   47   49 1    
    96   47  170 1    
    97   48  171 1    
    98   48  172 1    
    99   48  173 1    
   100   49   50 am   BACKBONE|DICT|INTERRES
   101   49  174 1    
   102   50   51 2    
   103   50   52 1    
   104   52   53 1    
   105   52   54 1    
   106   52  175 1    
   107   53  176 1    
   108   53  177 1    
   109   53  178 1    
   110   54   55 am   BACKBONE|DICT|INTERRES
   111   54  179 1    
   112   55   56 2    
   113   55   57 1    
   114   57   58 1    
   115   57   59 1    
   116   57  180 1    
   117   58  181 1    
   118   58  182 1    
   119   58  183 1    
   120   59   60 am   BACKBONE|DICT|INTERRES
   121   59  184 1    
   122   60   61 2    
   123   60   62 1    
   124   62   63 1    
   125   62   64 1    
   126   62  185 1    
   127   63  186 1    
   128   63  187 1    
   129   63  188 1    
   130   64   65 am   BACKBONE|DICT|INTERRES
   131   64  189 1    
   132   65   66 2    
   133   67   68 2    
   134   67   69 am   BACKBONE|DICT|INTERRES
   135   69   70 1    
   136   69  190 1    
   137   70   71 1    
   138   70   72 1    
   139   70  191 1    
   140   71  192 1    
   141   71  193 1    
   142   71  194 1    
   143   72   73 2    
   144   72   74 am   BACKBONE|DICT|INTERRES
   145   74   75 1    
   146   74  195 1    
   147   75   76 1    
   148   75   77 1    
   149   75  196 1    
   150   76  197 1    
   151   76  198 1    
   152   76  199 1    
   153   77   78 2    
   154   77   79 am   BACKBONE|DICT|INTERRES
   155   79   80 1    
   156   79  200 1    
   157   80   81 1    
   158   80   82 1    
   159   80  201 1    
   160   81  202 1    
   161   81  203 1    
   162   81  204 1    
   163   82   83 2    
   164   82   84 am   BACKBONE|DICT|INTERRES
   165   84   85 1    
   166   84  205 1    
   167   85   86 1    
   168   85   87 1    
   169   85  206 1    
   170   86  207 1    
   171   86  208 1    
   172   86  209 1    
   173   87   88 2    
   174   87   89 am   BACKBONE|DICT|INTERRES
   175   89   90 1    
   176   89  210 1    
   177   90   91 1    
   178   90   92 1    
   179   90  211 1    
   180   91  212 1    
   181   91  213 1    
   182   91  214 1    
   183   92   93 2    
   184   92   94 am   BACKBONE|DICT|INTERRES
   185   94   95 1    
   186   94  215 1    
   187   95   96 1    
   188   95   97 1    
   189   95  216 1    
   190   96  217 1    
   191   96  218 1    
   192   96  219 1    
   193   97   98 2    
   194   97   99 am   BACKBONE|DICT|INTERRES
   195   99  100 1    
   196   99  220 1    
   197  100  101 1    
   198  100  102 1    
   199  100  221 1    
   200  101  222 1    
   201  101  223 1    
   202  101  224 1    
   203  102  103 2    
   204  102  104 am   BACKBONE|DICT|INTERRES
   205  104  105 1    
   206  104  225 1    
   207  105  106 1    
   208  105  107 1    
   209  105  226 1    
   210  106  227 1    
   211  106  228 1    
   212  106  229 1    
   213  107  108 2    
   214  107  109 am   BACKBONE|DICT|INTERRES
   215  109  110 1    
   216  109  230 1    
   217  110  111 1    
   218  110  112 1    
   219  110  231 1    
   220  111  232 1    
   221  111  233 1    
   222  111  234 1    
   223  112  113 2    
   224  112  114 am   BACKBONE|DICT|INTERRES
   225  114  115 1    
   226  114  235 1    
   227  115  116 1    
   228  115  117 1    
   229  115  236 1    
   230  116  237 1    
   231  116  238 1    
   232  116  239 1    
   233  117  118 2    
   234  117  119 am   BACKBONE|DICT|INTERRES
   235  119  120 1    
   236  119  240 1    
   237  120  121 1    
   238  120  124 1    
   239  120  241 1    
   240  121  122 am   BACKBONE|DICT|INTERRES
   241  121  123 2    
   242  122  242 1    
   243  122  243 1    
   244  124  125 1    
   245  124  244 1    
   246  124  245 1    
   247  125  126 1    
   248  126  246 1    
   249  126  247 1    
@<TRIPOS>SUBSTRUCTURE
     1 UNK         1 GROUP             0       ****    0 ROOT    
