@<TRIPOS>MOLECULE
3R540
247   249    1
SMALL
USER_CHARGES


@<TRIPOS>ATOM
      1 CA         -4.6966  -18.3416  -48.5885 C.3       0 UNK        -0.1800 
      2 C          -3.7449  -17.1527  -48.5638 C.2       0 UNK         0.5000 
      3 O          -3.3486  -16.7207  -47.4827 O.2       0 UNK        -0.5000 
      4 N          -3.3742  -16.6475  -49.7500 N.am      1 UNK        -0.5000 
      5 CA         -2.5021  -15.4960  -50.0174 C.3       1 UNK         0.1400 
      6 C6         -0.9830  -15.8505  -50.0431 C.3       23 UNK        -0.0398 
      7 S7         -0.1654  -16.1619  -48.4341 S.3       23 UNK        -0.2404 
      8 C8         -0.2432  -17.9736  -48.2961 C.3       23 UNK        -0.0205 
      9 C9          0.8305  -18.6801  -49.1071 C.ar      23 UNK        -0.0193 
     10 C10         0.5623  -19.1192  -50.4057 C.ar      23 UNK        -0.1150 
     11 C11         1.5435  -19.7712  -51.1559 C.ar      23 UNK        -0.0193 
     12 C12         2.7956  -20.0137  -50.5828 C.ar      23 UNK        -0.1150 
     13 C13         3.0725  -19.5944  -49.2772 C.ar      23 UNK        -0.0193 
     14 C14         2.0885  -18.9180  -48.5492 C.ar      23 UNK        -0.1150 
     15 C15         4.4443  -19.8493  -48.6692 C.3       23 UNK        -0.0205 
     16 S16         4.5756  -21.5108  -47.9330 S.3       23 UNK        -0.2404 
     17 C17         3.6977  -21.2798  -46.3496 C.3       23 UNK        -0.0398 
     18 CA          2.8856  -22.5129  -45.8869 C.3       11 UNK         0.1400 
     19 N           2.4577  -22.3651  -44.4934 N.am      11 UNK        -0.5000 
     20 C           1.9655  -23.3484  -43.7273 C.2       10 UNK         0.5000 
     21 O           1.8892  -24.5234  -44.0853 O.2       10 UNK        -0.5000 
     22 CA          1.4528  -22.9493  -42.3304 C.3       10 UNK         0.1400 
     23 CB          2.6041  -22.9408  -41.3137 C.3       10 UNK        -0.1800 
     24 N           0.7817  -21.6478  -42.3191 N.am      10 UNK        -0.5000 
     25 C          -0.3743  -21.3810  -42.9427 C.2       9 UNK         0.5000 
     26 O          -1.0266  -22.2262  -43.5543 O.2       9 UNK        -0.5000 
     27 CA         -0.8569  -19.9166  -42.9273 C.3       9 UNK         0.1400 
     28 CB         -1.5785  -19.5842  -41.6134 C.3       9 UNK        -0.1800 
     29 N           0.2288  -18.9596  -43.1504 N.am      9 UNK        -0.5000 
     30 C           0.9588  -18.8979  -44.2734 C.2       8 UNK         0.5000 
     31 O           0.7724  -19.6200  -45.2509 O.2       8 UNK        -0.5000 
     32 CA          2.1373  -17.9120  -44.2794 C.3       8 UNK         0.1400 
     33 CB          1.6639  -16.4837  -44.5951 C.3       8 UNK        -0.1800 
     34 N           2.8619  -17.9423  -43.0080 N.am      8 UNK        -0.5000 
     35 C           3.6167  -18.9759  -42.6038 C.2       7 UNK         0.5000 
     36 O           3.8120  -19.9820  -43.2846 O.2       7 UNK        -0.5000 
     37 CA          4.2159  -18.8958  -41.1871 C.3       7 UNK         0.1400 
     38 CB          5.5278  -18.0974  -41.1997 C.3       7 UNK        -0.1800 
     39 N           3.2966  -18.3003  -40.2175 N.am      7 UNK        -0.5000 
     40 C           2.1233  -18.8347  -39.8485 C.2       6 UNK         0.5000 
     41 O           1.7226  -19.9304  -40.2361 O.2       6 UNK        -0.5000 
     42 CA          1.2209  -17.9761  -38.9406 C.3       6 UNK         0.1400 
     43 CB          1.4716  -18.3090  -37.4627 C.3       6 UNK        -0.1800 
     44 N           1.3955  -16.5357  -39.1507 N.am      6 UNK        -0.5000 
     45 C           1.1616  -15.9000  -40.3060 C.2       5 UNK         0.5000 
     46 O           0.7290  -16.4558  -41.3207 O.2       5 UNK        -0.5000 
     47 CA          1.5503  -14.4180  -40.3474 C.3       5 UNK         0.1400 
     48 CB          3.0835  -14.2589  -40.3666 C.3       5 UNK        -0.1800 
     49 N           0.9800  -13.8047  -41.5402 N.am      5 UNK        -0.5000 
     50 C           0.7580  -12.4971  -41.7055 C.2       4 UNK         0.5000 
     51 O           1.0110  -11.6508  -40.8466 O.2       4 UNK        -0.5000 
     52 CA          0.1696  -12.0412  -43.0545 C.3       4 UNK         0.1400 
     53 CB          1.2639  -11.4114  -43.9309 C.3       4 UNK        -0.1800 
     54 N          -0.4923  -13.0938  -43.8280 N.am      4 UNK        -0.5000 
     55 C          -1.6629  -13.6661  -43.5132 C.2       3 UNK         0.5000 
     56 O          -2.2460  -13.4837  -42.4431 O.2       3 UNK        -0.5000 
     57 CA         -2.2948  -14.5480  -44.6149 C.3       3 UNK         0.1400 
     58 CB         -3.7750  -14.8835  -44.3400 C.3       3 UNK        -0.1800 
     59 N          -2.1375  -13.9701  -45.9585 N.am      3 UNK        -0.5000 
     60 C          -2.5285  -12.7513  -46.3731 C.2       2 UNK         0.5000 
     61 O          -3.1413  -11.9458  -45.6716 O.2       2 UNK        -0.5000 
     62 CA         -2.1421  -12.3424  -47.8084 C.3       2 UNK         0.1400 
     63 CB         -0.8635  -11.4894  -47.7888 C.3       2 UNK        -0.1800 
     64 N          -1.9268  -13.4920  -48.6863 N.am      2 UNK        -0.5000 
     65 C          -2.9072  -14.2288  -49.2230 C.2       1 UNK         0.5000 
     66 O          -4.1008  -13.9302  -49.1312 O.2       1 UNK        -0.5000 
     67 C           1.6900  -22.8273  -46.8152 C.2       11 UNK         0.5000 
     68 O           1.8014  -23.7118  -47.6658 O.2       11 UNK        -0.5000 
     69 N           0.5595  -22.1352  -46.6065 N.am      12 UNK        -0.5000 
     70 CA         -0.7041  -22.3766  -47.3028 C.3       12 UNK         0.1400 
     71 CB         -1.7028  -21.2586  -46.9653 C.3       12 UNK        -0.1800 
     72 C          -1.3065  -23.7539  -46.9719 C.2       12 UNK         0.5000 
     73 O          -1.7232  -24.4640  -47.8871 O.2       12 UNK        -0.5000 
     74 N          -1.3393  -24.1022  -45.6766 N.am      13 UNK        -0.5000 
     75 CA         -1.8757  -25.3366  -45.0964 C.3       13 UNK         0.1400 
     76 CB         -0.9962  -26.5471  -45.4811 C.3       13 UNK        -0.1800 
     77 C          -3.3708  -25.5154  -45.4334 C.2       13 UNK         0.5000 
     78 O          -4.2100  -24.8544  -44.8208 O.2       13 UNK        -0.5000 
     79 N          -3.6763  -26.3707  -46.4192 N.am      14 UNK        -0.5000 
     80 CA         -5.0151  -26.5708  -46.9844 C.3       14 UNK         0.1400 
     81 CB         -5.0175  -27.8846  -47.7821 C.3       14 UNK        -0.1800 
     82 C          -5.4928  -25.4003  -47.8733 C.2       14 UNK         0.5000 
     83 O          -6.6707  -25.3580  -48.2305 O.2       14 UNK        -0.5000 
     84 N          -4.5742  -24.4865  -48.2148 N.am      15 UNK        -0.5000 
     85 CA         -4.7117  -23.3135  -49.0721 C.3       15 UNK         0.1400 
     86 CB         -5.8003  -22.3343  -48.5830 C.3       15 UNK        -0.1800 
     87 C          -4.8479  -23.7056  -50.5486 C.2       15 UNK         0.5000 
     88 O          -3.8432  -23.6829  -51.2612 O.2       15 UNK        -0.5000 
     89 N          -6.0707  -24.0462  -50.9805 N.am      16 UNK        -0.5000 
     90 CA         -6.4521  -24.4184  -52.3471 C.3       16 UNK         0.1400 
     91 CB         -5.9362  -25.8373  -52.6750 C.3       16 UNK        -0.1800 
     92 C          -6.0184  -23.3439  -53.3669 C.2       16 UNK         0.5000 
     93 O          -6.6370  -22.2800  -53.4202 O.2       16 UNK        -0.5000 
     94 N          -4.9308  -23.6080  -54.1051 N.am      17 UNK        -0.5000 
     95 CA         -4.2928  -22.6883  -55.0485 C.3       17 UNK         0.1400 
     96 CB         -3.1298  -23.4071  -55.7473 C.3       17 UNK        -0.1800 
     97 C          -3.7999  -21.3735  -54.4147 C.2       17 UNK         0.5000 
     98 O          -3.7297  -20.3669  -55.1175 O.2       17 UNK        -0.5000 
     99 N          -3.5081  -21.3673  -53.1040 N.am      18 UNK        -0.5000 
    100 CA        -3.1281  -20.1699  -52.3442 C.3       18 UNK         0.1400 
    101 CB        -2.8086  -20.5543  -50.8934 C.3       18 UNK        -0.1800 
    102 C         -4.2002  -19.0627  -52.3621 C.2       18 UNK         0.5000 
    103 O         -3.8503  -17.8850  -52.2883 O.2       18 UNK        -0.5000 
    104 N         -5.4794  -19.4463  -52.4859 N.am      19 UNK        -0.5000 
    105 CA        -6.6071  -18.5225  -52.6354 C.3       19 UNK         0.1400 
    106 CB        -7.9103  -19.2672  -52.3096 C.3       19 UNK        -0.1800 
    107 C         -6.6795  -17.8812  -54.0381 C.2       19 UNK         0.5000 
    108 O         -7.3549  -16.8653  -54.2024 O.2       19 UNK        -0.5000 
    109 N         -5.9703  -18.4664  -55.0118 N.am      20 UNK        -0.5000 
    110 CA        -5.8225  -17.9921  -56.3860 C.3       20 UNK         0.1400 
    111 CB        -6.1966  -19.1386  -57.3431 C.3       20 UNK        -0.1800 
    112 C         -4.3877  -17.4762  -56.6228 C.2       20 UNK         0.5000 
    113 O         -3.8457  -17.6428  -57.7172 O.2       20 UNK        -0.5000 
    114 N         -3.7846  -16.8817  -55.5800 N.am      21 UNK        -0.5000 
    115 CA        -2.4462  -16.2767  -55.5518 C.3       21 UNK         0.1400 
    116 CB        -2.4202  -14.9911  -56.4046 C.3       21 UNK        -0.1800 
    117 C         -1.3131  -17.2621  -55.9139 C.2       21 UNK         0.5000 
    118 O         -0.3411  -16.8775  -56.5663 O.2       21 UNK        -0.5000 
    119 N         -1.4758  -18.5187  -55.4821 N.am      22 UNK        -0.5000 
    120 CA        -0.5910  -19.6690  -55.7366 C.3       22 UNK         0.1400 
    121 C         -0.7179  -20.2628  -57.1726 C.2       22 UNK         0.5000 
    122 N         -1.6740  -19.8412  -57.9932 N.am      22 UNK        -0.7600 
    123 O          0.0472  -21.1485  -57.5441 O.2       22 UNK        -0.5000 
    124 C124        0.8935  -19.4589  -55.3134 C.3       23 UNK        -0.0398 
    125 S125        1.1088  -18.7189  -53.6571 S.3       23 UNK        -0.2404 
    126 C126        1.2491  -20.1856  -52.5901 C.3       23 UNK        -0.0205 
    127 H127       -4.1733  -19.2474  -48.2821 H         1 UNK         0.0600 
    128 H128       -5.1187  -18.5054  -49.5794 H         1 UNK         0.0600 
    129 H129       -5.5222  -18.1750  -47.8968 H         1 UNK         0.0600 
    130 H130       -3.7395  -17.0750  -50.5965 H         1 UNK         0.3000 
    131 H131       -2.7482  -15.2334  -51.0475 H         1 UNK         0.0600 
    132 H132       -0.4339  -15.0432  -50.5301 H         1 UNK         0.0800 
    133 H133       -0.8303  -16.7089  -50.6948 H         1 UNK         0.0800 
    134 H134       -1.2267  -18.3298  -48.5959 H         1 UNK         0.0800 
    135 H135       -0.1376  -18.2330  -47.2435 H         1 UNK         0.0800 
    136 H136       -0.4023  -18.9334  -50.8515 H         1 UNK         0.1150 
    137 H137        3.5601  -20.5211  -51.1543 H         1 UNK         0.1150 
    138 H138        2.2957  -18.5740  -47.5464 H         1 UNK         0.1150 
    139 H139        5.2065  -19.7501  -49.4434 H         1 UNK         0.0800 
    140 H140        4.6792  -19.0935  -47.9180 H         1 UNK         0.0800 
    141 H141        3.0555  -20.4028  -46.3963 H         1 UNK         0.0800 
    142 H142        4.4616  -21.0476  -45.6069 H         1 UNK         0.0800 
    143 H143        3.5537  -23.3763  -45.9202 H         1 UNK         0.0600 
    144 H144        2.5435  -21.4380  -44.0929 H         1 UNK         0.3000 
    145 H145        0.7277  -23.7029  -42.0163 H         1 UNK         0.0600 
    146 H146        2.2386  -22.7384  -40.3068 H         1 UNK         0.0600 
    147 H147        3.3499  -22.1836  -41.5570 H         1 UNK         0.0600 
    148 H148        3.1109  -23.9063  -41.2881 H         1 UNK         0.0600 
    149 H149        1.2214  -20.9149  -41.7685 H         1 UNK         0.3000 
    150 H150       -1.5721  -19.7963  -43.7438 H         1 UNK         0.0600 
    151 H151       -2.4443  -20.2324  -41.4724 H         1 UNK         0.0600 
    152 H152       -1.9372  -18.5547  -41.6083 H         1 UNK         0.0600 
    153 H153       -0.9280  -19.7177  -40.7498 H         1 UNK         0.0600 
    154 H154        0.4414  -18.3152  -42.3980 H         1 UNK         0.3000 
    155 H155        2.8270  -18.2171  -45.0691 H         1 UNK         0.0600 
    156 H156        1.2138  -16.4389  -45.5875 H         1 UNK         0.0600 
    157 H157        2.4955  -15.7791  -44.5842 H         1 UNK         0.0600 
    158 H158        0.9154  -16.1326  -43.8859 H         1 UNK         0.0600 
    159 H159        2.6865  -17.1823  -42.3669 H         1 UNK         0.3000 
    160 H160        4.4373  -19.9143  -40.8613 H         1 UNK         0.0600 
    161 H161        5.3663  -17.0587  -41.4908 H         1 UNK         0.0600 
    162 H162        6.2401  -18.5292  -41.9042 H         1 UNK         0.0600 
    163 H163        6.0011  -18.1014  -40.2177 H         1 UNK         0.0600 
    164 H164        3.5527  -17.4006  -39.8399 H         1 UNK         0.3000 
    165 H165        0.1842  -18.2235  -39.1762 H         1 UNK         0.0600 
    166 H166        0.7830  -17.7675  -36.8137 H         1 UNK         0.0600 
    167 H167        1.3258  -19.3733  -37.2725 H         1 UNK         0.0600 
    168 H168        2.4886  -18.0574  -37.1593 H         1 UNK         0.0600 
    169 H169        1.7532  -16.0096  -38.3661 H         1 UNK         0.3000 
    170 H170        1.1379  -13.9350  -39.4590 H         1 UNK         0.0600 
    171 H171        3.5251  -14.7355  -41.2428 H         1 UNK         0.0600 
    172 H172        3.3733  -13.2081  -40.3795 H         1 UNK         0.0600 
    173 H173        3.5416  -14.7037  -39.4827 H         1 UNK         0.0600 
    174 H174        0.6885  -14.4580  -42.2550 H         1 UNK         0.3000 
    175 H175       -0.5737  -11.2715  -42.8360 H         1 UNK         0.0600 
    176 H176        2.0274  -12.1404  -44.2054 H         1 UNK         0.0600 
    177 H177        0.8459  -10.9988  -44.8495 H         1 UNK         0.0600 
    178 H178        1.7632  -10.5943  -43.4085 H         1 UNK         0.0600 
    179 H179       -0.0898  -13.3037  -44.7292 H         1 UNK         0.3000 
    180 H180       -1.7384  -15.4865  -44.6150 H         1 UNK         0.0600 
    181 H181       -4.1862  -15.5191  -45.1242 H         1 UNK         0.0600 
    182 H182       -4.3898  -13.9850  -44.2811 H         1 UNK         0.0600 
    183 H183       -3.8861  -15.4204  -43.3973 H         1 UNK         0.0600 
    184 H184       -1.6884  -14.5708  -46.6362 H         1 UNK         0.3000 
    185 H185       -2.9534  -11.7331  -48.2126 H         1 UNK         0.0600 
    186 H186       -0.0104  -12.0487  -47.4024 H         1 UNK         0.0600 
    187 H187       -0.6092  -11.1370  -48.7886 H         1 UNK         0.0600 
    188 H188       -0.9907  -10.6087  -47.1577 H         1 UNK         0.0600 
    189 H189       -0.9725  -13.8069  -48.7934 H         1 UNK         0.3000 
    190 H190        0.5689  -21.3763  -45.9302 H         1 UNK         0.3000 
    191 H191       -0.5061  -22.3426  -48.3764 H         1 UNK         0.0600 
    192 H192       -1.3003  -20.2838  -47.2265 H         1 UNK         0.0600 
    193 H193       -1.9484  -21.2390  -45.9036 H         1 UNK         0.0600 
    194 H194       -2.6358  -21.3805  -47.5144 H         1 UNK         0.0600 
    195 H195       -1.0457  -23.4074  -44.9931 H         1 UNK         0.3000 
    196 H196       -1.8151  -25.2181  -44.0135 H         1 UNK         0.0600 
    197 H197        0.0209  -26.4162  -45.1114 H         1 UNK         0.0600 
    198 H198       -0.9330  -26.6946  -46.5594 H         1 UNK         0.0600 
    199 H199       -1.3816  -27.4675  -45.0407 H         1 UNK         0.0600 
    200 H200       -2.9169  -26.8467  -46.8850 H         1 UNK         0.3000 
    201 H201       -5.7268  -26.6670  -46.1620 H         1 UNK         0.0600 
    202 H202       -4.7410  -28.7300  -47.1517 H         1 UNK         0.0600 
    203 H203       -4.3206  -27.8471  -48.6204 H         1 UNK         0.0600 
    204 H204       -6.0079  -28.0950  -48.1882 H         1 UNK         0.0600 
    205 H205       -3.6170  -24.6665  -47.9231 H         1 UNK         0.3000 
    206 H206       -3.7583  -22.7934  -48.9876 H         1 UNK         0.0600 
    207 H207       -6.7961  -22.7766  -48.5789 H         1 UNK         0.0600 
    208 H208       -5.5868  -21.9919  -47.5704 H         1 UNK         0.0600 
    209 H209       -5.8431  -21.4502  -49.2203 H         1 UNK         0.0600 
    210 H210       -6.8176  -24.0575  -50.2985 H         1 UNK         0.3000 
    211 H211       -7.5423  -24.4469  -52.3745 H         1 UNK         0.0600 
    212 H212       -4.8517  -25.9165  -52.5919 H         1 UNK         0.0600 
    213 H213       -6.2170  -26.1342  -53.6864 H         1 UNK         0.0600 
    214 H214       -6.3683  -26.5710  -51.9943 H         1 UNK         0.0600 
    215 H215       -4.4607  -24.4882  -53.9513 H         1 UNK         0.3000 
    216 H216       -5.0357  -22.4233  -55.8035 H         1 UNK         0.0600 
    217 H217       -2.6535  -22.7568  -56.4827 H         1 UNK         0.0600 
    218 H218       -3.4751  -24.2949  -56.2775 H         1 UNK         0.0600 
    219 H219       -2.3625  -23.7160  -55.0362 H         1 UNK         0.0600 
    220 H220       -3.5875  -22.2357  -52.5819 H         1 UNK         0.3000 
    221 H221       -2.2227  -19.7611  -52.7971 H         1 UNK         0.0600 
    222 H222       -2.0280  -21.3138  -50.8407 H         1 UNK         0.0600 
    223 H223       -2.4671  -19.6909  -50.3233 H         1 UNK         0.0600 
    224 H224       -3.6921  -20.9351  -50.3859 H         1 UNK         0.0600 
    225 H225       -5.6931  -20.4322  -52.5810 H         1 UNK         0.3000 
    226 H226       -6.4897  -17.7139  -51.9107 H         1 UNK         0.0600 
    227 H227       -7.8738  -19.7126  -51.3152 H         1 UNK         0.0600 
    228 H228       -8.7632  -18.5878  -52.3306 H         1 UNK         0.0600 
    229 H229       -8.1094  -20.0631  -53.0278 H         1 UNK         0.0600 
    230 H230       -5.3964  -19.2692  -54.7796 H         1 UNK         0.3000 
    231 H231       -6.4973  -17.1557  -56.5772 H         1 UNK         0.0600 
    232 H232       -6.1672  -18.8093  -58.3823 H         1 UNK         0.0600 
    233 H233       -7.2061  -19.5007  -57.1475 H         1 UNK         0.0600 
    234 H234       -5.5132  -19.9831  -57.2450 H         1 UNK         0.0600 
    235 H235       -4.2969  -16.8381  -54.7099 H         1 UNK         0.3000 
    236 H236       -2.2676  -15.9868  -54.5152 H         1 UNK         0.0600 
    237 H237       -2.5428  -15.2080  -57.4662 H         1 UNK         0.0600 
    238 H238       -3.2139  -14.3053  -56.1084 H         1 UNK         0.0600 
    239 H239       -1.4747  -14.4605  -56.2859 H         1 UNK         0.0600 
    240 H240       -2.3589  -18.7604  -55.0507 H         1 UNK         0.3000 
    241 H241       -0.9777  -20.4565  -55.0902 H         1 UNK         0.0600 
    242 H242       -2.3217  -19.1135  -57.7150 H         1 UNK         0.3800 
    243 H243       -1.7463  -20.2438  -58.9137 H         1 UNK         0.3800 
    244 H244        1.3985  -18.8099  -56.0301 H         1 UNK         0.0800 
    245 H245        1.4341  -20.4062  -55.3451 H         1 UNK         0.0800 
    246 H246        0.3190  -20.7549  -52.6246 H         1 UNK         0.0800 
    247 H247        2.0350  -20.8402  -52.9698 H         1 UNK         0.0800 
@<TRIPOS>BOND
     1    1    2 1    
     2    1  127 1    
     3    1  128 1    
     4    1  129 1    
     5    2    3 2    
     6    2    4 am   BACKBONE|DICT|INTERRES
     7    4    5 1    
     8    4  130 1    
     9    5    6 1    
    10    5   65 1    
    11    5  131 1    
    12    6    7 1    
    13    6  132 1    
    14    6  133 1    
    15    7    8 1    
    16    8    9 1    
    17    8  134 1    
    18    8  135 1    
    19    9   10 ar   
    20    9   14 ar   
    21   10   11 ar   
    22   10  136 1    
    23   11   12 ar   
    24   11  126 1    
    25   12   13 ar   
    26   12  137 1    
    27   13   14 ar   
    28   13   15 1    
    29   14  138 1    
    30   15   16 1    
    31   15  139 1    
    32   15  140 1    
    33   16   17 1    
    34   17   18 1    
    35   17  141 1    
    36   17  142 1    
    37   18   19 1    
    38   18   67 1    
    39   18  143 1    
    40   19   20 am   BACKBONE|DICT|INTERRES
    41   19  144 1    
    42   20   21 2    
    43   20   22 1    
    44   22   23 1    
    45   22   24 1    
    46   22  145 1    
    47   23  146 1    
    48   23  147 1    
    49   23  148 1    
    50   24   25 am   BACKBONE|DICT|INTERRES
    51   24  149 1    
    52   25   26 2    
    53   25   27 1    
    54   27   28 1    
    55   27   29 1    
    56   27  150 1    
    57   28  151 1    
    58   28  152 1    
    59   28  153 1    
    60   29   30 am   BACKBONE|DICT|INTERRES
    61   29  154 1    
    62   30   31 2    
    63   30   32 1    
    64   32   33 1    
    65   32   34 1    
    66   32  155 1    
    67   33  156 1    
    68   33  157 1    
    69   33  158 1    
    70   34   35 am   BACKBONE|DICT|INTERRES
    71   34  159 1    
    72   35   36 2    
    73   35   37 1    
    74   37   38 1    
    75   37   39 1    
    76   37  160 1    
    77   38  161 1    
    78   38  162 1    
    79   38  163 1    
    80   39   40 am   BACKBONE|DICT|INTERRES
    81   39  164 1    
    82   40   41 2    
    83   40   42 1    
    84   42   43 1    
    85   42   44 1    
    86   42  165 1    
    87   43  166 1    
    88   43  167 1    
    89   43  168 1    
    90   44   45 am   BACKBONE|DICT|INTERRES
    91   44  169 1    
    92   45   46 2    
    93   45   47 1    
    94   47   48 1    
    95   47   49 1    
    96   47  170 1    
    97   48  171 1    
    98   48  172 1    
    99   48  173 1    
   100   49   50 am   BACKBONE|DICT|INTERRES
   101   49  174 1    
   102   50   51 2    
   103   50   52 1    
   104   52   53 1    
   105   52   54 1    
   106   52  175 1    
   107   53  176 1    
   108   53  177 1    
   109   53  178 1    
   110   54   55 am   BACKBONE|DICT|INTERRES
   111   54  179 1    
   112   55   56 2    
   113   55   57 1    
   114   57   58 1    
   115   57   59 1    
   116   57  180 1    
   117   58  181 1    
   118   58  182 1    
   119   58  183 1    
   120   59   60 am   BACKBONE|DICT|INTERRES
   121   59  184 1    
   122   60   61 2    
   123   60   62 1    
   124   62   63 1    
   125   62   64 1    
   126   62  185 1    
   127   63  186 1    
   128   63  187 1    
   129   63  188 1    
   130   64   65 am   BACKBONE|DICT|INTERRES
   131   64  189 1    
   132   65   66 2    
   133   67   68 2    
   134   67   69 am   BACKBONE|DICT|INTERRES
   135   69   70 1    
   136   69  190 1    
   137   70   71 1    
   138   70   72 1    
   139   70  191 1    
   140   71  192 1    
   141   71  193 1    
   142   71  194 1    
   143   72   73 2    
   144   72   74 am   BACKBONE|DICT|INTERRES
   145   74   75 1    
   146   74  195 1    
   147   75   76 1    
   148   75   77 1    
   149   75  196 1    
   150   76  197 1    
   151   76  198 1    
   152   76  199 1    
   153   77   78 2    
   154   77   79 am   BACKBONE|DICT|INTERRES
   155   79   80 1    
   156   79  200 1    
   157   80   81 1    
   158   80   82 1    
   159   80  201 1    
   160   81  202 1    
   161   81  203 1    
   162   81  204 1    
   163   82   83 2    
   164   82   84 am   BACKBONE|DICT|INTERRES
   165   84   85 1    
   166   84  205 1    
   167   85   86 1    
   168   85   87 1    
   169   85  206 1    
   170   86  207 1    
   171   86  208 1    
   172   86  209 1    
   173   87   88 2    
   174   87   89 am   BACKBONE|DICT|INTERRES
   175   89   90 1    
   176   89  210 1    
   177   90   91 1    
   178   90   92 1    
   179   90  211 1    
   180   91  212 1    
   181   91  213 1    
   182   91  214 1    
   183   92   93 2    
   184   92   94 am   BACKBONE|DICT|INTERRES
   185   94   95 1    
   186   94  215 1    
   187   95   96 1    
   188   95   97 1    
   189   95  216 1    
   190   96  217 1    
   191   96  218 1    
   192   96  219 1    
   193   97   98 2    
   194   97   99 am   BACKBONE|DICT|INTERRES
   195   99  100 1    
   196   99  220 1    
   197  100  101 1    
   198  100  102 1    
   199  100  221 1    
   200  101  222 1    
   201  101  223 1    
   202  101  224 1    
   203  102  103 2    
   204  102  104 am   BACKBONE|DICT|INTERRES
   205  104  105 1    
   206  104  225 1    
   207  105  106 1    
   208  105  107 1    
   209  105  226 1    
   210  106  227 1    
   211  106  228 1    
   212  106  229 1    
   213  107  108 2    
   214  107  109 am   BACKBONE|DICT|INTERRES
   215  109  110 1    
   216  109  230 1    
   217  110  111 1    
   218  110  112 1    
   219  110  231 1    
   220  111  232 1    
   221  111  233 1    
   222  111  234 1    
   223  112  113 2    
   224  112  114 am   BACKBONE|DICT|INTERRES
   225  114  115 1    
   226  114  235 1    
   227  115  116 1    
   228  115  117 1    
   229  115  236 1    
   230  116  237 1    
   231  116  238 1    
   232  116  239 1    
   233  117  118 2    
   234  117  119 am   BACKBONE|DICT|INTERRES
   235  119  120 1    
   236  119  240 1    
   237  120  121 1    
   238  120  124 1    
   239  120  241 1    
   240  121  122 am   BACKBONE|DICT|INTERRES
   241  121  123 2    
   242  122  242 1    
   243  122  243 1    
   244  124  125 1    
   245  124  244 1    
   246  124  245 1    
   247  125  126 1    
   248  126  246 1    
   249  126  247 1    
@<TRIPOS>SUBSTRUCTURE
     1 UNK         1 GROUP             0       ****    0 ROOT    
