@<TRIPOS>MOLECULE
3R540
247   249    1
SMALL
USER_CHARGES


@<TRIPOS>ATOM
      1 CA          3.8262   -7.5801  -47.3818 C.3       0 UNK        -0.1800 
      2 C           4.8052   -8.7440  -47.3253 C.2       0 UNK         0.5000 
      3 O           5.7914   -8.6814  -46.5916 O.2       0 UNK        -0.5000 
      4 N           4.5320   -9.8104  -48.0882 N.am      1 UNK        -0.5000 
      5 CA          5.3370  -11.0394  -48.1481 C.3       1 UNK         0.1400 
      6 C6          5.0491  -11.8598  -49.4316 C.3       23 UNK        -0.0398 
      7 S7          3.2819  -12.2311  -49.7318 S.3       23 UNK        -0.2404 
      8 C8          3.1458  -13.9471  -49.1393 C.3       23 UNK        -0.0205 
      9 C9          1.9480  -14.6437  -49.7663 C.ar      23 UNK        -0.0193 
     10 C10         2.1214  -15.4399  -50.9015 C.ar      23 UNK        -0.1150 
     11 C11         1.0282  -16.0703  -51.5009 C.ar      23 UNK        -0.0193 
     12 C12        -0.2480  -15.8912  -50.9610 C.ar      23 UNK        -0.1150 
     13 C13        -0.4342  -15.1278  -49.8025 C.ar      23 UNK        -0.0193 
     14 C14         0.6701  -14.4980  -49.2172 C.ar      23 UNK        -0.1150 
     15 C15        -1.8157  -14.9805  -49.1654 C.3       23 UNK        -0.0205 
     16 S16        -2.8167  -16.5129  -49.1617 S.3       23 UNK        -0.2404 
     17 C17        -1.7186  -17.6771  -48.2892 C.3       23 UNK        -0.0398 
     18 CA         -1.9665  -19.1532  -48.6711 C.3       11 UNK         0.1400 
     19 N          -0.7470  -19.9437  -48.5082 N.am      11 UNK        -0.5000 
     20 C          -0.5741  -21.2014  -48.9338 C.2       10 UNK         0.5000 
     21 O          -1.4244  -21.8429  -49.5460 O.2       10 UNK        -0.5000 
     22 CA          0.7614  -21.8672  -48.5588 C.3       10 UNK         0.1400 
     23 CB          1.8288  -21.5636  -49.6206 C.3       10 UNK        -0.1800 
     24 N           1.2474  -21.4392  -47.2453 N.am      10 UNK        -0.5000 
     25 C           0.6147  -21.6461  -46.0835 C.2       9 UNK         0.5000 
     26 O          -0.4411  -22.2720  -45.9871 O.2       9 UNK        -0.5000 
     27 CA          1.2243  -20.9972  -44.8300 C.3       9 UNK         0.1400 
     28 CB          2.4589  -21.7693  -44.3302 C.3       9 UNK        -0.1800 
     29 N           1.5013  -19.5646  -44.9843 N.am      9 UNK        -0.5000 
     30 C           2.4222  -18.9408  -45.7340 C.2       8 UNK         0.5000 
     31 O           3.1965  -19.5160  -46.4994 O.2       8 UNK        -0.5000 
     32 CA          2.4770  -17.4054  -45.6076 C.3       8 UNK         0.1400 
     33 CB          1.5363  -16.7534  -46.6308 C.3       8 UNK        -0.1800 
     34 N           2.1252  -16.9422  -44.2629 N.am      8 UNK        -0.5000 
     35 C           2.8780  -17.1466  -43.1707 C.2       7 UNK         0.5000 
     36 O           4.0053  -17.6410  -43.1977 O.2       7 UNK        -0.5000 
     37 CA          2.2478  -16.7754  -41.8164 C.3       7 UNK         0.1400 
     38 CB          2.4795  -15.2955  -41.4748 C.3       7 UNK        -0.1800 
     39 N           0.8151  -17.0725  -41.7873 N.am      7 UNK        -0.5000 
     40 C           0.3035  -18.3078  -41.6784 C.2       6 UNK         0.5000 
     41 O           0.9852  -19.3196  -41.5179 O.2       6 UNK        -0.5000 
     42 CA         -1.2260  -18.4418  -41.7942 C.3       6 UNK         0.1400 
     43 CB         -1.8824  -18.3616  -40.4082 C.3       6 UNK        -0.1800 
     44 N          -1.8182  -17.4261  -42.6652 N.am      6 UNK        -0.5000 
     45 C          -1.6881  -17.3962  -43.9982 C.2       5 UNK         0.5000 
     46 O          -1.0865  -18.2509  -44.6496 O.2       5 UNK        -0.5000 
     47 CA         -2.3066  -16.1859  -44.7192 C.3       5 UNK         0.1400 
     48 CB         -3.7632  -16.4750  -45.1107 C.3       5 UNK        -0.1800 
     49 N          -2.2363  -14.9496  -43.9374 N.am      5 UNK        -0.5000 
     50 C          -1.0899  -14.3228  -43.6471 C.2       4 UNK         0.5000 
     51 O           0.0240  -14.7533  -43.9621 O.2       4 UNK        -0.5000 
     52 CA         -1.1979  -13.0144  -42.8585 C.3       4 UNK         0.1400 
     53 CB         -1.0052  -13.2591  -41.3517 C.3       4 UNK        -0.1800 
     54 N          -0.1748  -12.1125  -43.3683 N.am      4 UNK        -0.5000 
     55 C          -0.1713  -10.7793  -43.2655 C.2       3 UNK         0.5000 
     56 O          -1.0260  -10.1481  -42.6416 O.2       3 UNK        -0.5000 
     57 CA          0.9342  -10.0129  -44.0268 C.3       3 UNK         0.1400 
     58 CB          1.5354   -8.8595  -43.1962 C.3       3 UNK        -0.1800 
     59 N           1.9843  -10.8672  -44.6030 N.am      3 UNK        -0.5000 
     60 C           2.9329  -11.5582  -43.9477 C.2       2 UNK         0.5000 
     61 O           3.0570  -11.5767  -42.7239 O.2       2 UNK        -0.5000 
     62 CA          3.9058  -12.3708  -44.8140 C.3       2 UNK         0.1400 
     63 CB          3.3383  -13.7746  -45.0793 C.3       2 UNK        -0.1800 
     64 N           4.1765  -11.6827  -46.0749 N.am      2 UNK        -0.5000 
     65 C           5.2189  -11.9159  -46.8805 C.2       1 UNK         0.5000 
     66 O           6.0711  -12.7781  -46.6621 O.2       1 UNK        -0.5000 
     67 C          -3.1416  -19.7596  -47.8748 C.2       11 UNK         0.5000 
     68 O          -4.2286  -19.9317  -48.4264 O.2       11 UNK        -0.5000 
     69 N          -2.8884  -20.1197  -46.6062 N.am      12 UNK        -0.5000 
     70 CA         -3.8506  -20.8014  -45.7387 C.3       12 UNK         0.1400 
     71 CB         -3.3237  -20.8464  -44.2970 C.3       12 UNK        -0.1800 
     72 C          -4.2005  -22.2124  -46.2405 C.2       12 UNK         0.5000 
     73 O          -5.3742  -22.5814  -46.2295 O.2       12 UNK        -0.5000 
     74 N          -3.1913  -22.9577  -46.7136 N.am      13 UNK        -0.5000 
     75 CA         -3.3637  -24.2735  -47.3303 C.3       13 UNK         0.1400 
     76 CB         -1.9938  -24.9167  -47.5838 C.3       13 UNK        -0.1800 
     77 C          -4.1956  -24.2143  -48.6241 C.2       13 UNK         0.5000 
     78 O          -5.0620  -25.0648  -48.8213 O.2       13 UNK        -0.5000 
     79 N          -3.9575  -23.1937  -49.4585 N.am      14 UNK        -0.5000 
     80 CA         -4.7340  -22.9150  -50.6653 C.3       14 UNK         0.1400 
     81 CB         -4.0394  -21.8285  -51.4948 C.3       14 UNK        -0.1800 
     82 C          -6.1908  -22.5302  -50.3591 C.2       14 UNK         0.5000 
     83 O          -7.0977  -23.0383  -51.0179 O.2       14 UNK        -0.5000 
     84 N          -6.3978  -21.6851  -49.3386 N.am      15 UNK        -0.5000 
     85 CA         -7.7192  -21.2873  -48.8435 C.3       15 UNK         0.1400 
     86 CB         -7.5628  -20.1697  -47.8013 C.3       15 UNK        -0.1800 
     87 C          -8.5266  -22.4675  -48.2665 C.2       15 UNK         0.5000 
     88 O          -9.7401  -22.5311  -48.4656 O.2       15 UNK        -0.5000 
     89 N          -7.8324  -23.3990  -47.5995 N.am      16 UNK        -0.5000 
     90 CA         -8.3806  -24.6562  -47.0866 C.3       16 UNK         0.1400 
     91 CB         -7.4348  -25.1934  -45.9998 C.3       16 UNK        -0.1800 
     92 C          -8.6027  -25.7274  -48.1764 C.2       16 UNK         0.5000 
     93 O          -9.2198  -26.7526  -47.8847 O.2       16 UNK        -0.5000 
     94 N          -8.0802  -25.4914  -49.3903 N.am      17 UNK        -0.5000 
     95 CA         -8.0419  -26.3965  -50.5455 C.3       17 UNK         0.1400 
     96 CB         -9.4628  -26.6982  -51.0651 C.3       17 UNK        -0.1800 
     97 C          -7.2036  -27.6696  -50.2912 C.2       17 UNK         0.5000 
     98 O          -7.4704  -28.7181  -50.8812 O.2       17 UNK        -0.5000 
     99 N          -6.1920  -27.5474  -49.4236 N.am      18 UNK        -0.5000 
    100 CA        -5.2264  -28.5905  -49.0821 C.3       18 UNK         0.1400 
    101 CB        -4.8228  -28.4121  -47.6095 C.3       18 UNK        -0.1800 
    102 C         -3.9811  -28.5445  -49.9890 C.2       18 UNK         0.5000 
    103 O         -3.2161  -29.5095  -50.0137 O.2       18 UNK        -0.5000 
    104 N         -3.7956  -27.4341  -50.7107 N.am      19 UNK        -0.5000 
    105 CA        -2.7118  -27.1892  -51.6542 C.3       19 UNK         0.1400 
    106 CB        -1.5687  -26.4566  -50.9287 C.3       19 UNK        -0.1800 
    107 C         -3.2450  -26.3510  -52.8255 C.2       19 UNK         0.5000 
    108 O         -4.3643  -25.8352  -52.7584 O.2       19 UNK        -0.5000 
    109 N         -2.4244  -26.2145  -53.8724 N.am      20 UNK        -0.5000 
    110 CA        -2.6503  -25.2826  -54.9766 C.3       20 UNK         0.1400 
    111 CB        -1.8019  -25.7232  -56.1797 C.3       20 UNK        -0.1800 
    112 C         -2.2864  -23.8456  -54.5574 C.2       20 UNK         0.5000 
    113 O         -1.4285  -23.6574  -53.6908 O.2       20 UNK        -0.5000 
    114 N         -2.9274  -22.8586  -55.1942 N.am      21 UNK        -0.5000 
    115 CA        -2.6665  -21.4357  -54.9800 C.3       21 UNK         0.1400 
    116 CB        -3.7824  -20.6115  -55.6399 C.3       21 UNK        -0.1800 
    117 C         -1.2854  -21.0192  -55.5162 C.2       21 UNK         0.5000 
    118 O         -0.9345  -21.3739  -56.6441 O.2       21 UNK        -0.5000 
    119 N         -0.5451  -20.2587  -54.7035 N.am      22 UNK        -0.5000 
    120 CA         0.7738  -19.6974  -55.0363 C.3       22 UNK         0.1400 
    121 C          0.7350  -18.4021  -55.9011 C.2       22 UNK         0.5000 
    122 N         -0.4236  -17.8145  -56.1758 N.am      22 UNK        -0.7600 
    123 O          1.7775  -17.9263  -56.3422 O.2       22 UNK        -0.5000 
    124 C124        1.6668  -19.5373  -53.7753 C.3       23 UNK        -0.0398 
    125 S125        0.8739  -18.6950  -52.3582 S.3       23 UNK        -0.2404 
    126 C126        1.2256  -16.9465  -52.7280 C.3       23 UNK        -0.0205 
    127 H127        4.3404   -6.6722  -47.6971 H         1 UNK         0.0600 
    128 H128        3.0111   -7.7692  -48.0808 H         1 UNK         0.0600 
    129 H129        3.3951   -7.4047  -46.3961 H         1 UNK         0.0600 
    130 H130        3.7118   -9.8066  -48.6795 H         1 UNK         0.3000 
    131 H131        6.3847  -10.7346  -48.1985 H         1 UNK         0.0600 
    132 H132        5.6356  -12.7801  -49.4468 H         1 UNK         0.0800 
    133 H133        5.4011  -11.2904  -50.2928 H         1 UNK         0.0800 
    134 H134        4.0567  -14.4993  -49.3747 H         1 UNK         0.0800 
    135 H135        3.0561  -13.9506  -48.0528 H         1 UNK         0.0800 
    136 H136        3.1098  -15.5644  -51.3211 H         1 UNK         0.1150 
    137 H137       -1.0920  -16.3777  -51.4290 H         1 UNK         0.1150 
    138 H138        0.5387  -13.8925  -48.3313 H         1 UNK         0.1150 
    139 H139       -1.7217  -14.6349  -48.1346 H         1 UNK         0.0800 
    140 H140       -2.3642  -14.2058  -49.7022 H         1 UNK         0.0800 
    141 H141       -1.8069  -17.5282  -47.2167 H         1 UNK         0.0800 
    142 H142       -0.6912  -17.4146  -48.5379 H         1 UNK         0.0800 
    143 H143       -2.2254  -19.1992  -49.7316 H         1 UNK         0.0600 
    144 H144        0.0112  -19.5125  -48.0027 H         1 UNK         0.3000 
    145 H145        0.6022  -22.9466  -48.5260 H         1 UNK         0.0600 
    146 H146        2.7595  -22.0888  -49.4057 H         1 UNK         0.0600 
    147 H147        1.4967  -21.8808  -50.6102 H         1 UNK         0.0600 
    148 H148        2.0504  -20.4968  -49.6763 H         1 UNK         0.0600 
    149 H149        2.0994  -20.8848  -47.2191 H         1 UNK         0.3000 
    150 H150        0.4660  -21.0601  -44.0476 H         1 UNK         0.0600 
    151 H151        2.2066  -22.8095  -44.1211 H         1 UNK         0.0600 
    152 H152        2.8430  -21.3355  -43.4067 H         1 UNK         0.0600 
    153 H153        3.2674  -21.7718  -45.0614 H         1 UNK         0.0600 
    154 H154        0.8506  -18.9660  -44.4890 H         1 UNK         0.3000 
    155 H155        3.4981  -17.0864  -45.8263 H         1 UNK         0.0600 
    156 H156        1.6147  -15.6683  -46.6068 H         1 UNK         0.0600 
    157 H157        0.4965  -17.0108  -46.4377 H         1 UNK         0.0600 
    158 H158        1.7758  -17.0726  -47.6461 H         1 UNK         0.0600 
    159 H159        1.2424  -16.4550  -44.1608 H         1 UNK         0.3000 
    160 H160        2.7417  -17.3747  -41.0483 H         1 UNK         0.0600 
    161 H161        1.9678  -14.6301  -42.1688 H         1 UNK         0.0600 
    162 H162        3.5413  -15.0482  -41.5078 H         1 UNK         0.0600 
    163 H163        2.1245  -15.0650  -40.4704 H         1 UNK         0.0600 
    164 H164        0.1880  -16.2994  -41.9508 H         1 UNK         0.3000 
    165 H165       -1.4392  -19.4260  -42.2167 H         1 UNK         0.0600 
    166 H166       -1.7178  -17.3907  -39.9392 H         1 UNK         0.0600 
    167 H167       -2.9581  -18.5267  -40.4718 H         1 UNK         0.0600 
    168 H168       -1.4770  -19.1224  -39.7398 H         1 UNK         0.0600 
    169 H169       -2.3385  -16.6871  -42.2159 H         1 UNK         0.3000 
    170 H170       -1.7318  -16.0155  -45.6301 H         1 UNK         0.0600 
    171 H171       -3.8390  -17.3913  -45.6977 H         1 UNK         0.0600 
    172 H172       -4.4006  -16.5954  -44.2340 H         1 UNK         0.0600 
    173 H173       -4.1744  -15.6689  -45.7186 H         1 UNK         0.0600 
    174 H174       -3.1140  -14.5441  -43.6450 H         1 UNK         0.3000 
    175 H175       -2.1824  -12.5761  -43.0352 H         1 UNK         0.0600 
    176 H176       -1.1252  -12.3367  -40.7835 H         1 UNK         0.0600 
    177 H177       -1.7397  -13.9702  -40.9719 H         1 UNK         0.0600 
    178 H178       -0.0149  -13.6571  -41.1310 H         1 UNK         0.0600 
    179 H179        0.5486  -12.5711  -43.9061 H         1 UNK         0.3000 
    180 H180        0.4310   -9.5586  -44.8816 H         1 UNK         0.0600 
    181 H181        1.9790   -9.2145  -42.2660 H         1 UNK         0.0600 
    182 H182        0.7698   -8.1298  -42.9303 H         1 UNK         0.0600 
    183 H183        2.3056   -8.3291  -43.7563 H         1 UNK         0.0600 
    184 H184        1.9184  -10.9887  -45.6027 H         1 UNK         0.3000 
    185 H185        4.8417  -12.4645  -44.2590 H         1 UNK         0.0600 
    186 H186        4.0225  -14.3858  -45.6675 H         1 UNK         0.0600 
    187 H187        3.1664  -14.3001  -44.1425 H         1 UNK         0.0600 
    188 H188        2.3863  -13.7258  -45.6078 H         1 UNK         0.0600 
    189 H189        3.5818  -10.8997  -46.2997 H         1 UNK         0.3000 
    190 H190       -1.9714  -19.9521  -46.2162 H         1 UNK         0.3000 
    191 H191       -4.7736  -20.2178  -45.7386 H         1 UNK         0.0600 
    192 H192       -3.2776  -19.8468  -43.8686 H         1 UNK         0.0600 
    193 H193       -3.9812  -21.4361  -43.6570 H         1 UNK         0.0600 
    194 H194       -2.3278  -21.2864  -44.2403 H         1 UNK         0.0600 
    195 H195       -2.2413  -22.6059  -46.6354 H         1 UNK         0.3000 
    196 H196       -3.9036  -24.9024  -46.6195 H         1 UNK         0.0600 
    197 H197       -2.1077  -25.9289  -47.9732 H         1 UNK         0.0600 
    198 H198       -1.4137  -24.9859  -46.6635 H         1 UNK         0.0600 
    199 H199       -1.4085  -24.3481  -48.3062 H         1 UNK         0.0600 
    200 H200       -3.1775  -22.5707  -49.2686 H         1 UNK         0.3000 
    201 H201       -4.7565  -23.8269  -51.2607 H         1 UNK         0.0600 
    202 H202       -3.0330  -22.1415  -51.7722 H         1 UNK         0.0600 
    203 H203       -3.9587  -20.8885  -50.9490 H         1 UNK         0.0600 
    204 H204       -4.5901  -21.6314  -52.4152 H         1 UNK         0.0600 
    205 H205       -5.5936  -21.2676  -48.8785 H         1 UNK         0.3000 
    206 H206       -8.2815  -20.8853  -49.6887 H         1 UNK         0.0600 
    207 H207       -7.0470  -19.3066  -48.2227 H         1 UNK         0.0600 
    208 H208       -8.5359  -19.8271  -47.4474 H         1 UNK         0.0600 
    209 H209       -6.9972  -20.5052  -46.9321 H         1 UNK         0.0600 
    210 H210       -6.8492  -23.2269  -47.4121 H         1 UNK         0.3000 
    211 H211       -9.3492  -24.4517  -46.6261 H         1 UNK         0.0600 
    212 H212       -6.4483  -25.4225  -46.4042 H         1 UNK         0.0600 
    213 H213       -7.8267  -26.1080  -45.5532 H         1 UNK         0.0600 
    214 H214       -7.3063  -24.4690  -45.1953 H         1 UNK         0.0600 
    215 H215       -7.5917  -24.6147  -49.5229 H         1 UNK         0.3000 
    216 H216       -7.5173  -25.8510  -51.3312 H         1 UNK         0.0600 
    217 H217      -10.0233  -25.7787  -51.2339 H         1 UNK         0.0600 
    218 H218      -10.0294  -27.3146  -50.3669 H         1 UNK         0.0600 
    219 H219       -9.4256  -27.2329  -52.0149 H         1 UNK         0.0600 
    220 H220       -6.0005  -26.6248  -49.0378 H         1 UNK         0.3000 
    221 H221       -5.6887  -29.5730  -49.1962 H         1 UNK         0.0600 
    222 H222       -4.3341  -27.4522  -47.4391 H         1 UNK         0.0600 
    223 H223       -5.6922  -28.4654  -46.9539 H         1 UNK         0.0600 
    224 H224       -4.1300  -29.1940  -47.2958 H         1 UNK         0.0600 
    225 H225       -4.4981  -26.7062  -50.6772 H         1 UNK         0.3000 
    226 H226       -2.3465  -28.1366  -52.0559 H         1 UNK         0.0600 
    227 H227       -1.2096  -27.0307  -50.0746 H         1 UNK         0.0600 
    228 H228       -0.7172  -26.2970  -51.5909 H         1 UNK         0.0600 
    229 H229       -1.8883  -25.4780  -50.5681 H         1 UNK         0.0600 
    230 H230       -1.5088  -26.6377  -53.8319 H         1 UNK         0.3000 
    231 H231       -3.7044  -25.3133  -55.2614 H         1 UNK         0.0600 
    232 H232       -1.9620  -25.0641  -57.0340 H         1 UNK         0.0600 
    233 H233       -2.0613  -26.7335  -56.4967 H         1 UNK         0.0600 
    234 H234       -0.7359  -25.7063  -55.9489 H         1 UNK         0.0600 
    235 H235       -3.5864  -23.0887  -55.9236 H         1 UNK         0.3000 
    236 H236       -2.6921  -21.2402  -53.9079 H         1 UNK         0.0600 
    237 H237       -3.6310  -19.5444  -55.4734 H         1 UNK         0.0600 
    238 H238       -3.8197  -20.7738  -56.7180 H         1 UNK         0.0600 
    239 H239       -4.7585  -20.8677  -55.2272 H         1 UNK         0.0600 
    240 H240       -0.8982  -20.0107  -53.7902 H         1 UNK         0.3000 
    241 H241        1.2812  -20.4270  -55.6707 H         1 UNK         0.0600 
    242 H242       -1.2881  -18.1928  -55.8255 H         1 UNK         0.3800 
    243 H243       -0.4342  -16.9821  -56.7441 H         1 UNK         0.3800 
    244 H244        1.9476  -20.5314  -53.4247 H         1 UNK         0.0800 
    245 H245        2.6123  -19.0479  -54.0154 H         1 UNK         0.0800 
    246 H246        2.2450  -16.8491  -53.1046 H         1 UNK         0.0800 
    247 H247        0.5652  -16.6021  -53.5246 H         1 UNK         0.0800 
@<TRIPOS>BOND
     1    1    2 1    
     2    1  127 1    
     3    1  128 1    
     4    1  129 1    
     5    2    3 2    
     6    2    4 am   BACKBONE|DICT|INTERRES
     7    4    5 1    
     8    4  130 1    
     9    5    6 1    
    10    5   65 1    
    11    5  131 1    
    12    6    7 1    
    13    6  132 1    
    14    6  133 1    
    15    7    8 1    
    16    8    9 1    
    17    8  134 1    
    18    8  135 1    
    19    9   10 ar   
    20    9   14 ar   
    21   10   11 ar   
    22   10  136 1    
    23   11   12 ar   
    24   11  126 1    
    25   12   13 ar   
    26   12  137 1    
    27   13   14 ar   
    28   13   15 1    
    29   14  138 1    
    30   15   16 1    
    31   15  139 1    
    32   15  140 1    
    33   16   17 1    
    34   17   18 1    
    35   17  141 1    
    36   17  142 1    
    37   18   19 1    
    38   18   67 1    
    39   18  143 1    
    40   19   20 am   BACKBONE|DICT|INTERRES
    41   19  144 1    
    42   20   21 2    
    43   20   22 1    
    44   22   23 1    
    45   22   24 1    
    46   22  145 1    
    47   23  146 1    
    48   23  147 1    
    49   23  148 1    
    50   24   25 am   BACKBONE|DICT|INTERRES
    51   24  149 1    
    52   25   26 2    
    53   25   27 1    
    54   27   28 1    
    55   27   29 1    
    56   27  150 1    
    57   28  151 1    
    58   28  152 1    
    59   28  153 1    
    60   29   30 am   BACKBONE|DICT|INTERRES
    61   29  154 1    
    62   30   31 2    
    63   30   32 1    
    64   32   33 1    
    65   32   34 1    
    66   32  155 1    
    67   33  156 1    
    68   33  157 1    
    69   33  158 1    
    70   34   35 am   BACKBONE|DICT|INTERRES
    71   34  159 1    
    72   35   36 2    
    73   35   37 1    
    74   37   38 1    
    75   37   39 1    
    76   37  160 1    
    77   38  161 1    
    78   38  162 1    
    79   38  163 1    
    80   39   40 am   BACKBONE|DICT|INTERRES
    81   39  164 1    
    82   40   41 2    
    83   40   42 1    
    84   42   43 1    
    85   42   44 1    
    86   42  165 1    
    87   43  166 1    
    88   43  167 1    
    89   43  168 1    
    90   44   45 am   BACKBONE|DICT|INTERRES
    91   44  169 1    
    92   45   46 2    
    93   45   47 1    
    94   47   48 1    
    95   47   49 1    
    96   47  170 1    
    97   48  171 1    
    98   48  172 1    
    99   48  173 1    
   100   49   50 am   BACKBONE|DICT|INTERRES
   101   49  174 1    
   102   50   51 2    
   103   50   52 1    
   104   52   53 1    
   105   52   54 1    
   106   52  175 1    
   107   53  176 1    
   108   53  177 1    
   109   53  178 1    
   110   54   55 am   BACKBONE|DICT|INTERRES
   111   54  179 1    
   112   55   56 2    
   113   55   57 1    
   114   57   58 1    
   115   57   59 1    
   116   57  180 1    
   117   58  181 1    
   118   58  182 1    
   119   58  183 1    
   120   59   60 am   BACKBONE|DICT|INTERRES
   121   59  184 1    
   122   60   61 2    
   123   60   62 1    
   124   62   63 1    
   125   62   64 1    
   126   62  185 1    
   127   63  186 1    
   128   63  187 1    
   129   63  188 1    
   130   64   65 am   BACKBONE|DICT|INTERRES
   131   64  189 1    
   132   65   66 2    
   133   67   68 2    
   134   67   69 am   BACKBONE|DICT|INTERRES
   135   69   70 1    
   136   69  190 1    
   137   70   71 1    
   138   70   72 1    
   139   70  191 1    
   140   71  192 1    
   141   71  193 1    
   142   71  194 1    
   143   72   73 2    
   144   72   74 am   BACKBONE|DICT|INTERRES
   145   74   75 1    
   146   74  195 1    
   147   75   76 1    
   148   75   77 1    
   149   75  196 1    
   150   76  197 1    
   151   76  198 1    
   152   76  199 1    
   153   77   78 2    
   154   77   79 am   BACKBONE|DICT|INTERRES
   155   79   80 1    
   156   79  200 1    
   157   80   81 1    
   158   80   82 1    
   159   80  201 1    
   160   81  202 1    
   161   81  203 1    
   162   81  204 1    
   163   82   83 2    
   164   82   84 am   BACKBONE|DICT|INTERRES
   165   84   85 1    
   166   84  205 1    
   167   85   86 1    
   168   85   87 1    
   169   85  206 1    
   170   86  207 1    
   171   86  208 1    
   172   86  209 1    
   173   87   88 2    
   174   87   89 am   BACKBONE|DICT|INTERRES
   175   89   90 1    
   176   89  210 1    
   177   90   91 1    
   178   90   92 1    
   179   90  211 1    
   180   91  212 1    
   181   91  213 1    
   182   91  214 1    
   183   92   93 2    
   184   92   94 am   BACKBONE|DICT|INTERRES
   185   94   95 1    
   186   94  215 1    
   187   95   96 1    
   188   95   97 1    
   189   95  216 1    
   190   96  217 1    
   191   96  218 1    
   192   96  219 1    
   193   97   98 2    
   194   97   99 am   BACKBONE|DICT|INTERRES
   195   99  100 1    
   196   99  220 1    
   197  100  101 1    
   198  100  102 1    
   199  100  221 1    
   200  101  222 1    
   201  101  223 1    
   202  101  224 1    
   203  102  103 2    
   204  102  104 am   BACKBONE|DICT|INTERRES
   205  104  105 1    
   206  104  225 1    
   207  105  106 1    
   208  105  107 1    
   209  105  226 1    
   210  106  227 1    
   211  106  228 1    
   212  106  229 1    
   213  107  108 2    
   214  107  109 am   BACKBONE|DICT|INTERRES
   215  109  110 1    
   216  109  230 1    
   217  110  111 1    
   218  110  112 1    
   219  110  231 1    
   220  111  232 1    
   221  111  233 1    
   222  111  234 1    
   223  112  113 2    
   224  112  114 am   BACKBONE|DICT|INTERRES
   225  114  115 1    
   226  114  235 1    
   227  115  116 1    
   228  115  117 1    
   229  115  236 1    
   230  116  237 1    
   231  116  238 1    
   232  116  239 1    
   233  117  118 2    
   234  117  119 am   BACKBONE|DICT|INTERRES
   235  119  120 1    
   236  119  240 1    
   237  120  121 1    
   238  120  124 1    
   239  120  241 1    
   240  121  122 am   BACKBONE|DICT|INTERRES
   241  121  123 2    
   242  122  242 1    
   243  122  243 1    
   244  124  125 1    
   245  124  244 1    
   246  124  245 1    
   247  125  126 1    
   248  126  246 1    
   249  126  247 1    
@<TRIPOS>SUBSTRUCTURE
     1 UNK         1 GROUP             0       ****    0 ROOT    
