@<TRIPOS>MOLECULE
3R540
247   249    1
SMALL
USER_CHARGES


@<TRIPOS>ATOM
      1 CA         -3.3494  -16.3131  -46.5802 C.3       0 UNK        -0.1800 
      2 C          -2.9815  -14.8363  -46.6209 C.2       0 UNK         0.5000 
      3 O          -2.9863  -14.1735  -45.5853 O.2       0 UNK        -0.5000 
      4 N          -2.6527  -14.3226  -47.8122 N.am      1 UNK        -0.5000 
      5 CA         -2.2589  -12.9290  -48.0722 C.3       1 UNK         0.1400 
      6 C6         -2.6509  -12.4570  -49.5049 C.3       23 UNK        -0.0398 
      7 S7         -2.4104  -13.6876  -50.8354 S.3       23 UNK        -0.2404 
      8 C8         -0.6627  -13.4536  -51.2884 C.3       23 UNK        -0.0205 
      9 C9         -0.0124  -14.7998  -51.5611 C.ar      23 UNK        -0.0193 
     10 C10         0.3703  -15.1681  -52.8545 C.ar      23 UNK        -0.1150 
     11 C11         0.9276  -16.4289  -53.0954 C.ar      23 UNK        -0.0193 
     12 C12         1.0891  -17.3265  -52.0340 C.ar      23 UNK        -0.1150 
     13 C13         0.7112  -16.9651  -50.7380 C.ar      23 UNK        -0.0193 
     14 C14         0.1810  -15.6948  -50.5067 C.ar      23 UNK        -0.1150 
     15 C15         0.8583  -17.9343  -49.5778 C.3       23 UNK        -0.0205 
     16 S16        -0.7644  -18.5954  -49.0762 S.3       23 UNK        -0.2404 
     17 C17        -0.4551  -19.0420  -47.3356 C.3       23 UNK        -0.0398 
     18 CA         -0.6288  -20.5494  -47.0305 C.3       11 UNK         0.1400 
     19 N           0.0617  -20.9133  -45.7927 N.am      11 UNK        -0.5000 
     20 C           0.3190  -22.1591  -45.3766 C.2       10 UNK         0.5000 
     21 O           0.0569  -23.1676  -46.0301 O.2       10 UNK        -0.5000 
     22 CA          0.9584  -22.3013  -43.9808 C.3       10 UNK         0.1400 
     23 CB          2.4884  -22.1956  -44.0665 C.3       10 UNK        -0.1800 
     24 N           0.4548  -21.3169  -43.0192 N.am      10 UNK        -0.5000 
     25 C          -0.8102  -21.2749  -42.5764 C.2       9 UNK         0.5000 
     26 O          -1.6744  -22.0883  -42.9031 O.2       9 UNK        -0.5000 
     27 CA         -1.1880  -20.0990  -41.6563 C.3       9 UNK         0.1400 
     28 CB         -0.7019  -20.3462  -40.2206 C.3       9 UNK        -0.1800 
     29 N          -0.6732  -18.8167  -42.1396 N.am      9 UNK        -0.5000 
     30 C          -1.0217  -18.2519  -43.3043 C.2       8 UNK         0.5000 
     31 O          -1.8530  -18.7318  -44.0725 O.2       8 UNK        -0.5000 
     32 CA         -0.2729  -16.9736  -43.7175 C.3       8 UNK         0.1400 
     33 CB         -0.8709  -15.7356  -43.0364 C.3       8 UNK        -0.1800 
     34 N           1.1621  -17.0485  -43.4445 N.am      8 UNK        -0.5000 
     35 C           1.9968  -17.9384  -43.9994 C.2       7 UNK         0.5000 
     36 O           1.6481  -18.7761  -44.8267 O.2       7 UNK        -0.5000 
     37 CA          3.4529  -17.9297  -43.5125 C.3       7 UNK         0.1400 
     38 CB          4.2575  -16.8170  -44.1993 C.3       7 UNK        -0.1800 
     39 N           3.5309  -17.7874  -42.0604 N.am      7 UNK        -0.5000 
     40 C           3.1342  -18.7290  -41.1919 C.2       6 UNK         0.5000 
     41 O           2.7109  -19.8364  -41.5262 O.2       6 UNK        -0.5000 
     42 CA          3.1776  -18.3462  -39.7018 C.3       6 UNK         0.1400 
     43 CB          4.5878  -18.5509  -39.1288 C.3       6 UNK        -0.1800 
     44 N           2.7535  -16.9637  -39.4700 N.am      6 UNK        -0.5000 
     45 C           1.5040  -16.5173  -39.6614 C.2       5 UNK         0.5000 
     46 O           0.5709  -17.2332  -40.0233 O.2       5 UNK        -0.5000 
     47 CA          1.2693  -15.0094  -39.4564 C.3       5 UNK         0.1400 
     48 CB          1.0112  -14.6992  -37.9745 C.3       5 UNK        -0.1800 
     49 N           2.3721  -14.1755  -39.9449 N.am      5 UNK        -0.5000 
     50 C           2.7557  -14.1007  -41.2258 C.2       4 UNK         0.5000 
     51 O           2.2606  -14.7772  -42.1289 O.2       4 UNK        -0.5000 
     52 CA          3.9182  -13.1505  -41.5463 C.3       4 UNK         0.1400 
     53 CB          5.2420  -13.9258  -41.6311 C.3       4 UNK        -0.1800 
     54 N           3.6762  -12.4673  -42.8162 N.am      4 UNK        -0.5000 
     55 C           2.9775  -11.3313  -42.9344 C.2       3 UNK         0.5000 
     56 O           2.5066  -10.7154  -41.9769 O.2       3 UNK        -0.5000 
     57 CA          2.7817  -10.7766  -44.3576 C.3       3 UNK         0.1400 
     58 CB          3.9868   -9.9165  -44.7696 C.3       3 UNK        -0.1800 
     59 N           2.5584  -11.8089  -45.3733 N.am      3 UNK        -0.5000 
     60 C           1.4277  -12.5171  -45.4907 C.2       2 UNK         0.5000 
     61 O           0.4888  -12.4446  -44.6947 O.2       2 UNK        -0.5000 
     62 CA          1.3340  -13.4564  -46.7122 C.3       2 UNK         0.1400 
     63 CB          1.9011  -14.8421  -46.3766 C.3       2 UNK        -0.1800 
     64 N          -0.0428  -13.6088  -47.1881 N.am      2 UNK        -0.5000 
     65 C          -0.7785  -12.6277  -47.7309 C.2       1 UNK         0.5000 
     66 O          -0.3252  -11.5066  -47.9691 O.2       1 UNK        -0.5000 
     67 C          -2.1176  -20.9578  -46.9986 C.2       11 UNK         0.5000 
     68 O          -2.6319  -21.4290  -48.0090 O.2       11 UNK        -0.5000 
     69 N          -2.7817  -20.7767  -45.8477 N.am      12 UNK        -0.5000 
     70 CA         -4.1848  -21.1336  -45.6280 C.3       12 UNK         0.1400 
     71 CB         -4.6904  -20.4320  -44.3588 C.3       12 UNK        -0.1800 
     72 C          -4.4235  -22.6533  -45.5363 C.2       12 UNK         0.5000 
     73 O          -5.4939  -23.1228  -45.9291 O.2       12 UNK        -0.5000 
     74 N          -3.4327  -23.3946  -45.0242 N.am      13 UNK        -0.5000 
     75 CA         -3.4388  -24.8543  -44.9204 C.3       13 UNK         0.1400 
     76 CB         -2.2111  -25.2971  -44.1085 C.3       13 UNK        -0.1800 
     77 C          -3.4641  -25.5581  -46.2931 C.2       13 UNK         0.5000 
     78 O          -3.1172  -24.9544  -47.3103 O.2       13 UNK        -0.5000 
     79 N          -3.8671  -26.8375  -46.2868 N.am      14 UNK        -0.5000 
     80 CA         -3.9501  -27.7362  -47.4464 C.3       14 UNK         0.1400 
     81 CB         -2.5384  -28.0766  -47.9703 C.3       14 UNK        -0.1800 
     82 C          -4.8866  -27.1997  -48.5494 C.2       14 UNK         0.5000 
     83 O          -4.5080  -27.1639  -49.7213 O.2       14 UNK        -0.5000 
     84 N          -6.0864  -26.7625  -48.1357 N.am      15 UNK        -0.5000 
     85 CA         -7.1357  -26.1578  -48.9664 C.3       15 UNK         0.1400 
     86 CB         -7.7346  -27.2007  -49.9342 C.3       15 UNK        -0.1800 
     87 C          -6.6404  -24.8855  -49.6833 C.2       15 UNK         0.5000 
     88 O          -6.7412  -24.7800  -50.9078 O.2       15 UNK        -0.5000 
     89 N          -6.0673  -23.9636  -48.8952 N.am      16 UNK        -0.5000 
     90 CA         -5.4264  -22.7196  -49.3295 C.3       16 UNK         0.1400 
     91 CB         -6.4753  -21.7243  -49.8693 C.3       16 UNK        -0.1800 
     92 C          -4.2658  -22.9757  -50.3120 C.2       16 UNK         0.5000 
     93 O          -4.2115  -22.3467  -51.3674 O.2       16 UNK        -0.5000 
     94 N          -3.3935  -23.9335  -49.9598 N.am      17 UNK        -0.5000 
     95 CA         -2.2635  -24.4405  -50.7428 C.3       17 UNK         0.1400 
     96 CB         -1.1517  -23.3741  -50.8319 C.3       17 UNK        -0.1800 
     97 C          -2.7050  -24.9754  -52.1214 C.2       17 UNK         0.5000 
     98 O          -2.1433  -24.5869  -53.1471 O.2       17 UNK        -0.5000 
     99 N          -3.7446  -25.8241  -52.1166 N.am      18 UNK        -0.5000 
    100 CA        -4.4560  -26.3652  -53.2809 C.3       18 UNK         0.1400 
    101 CB        -3.5754  -27.3913  -54.0226 C.3       18 UNK        -0.1800 
    102 C         -4.9985  -25.2490  -54.2007 C.2       18 UNK         0.5000 
    103 O         -4.7847  -25.2778  -55.4136 O.2       18 UNK        -0.5000 
    104 N         -5.6448  -24.2552  -53.5755 N.am      19 UNK        -0.5000 
    105 CA        -6.1601  -22.9995  -54.1353 C.3       19 UNK         0.1400 
    106 CB        -7.2150  -23.2660  -55.2285 C.3       19 UNK        -0.1800 
    107 C         -5.0820  -21.9943  -54.6046 C.2       19 UNK         0.5000 
    108 O         -5.4471  -20.9274  -55.1024 O.2       19 UNK        -0.5000 
    109 N         -3.7926  -22.3206  -54.4266 N.am      20 UNK        -0.5000 
    110 CA        -2.5747  -21.5312  -54.6585 C.3       20 UNK         0.1400 
    111 CB        -2.5465  -20.2839  -53.7545 C.3       20 UNK        -0.1800 
    112 C         -2.2861  -21.1514  -56.1251 C.2       20 UNK         0.5000 
    113 O         -1.1336  -21.2392  -56.5489 O.2       20 UNK        -0.5000 
    114 N         -3.3211  -20.7248  -56.8616 N.am      21 UNK        -0.5000 
    115 CA        -3.3071  -20.2091  -58.2366 C.3       21 UNK         0.1400 
    116 CB        -2.8341  -21.2880  -59.2331 C.3       21 UNK        -0.1800 
    117 C         -2.5431  -18.8730  -58.3855 C.2       21 UNK         0.5000 
    118 O         -2.0990  -18.5365  -59.4847 O.2       21 UNK        -0.5000 
    119 N         -2.4205  -18.1264  -57.2804 N.am      22 UNK        -0.5000 
    120 CA        -1.7385  -16.8231  -57.1993 C.3       22 UNK         0.1400 
    121 C         -2.6097  -15.6154  -57.6566 C.2       22 UNK         0.5000 
    122 N         -3.8932  -15.7869  -57.9499 N.am      22 UNK        -0.7600 
    123 O         -2.1075  -14.4995  -57.7591 O.2       22 UNK        -0.5000 
    124 C124       -1.1498  -16.5813  -55.7847 C.3       23 UNK        -0.0398 
    125 S125        0.1031  -17.8329  -55.3386 S.3       23 UNK        -0.2404 
    126 C126        1.3637  -16.8251  -54.4983 C.3       23 UNK        -0.0205 
    127 H127       -2.8024  -16.8158  -45.7836 H         1 UNK         0.0600 
    128 H128       -3.1177  -16.8155  -47.5199 H         1 UNK         0.0600 
    129 H129       -4.4152  -16.4289  -46.3841 H         1 UNK         0.0600 
    130 H130       -2.6760  -14.9116  -48.6338 H         1 UNK         0.3000 
    131 H131       -2.8254  -12.2988  -47.3831 H         1 UNK         0.0600 
    132 H132       -3.7163  -12.2234  -49.5029 H         1 UNK         0.0800 
    133 H133       -2.1641  -11.5200  -49.7815 H         1 UNK         0.0800 
    134 H134       -0.6032  -12.8032  -52.1624 H         1 UNK         0.0800 
    135 H135       -0.1152  -12.9504  -50.4919 H         1 UNK         0.0800 
    136 H136        0.2288  -14.4772  -53.6735 H         1 UNK         0.1150 
    137 H137        1.5036  -18.3074  -52.2204 H         1 UNK         0.1150 
    138 H138       -0.1178  -15.4157  -49.5063 H         1 UNK         0.1150 
    139 H139        1.5217  -18.7607  -49.8373 H         1 UNK         0.0800 
    140 H140        1.3280  -17.4066  -48.7471 H         1 UNK         0.0800 
    141 H141       -1.0966  -18.4345  -46.6965 H         1 UNK         0.0800 
    142 H142        0.5634  -18.7427  -47.0947 H         1 UNK         0.0800 
    143 H143       -0.1516  -21.1147  -47.8341 H         1 UNK         0.0600 
    144 H144        0.4012  -20.1413  -45.2256 H         1 UNK         0.3000 
    145 H145        0.7080  -23.2950  -43.6034 H         1 UNK         0.0600 
    146 H146        2.9498  -22.3625  -43.0930 H         1 UNK         0.0600 
    147 H147        2.8934  -22.9412  -44.7518 H         1 UNK         0.0600 
    148 H148        2.8061  -21.2153  -44.4222 H         1 UNK         0.0600 
    149 H149        1.1171  -20.6269  -42.6819 H         1 UNK         0.3000 
    150 H150       -2.2777  -20.0319  -41.6372 H         1 UNK         0.0600 
    151 H151       -1.0862  -21.2914  -39.8353 H         1 UNK         0.0600 
    152 H152       -1.0431  -19.5582  -39.5490 H         1 UNK         0.0600 
    153 H153        0.3860  -20.3852  -40.1631 H         1 UNK         0.0600 
    154 H154       -0.0206  -18.3282  -41.5334 H         1 UNK         0.3000 
    155 H155       -0.3968  -16.8552  -44.7955 H         1 UNK         0.0600 
    156 H156       -1.9330  -15.6399  -43.2653 H         1 UNK         0.0600 
    157 H157       -0.3821  -14.8232  -43.3791 H         1 UNK         0.0600 
    158 H158       -0.7704  -15.7829  -41.9525 H         1 UNK         0.0600 
    159 H159        1.5423  -16.3486  -42.8114 H         1 UNK         0.3000 
    160 H160        3.9028  -18.8872  -43.7840 H         1 UNK         0.0600 
    161 H161        3.8421  -15.8306  -43.9953 H         1 UNK         0.0600 
    162 H162        4.2572  -16.9522  -45.2816 H         1 UNK         0.0600 
    163 H163        5.2973  -16.8212  -43.8723 H         1 UNK         0.0600 
    164 H164        3.8161  -16.8882  -41.7042 H         1 UNK         0.3000 
    165 H165        2.4921  -19.0078  -39.1678 H         1 UNK         0.0600 
    166 H166        4.6101  -18.3531  -38.0570 H         1 UNK         0.0600 
    167 H167        4.9224  -19.5787  -39.2755 H         1 UNK         0.0600 
    168 H168        5.3179  -17.8964  -39.6067 H         1 UNK         0.0600 
    169 H169        3.4605  -16.3092  -39.1699 H         1 UNK         0.3000 
    170 H170        0.3744  -14.7373  -40.0195 H         1 UNK         0.0600 
    171 H171        0.1816  -15.2942  -37.5901 H         1 UNK         0.0600 
    172 H172        1.8843  -14.9164  -37.3579 H         1 UNK         0.0600 
    173 H173        0.7504  -13.6505  -37.8306 H         1 UNK         0.0600 
    174 H174        2.8360  -13.5975  -39.2588 H         1 UNK         0.3000 
    175 H175        4.0079  -12.4137  -40.7449 H         1 UNK         0.0600 
    176 H176        5.2306  -14.6665  -42.4297 H         1 UNK         0.0600 
    177 H177        6.0788  -13.2518  -41.8154 H         1 UNK         0.0600 
    178 H178        5.4494  -14.4512  -40.6980 H         1 UNK         0.0600 
    179 H179        3.9768  -12.9421  -43.6539 H         1 UNK         0.3000 
    180 H180        1.9019  -10.1295  -44.3369 H         1 UNK         0.0600 
    181 H181        4.9002  -10.5085  -44.8401 H         1 UNK         0.0600 
    182 H182        4.1661   -9.1222  -44.0436 H         1 UNK         0.0600 
    183 H183        3.8196   -9.4394  -45.7354 H         1 UNK         0.0600 
    184 H184        3.2875  -11.9270  -46.0620 H         1 UNK         0.3000 
    185 H185        1.9230  -13.0297  -47.5269 H         1 UNK         0.0600 
    186 H186        1.8479  -15.5132  -47.2335 H         1 UNK         0.0600 
    187 H187        2.9485  -14.7733  -46.0824 H         1 UNK         0.0600 
    188 H188        1.3576  -15.3012  -45.5528 H         1 UNK         0.0600 
    189 H189       -0.5042  -14.4792  -46.9747 H         1 UNK         0.3000 
    190 H190       -2.3104  -20.3064  -45.0801 H         1 UNK         0.3000 
    191 H191       -4.7662  -20.7587  -46.4727 H         1 UNK         0.0600 
    192 H192       -4.6079  -19.3485  -44.4487 H         1 UNK         0.0600 
    193 H193       -5.7398  -20.6644  -44.1738 H         1 UNK         0.0600 
    194 H194       -4.1243  -20.7383  -43.4783 H         1 UNK         0.0600 
    195 H195       -2.6008  -22.9208  -44.6948 H         1 UNK         0.3000 
    196 H196       -4.3394  -25.1426  -44.3747 H         1 UNK         0.0600 
    197 H197       -2.2039  -26.3773  -43.9587 H         1 UNK         0.0600 
    198 H198       -2.2023  -24.8346  -43.1214 H         1 UNK         0.0600 
    199 H199       -1.2811  -25.0309  -44.6111 H         1 UNK         0.0600 
    200 H200       -4.1378  -27.2479  -45.4037 H         1 UNK         0.3000 
    201 H201       -4.3997  -28.6642  -47.0904 H         1 UNK         0.0600 
    202 H202       -1.9112  -28.4821  -47.1765 H         1 UNK         0.0600 
    203 H203       -2.0341  -27.2014  -48.3808 H         1 UNK         0.0600 
    204 H204       -2.5854  -28.8264  -48.7608 H         1 UNK         0.0600 
    205 H205       -6.2879  -26.8131  -47.1470 H         1 UNK         0.3000 
    206 H206       -7.9305  -25.8418  -48.2892 H         1 UNK         0.0600 
    207 H207       -8.0985  -28.0751  -49.3950 H         1 UNK         0.0600 
    208 H208       -8.5798  -26.7823  -50.4819 H         1 UNK         0.0600 
    209 H209       -7.0061  -27.5406  -50.6709 H         1 UNK         0.0600 
    210 H210       -6.0018  -24.1472  -47.9015 H         1 UNK         0.3000 
    211 H211       -4.9876  -22.2733  -48.4407 H         1 UNK         0.0600 
    212 H212       -6.9467  -22.0842  -50.7839 H         1 UNK         0.0600 
    213 H213       -6.0158  -20.7615  -50.0956 H         1 UNK         0.0600 
    214 H214       -7.2604  -21.5441  -49.1351 H         1 UNK         0.0600 
    215 H215       -3.4940  -24.3545  -49.0384 H         1 UNK         0.3000 
    216 H216       -1.8651  -25.2928  -50.1909 H         1 UNK         0.0600 
    217 H217       -0.2645  -23.7740  -51.3237 H         1 UNK         0.0600 
    218 H218       -0.8512  -23.0377  -49.8393 H         1 UNK         0.0600 
    219 H219       -1.4738  -22.4987  -51.3968 H         1 UNK         0.0600 
    220 H220       -4.1162  -26.1144  -51.2138 H         1 UNK         0.3000 
    221 H221       -5.3266  -26.8941  -52.8900 H         1 UNK         0.0600 
    222 H222       -2.6950  -26.9254  -54.4664 H         1 UNK         0.0600 
    223 H223       -3.2349  -28.1769  -53.3481 H         1 UNK         0.0600 
    224 H224       -4.1317  -27.8732  -54.8274 H         1 UNK         0.0600 
    225 H225       -5.7805  -24.3509  -52.5719 H         1 UNK         0.3000 
    226 H226       -6.6706  -22.5092  -53.3055 H         1 UNK         0.0600 
    227 H227       -7.9803  -23.9586  -54.8782 H         1 UNK         0.0600 
    228 H228       -7.7215  -22.3438  -55.5152 H         1 UNK         0.0600 
    229 H229       -6.7695  -23.6836  -56.1316 H         1 UNK         0.0600 
    230 H230       -3.6103  -23.2242  -54.0064 H         1 UNK         0.3000 
    231 H231       -1.7527  -22.1743  -54.3415 H         1 UNK         0.0600 
    232 H232       -3.3319  -19.5731  -54.0119 H         1 UNK         0.0600 
    233 H233       -1.5926  -19.7636  -53.8390 H         1 UNK         0.0600 
    234 H234       -2.6703  -20.5539  -52.7060 H         1 UNK         0.0600 
    235 H235       -4.2220  -20.6945  -56.3861 H         1 UNK         0.3000 
    236 H236       -4.3468  -19.9822  -58.4758 H         1 UNK         0.0600 
    237 H237       -3.3874  -22.2177  -59.0998 H         1 UNK         0.0600 
    238 H238       -2.9901  -20.9643  -60.2627 H         1 UNK         0.0600 
    239 H239       -1.7726  -21.5091  -59.1199 H         1 UNK         0.0600 
    240 H240       -2.8113  -18.4799  -56.4204 H         1 UNK         0.3000 
    241 H241       -0.8974  -16.8458  -57.8951 H         1 UNK         0.0600 
    242 H242       -4.4435  -14.9974  -58.2506 H         1 UNK         0.3800 
    243 H243       -4.3202  -16.6961  -57.8761 H         1 UNK         0.3800 
    244 H244       -1.9376  -16.5904  -55.0297 H         1 UNK         0.0800 
    245 H245       -0.6891  -15.5937  -55.7321 H         1 UNK         0.0800 
    246 H246        2.2876  -17.4022  -54.4386 H         1 UNK         0.0800 
    247 H247        1.5987  -15.9437  -55.0969 H         1 UNK         0.0800 
@<TRIPOS>BOND
     1    1    2 1    
     2    1  127 1    
     3    1  128 1    
     4    1  129 1    
     5    2    3 2    
     6    2    4 am   BACKBONE|DICT|INTERRES
     7    4    5 1    
     8    4  130 1    
     9    5    6 1    
    10    5   65 1    
    11    5  131 1    
    12    6    7 1    
    13    6  132 1    
    14    6  133 1    
    15    7    8 1    
    16    8    9 1    
    17    8  134 1    
    18    8  135 1    
    19    9   10 ar   
    20    9   14 ar   
    21   10   11 ar   
    22   10  136 1    
    23   11   12 ar   
    24   11  126 1    
    25   12   13 ar   
    26   12  137 1    
    27   13   14 ar   
    28   13   15 1    
    29   14  138 1    
    30   15   16 1    
    31   15  139 1    
    32   15  140 1    
    33   16   17 1    
    34   17   18 1    
    35   17  141 1    
    36   17  142 1    
    37   18   19 1    
    38   18   67 1    
    39   18  143 1    
    40   19   20 am   BACKBONE|DICT|INTERRES
    41   19  144 1    
    42   20   21 2    
    43   20   22 1    
    44   22   23 1    
    45   22   24 1    
    46   22  145 1    
    47   23  146 1    
    48   23  147 1    
    49   23  148 1    
    50   24   25 am   BACKBONE|DICT|INTERRES
    51   24  149 1    
    52   25   26 2    
    53   25   27 1    
    54   27   28 1    
    55   27   29 1    
    56   27  150 1    
    57   28  151 1    
    58   28  152 1    
    59   28  153 1    
    60   29   30 am   BACKBONE|DICT|INTERRES
    61   29  154 1    
    62   30   31 2    
    63   30   32 1    
    64   32   33 1    
    65   32   34 1    
    66   32  155 1    
    67   33  156 1    
    68   33  157 1    
    69   33  158 1    
    70   34   35 am   BACKBONE|DICT|INTERRES
    71   34  159 1    
    72   35   36 2    
    73   35   37 1    
    74   37   38 1    
    75   37   39 1    
    76   37  160 1    
    77   38  161 1    
    78   38  162 1    
    79   38  163 1    
    80   39   40 am   BACKBONE|DICT|INTERRES
    81   39  164 1    
    82   40   41 2    
    83   40   42 1    
    84   42   43 1    
    85   42   44 1    
    86   42  165 1    
    87   43  166 1    
    88   43  167 1    
    89   43  168 1    
    90   44   45 am   BACKBONE|DICT|INTERRES
    91   44  169 1    
    92   45   46 2    
    93   45   47 1    
    94   47   48 1    
    95   47   49 1    
    96   47  170 1    
    97   48  171 1    
    98   48  172 1    
    99   48  173 1    
   100   49   50 am   BACKBONE|DICT|INTERRES
   101   49  174 1    
   102   50   51 2    
   103   50   52 1    
   104   52   53 1    
   105   52   54 1    
   106   52  175 1    
   107   53  176 1    
   108   53  177 1    
   109   53  178 1    
   110   54   55 am   BACKBONE|DICT|INTERRES
   111   54  179 1    
   112   55   56 2    
   113   55   57 1    
   114   57   58 1    
   115   57   59 1    
   116   57  180 1    
   117   58  181 1    
   118   58  182 1    
   119   58  183 1    
   120   59   60 am   BACKBONE|DICT|INTERRES
   121   59  184 1    
   122   60   61 2    
   123   60   62 1    
   124   62   63 1    
   125   62   64 1    
   126   62  185 1    
   127   63  186 1    
   128   63  187 1    
   129   63  188 1    
   130   64   65 am   BACKBONE|DICT|INTERRES
   131   64  189 1    
   132   65   66 2    
   133   67   68 2    
   134   67   69 am   BACKBONE|DICT|INTERRES
   135   69   70 1    
   136   69  190 1    
   137   70   71 1    
   138   70   72 1    
   139   70  191 1    
   140   71  192 1    
   141   71  193 1    
   142   71  194 1    
   143   72   73 2    
   144   72   74 am   BACKBONE|DICT|INTERRES
   145   74   75 1    
   146   74  195 1    
   147   75   76 1    
   148   75   77 1    
   149   75  196 1    
   150   76  197 1    
   151   76  198 1    
   152   76  199 1    
   153   77   78 2    
   154   77   79 am   BACKBONE|DICT|INTERRES
   155   79   80 1    
   156   79  200 1    
   157   80   81 1    
   158   80   82 1    
   159   80  201 1    
   160   81  202 1    
   161   81  203 1    
   162   81  204 1    
   163   82   83 2    
   164   82   84 am   BACKBONE|DICT|INTERRES
   165   84   85 1    
   166   84  205 1    
   167   85   86 1    
   168   85   87 1    
   169   85  206 1    
   170   86  207 1    
   171   86  208 1    
   172   86  209 1    
   173   87   88 2    
   174   87   89 am   BACKBONE|DICT|INTERRES
   175   89   90 1    
   176   89  210 1    
   177   90   91 1    
   178   90   92 1    
   179   90  211 1    
   180   91  212 1    
   181   91  213 1    
   182   91  214 1    
   183   92   93 2    
   184   92   94 am   BACKBONE|DICT|INTERRES
   185   94   95 1    
   186   94  215 1    
   187   95   96 1    
   188   95   97 1    
   189   95  216 1    
   190   96  217 1    
   191   96  218 1    
   192   96  219 1    
   193   97   98 2    
   194   97   99 am   BACKBONE|DICT|INTERRES
   195   99  100 1    
   196   99  220 1    
   197  100  101 1    
   198  100  102 1    
   199  100  221 1    
   200  101  222 1    
   201  101  223 1    
   202  101  224 1    
   203  102  103 2    
   204  102  104 am   BACKBONE|DICT|INTERRES
   205  104  105 1    
   206  104  225 1    
   207  105  106 1    
   208  105  107 1    
   209  105  226 1    
   210  106  227 1    
   211  106  228 1    
   212  106  229 1    
   213  107  108 2    
   214  107  109 am   BACKBONE|DICT|INTERRES
   215  109  110 1    
   216  109  230 1    
   217  110  111 1    
   218  110  112 1    
   219  110  231 1    
   220  111  232 1    
   221  111  233 1    
   222  111  234 1    
   223  112  113 2    
   224  112  114 am   BACKBONE|DICT|INTERRES
   225  114  115 1    
   226  114  235 1    
   227  115  116 1    
   228  115  117 1    
   229  115  236 1    
   230  116  237 1    
   231  116  238 1    
   232  116  239 1    
   233  117  118 2    
   234  117  119 am   BACKBONE|DICT|INTERRES
   235  119  120 1    
   236  119  240 1    
   237  120  121 1    
   238  120  124 1    
   239  120  241 1    
   240  121  122 am   BACKBONE|DICT|INTERRES
   241  121  123 2    
   242  122  242 1    
   243  122  243 1    
   244  124  125 1    
   245  124  244 1    
   246  124  245 1    
   247  125  126 1    
   248  126  246 1    
   249  126  247 1    
@<TRIPOS>SUBSTRUCTURE
     1 UNK         1 GROUP             0       ****    0 ROOT    
