@<TRIPOS>MOLECULE
3R540
247   249    1
SMALL
USER_CHARGES


@<TRIPOS>ATOM
      1 CA          4.7286  -15.6953  -44.7809 C.3       0 UNK        -0.1800 
      2 C           4.0922  -15.7952  -46.1597 C.2       0 UNK         0.5000 
      3 O           2.9545  -16.2420  -46.2786 O.2       0 UNK        -0.5000 
      4 N           4.8236  -15.3826  -47.2015 N.am      1 UNK        -0.5000 
      5 CA          4.3781  -15.4087  -48.6018 C.3       1 UNK         0.1400 
      6 C6          5.5735  -15.2758  -49.5770 C.3       23 UNK        -0.0398 
      7 S7          6.7299  -16.6831  -49.4585 S.3       23 UNK        -0.2404 
      8 C8          6.3419  -17.6070  -50.9794 C.3       23 UNK        -0.0205 
      9 C9          4.9944  -18.3093  -50.8956 C.ar      23 UNK        -0.0193 
     10 C10         3.8398  -17.6897  -51.3842 C.ar      23 UNK        -0.1150 
     11 C11         2.6027  -18.3367  -51.3182 C.ar      23 UNK        -0.0193 
     12 C12         2.5321  -19.6260  -50.7813 C.ar      23 UNK        -0.1150 
     13 C13         3.6752  -20.2511  -50.2792 C.ar      23 UNK        -0.0193 
     14 C14         4.9046  -19.5892  -50.3412 C.ar      23 UNK        -0.1150 
     15 C15         3.5831  -21.6443  -49.6787 C.3       23 UNK        -0.0205 
     16 S16         3.6315  -21.6066  -47.8597 S.3       23 UNK        -0.2404 
     17 C17         2.0063  -20.8945  -47.4263 C.3       23 UNK        -0.0398 
     18 CA          0.9628  -21.9895  -47.0863 C.3       11 UNK         0.1400 
     19 N           0.1079  -21.6266  -45.9530 N.am      11 UNK        -0.5000 
     20 C          -0.6791  -22.4908  -45.2964 C.2       10 UNK         0.5000 
     21 O          -0.7431  -23.6906  -45.5626 O.2       10 UNK        -0.5000 
     22 CA         -1.5801  -21.9162  -44.1883 C.3       10 UNK         0.1400 
     23 CB         -0.7972  -21.7268  -42.8807 C.3       10 UNK        -0.1800 
     24 N          -2.2104  -20.6559  -44.5807 N.am      10 UNK        -0.5000 
     25 C          -3.0956  -20.5428  -45.5804 C.2       9 UNK         0.5000 
     26 O          -3.5211  -21.4968  -46.2312 O.2       9 UNK        -0.5000 
     27 CA         -3.5532  -19.1252  -45.9559 C.3       9 UNK         0.1400 
     28 CB         -4.6953  -18.6558  -45.0436 C.3       9 UNK        -0.1800 
     29 N          -2.4681  -18.1457  -45.9522 N.am      9 UNK        -0.5000 
     30 C          -1.4021  -18.1946  -46.7652 C.2       8 UNK         0.5000 
     31 O          -1.2457  -19.0565  -47.6274 O.2       8 UNK        -0.5000 
     32 CA         -0.2952  -17.1531  -46.5302 C.3       8 UNK         0.1400 
     33 CB         -0.6697  -15.7920  -47.1355 C.3       8 UNK        -0.1800 
     34 N           0.0134  -16.9959  -45.1099 N.am      8 UNK        -0.5000 
     35 C           0.4983  -17.9697  -44.3270 C.2       7 UNK         0.5000 
     36 O           0.7664  -19.1029  -44.7246 O.2       7 UNK        -0.5000 
     37 CA          0.6430  -17.6437  -42.8324 C.3       7 UNK         0.1400 
     38 CB          1.9412  -16.8711  -42.5583 C.3       7 UNK        -0.1800 
     39 N          -0.5057  -16.8869  -42.3348 N.am      7 UNK        -0.5000 
     40 C          -1.7345  -17.4009  -42.1812 C.2       6 UNK         0.5000 
     41 O          -2.0162  -18.5781  -42.4063 O.2       6 UNK        -0.5000 
     42 CA         -2.8409  -16.4263  -41.7374 C.3       6 UNK         0.1400 
     43 CB         -2.8201  -16.2395  -40.2131 C.3       6 UNK        -0.1800 
     44 N          -2.7360  -15.1195  -42.3889 N.am      6 UNK        -0.5000 
     45 C          -2.9289  -14.9133  -43.6990 C.2       5 UNK         0.5000 
     46 O          -3.2450  -15.7999  -44.4904 O.2       5 UNK        -0.5000 
     47 CA         -2.6850  -13.4870  -44.2243 C.3       5 UNK         0.1400 
     48 CB         -3.9572  -12.6376  -44.0893 C.3       5 UNK        -0.1800 
     49 N          -1.5667  -12.7918  -43.5804 N.am      5 UNK        -0.5000 
     50 C          -0.3011  -13.2287  -43.5460 C.2       4 UNK         0.5000 
     51 O           0.0595  -14.3129  -44.0055 O.2       4 UNK        -0.5000 
     52 CA          0.7347  -12.2674  -42.9392 C.3       4 UNK         0.1400 
     53 CB          1.9539  -13.0092  -42.3661 C.3       4 UNK        -0.1800 
     54 N           1.1902  -11.3439  -43.9713 N.am      4 UNK        -0.5000 
     55 C           0.5263  -10.2680  -44.4047 C.2       3 UNK         0.5000 
     56 O          -0.5160   -9.8599  -43.8903 O.2       3 UNK        -0.5000 
     57 CA          1.0996   -9.5437  -45.6381 C.3       3 UNK         0.1400 
     58 CB          2.3139   -8.6714  -45.2651 C.3       3 UNK        -0.1800 
     59 N           1.3935  -10.4293  -46.7764 N.am      3 UNK        -0.5000 
     60 C           2.3340  -11.3779  -46.8892 C.2       2 UNK         0.5000 
     61 O           3.1315  -11.6760  -45.9942 O.2       2 UNK        -0.5000 
     62 CA          2.3912  -12.1128  -48.2368 C.3       2 UNK         0.1400 
     63 CB          2.8947  -11.1823  -49.3577 C.3       2 UNK        -0.1800 
     64 N           3.2814  -13.2599  -48.1073 N.am      2 UNK        -0.5000 
     65 C           3.3221  -14.3252  -48.9152 C.2       1 UNK         0.5000 
     66 O           2.5845  -14.4656  -49.8913 O.2       1 UNK        -0.5000 
     67 C           0.1357  -22.4074  -48.3207 C.2       11 UNK         0.5000 
     68 O           0.4750  -23.3993  -48.9643 O.2       11 UNK        -0.5000 
     69 N          -0.9610  -21.6869  -48.6008 N.am      12 UNK        -0.5000 
     70 CA         -1.9344  -22.0224  -49.6421 C.3       12 UNK         0.1400 
     71 CB         -2.9801  -20.9022  -49.7656 C.3       12 UNK        -0.1800 
     72 C          -2.6073  -23.3849  -49.3929 C.2       12 UNK         0.5000 
     73 O          -2.6820  -24.1977  -50.3135 O.2       12 UNK        -0.5000 
     74 N          -3.0230  -23.6375  -48.1433 N.am      13 UNK        -0.5000 
     75 CA         -3.5827  -24.9155  -47.7021 C.3       13 UNK         0.1400 
     76 CB         -4.1185  -24.7822  -46.2692 C.3       13 UNK        -0.1800 
     77 C          -2.5789  -26.0789  -47.8147 C.2       13 UNK         0.5000 
     78 O          -2.9522  -27.1533  -48.2857 O.2       13 UNK        -0.5000 
     79 N          -1.3148  -25.8378  -47.4358 N.am      14 UNK        -0.5000 
     80 CA         -0.2047  -26.7856  -47.5824 C.3       14 UNK         0.1400 
     81 CB          1.0339  -26.2475  -46.8506 C.3       14 UNK        -0.1800 
     82 C           0.1263  -27.1066  -49.0542 C.2       14 UNK         0.5000 
     83 O           0.4809  -28.2443  -49.3639 O.2       14 UNK        -0.5000 
     84 N          -0.0423  -26.1146  -49.9384 N.am      15 UNK        -0.5000 
     85 CA          0.0675  -26.2380  -51.3939 C.3       15 UNK         0.1400 
     86 CB          0.3608  -24.8490  -51.9865 C.3       15 UNK        -0.1800 
     87 C          -1.1746  -26.8763  -52.0583 C.2       15 UNK         0.5000 
     88 O          -1.1836  -27.0292  -53.2805 O.2       15 UNK        -0.5000 
     89 N          -2.1891  -27.2384  -51.2579 N.am      16 UNK        -0.5000 
     90 CA         -3.4595  -27.8663  -51.6340 C.3       16 UNK         0.1400 
     91 CB         -3.2342  -29.2311  -52.3194 C.3       16 UNK        -0.1800 
     92 C          -4.4103  -26.9401  -52.4210 C.2       16 UNK         0.5000 
     93 O          -5.2843  -27.4307  -53.1391 O.2       16 UNK        -0.5000 
     94 N          -4.2578  -25.6223  -52.2458 N.am      17 UNK        -0.5000 
     95 CA         -5.2131  -24.6086  -52.6855 C.3       17 UNK         0.1400 
     96 CB         -4.4398  -23.3397  -53.0843 C.3       17 UNK        -0.1800 
     97 C          -6.2233  -24.3173  -51.5580 C.2       17 UNK         0.5000 
     98 O          -6.0967  -24.8443  -50.4487 O.2       17 UNK        -0.5000 
     99 N          -7.2196  -23.4768  -51.8599 N.am      18 UNK        -0.5000 
    100 CA        -8.1831  -22.9652  -50.8841 C.3       18 UNK         0.1400 
    101 CB        -9.3492  -22.3050  -51.6369 C.3       18 UNK        -0.1800 
    102 C         -7.5332  -21.9752  -49.8955 C.2       18 UNK         0.5000 
    103 O         -6.4697  -21.4165  -50.1803 O.2       18 UNK        -0.5000 
    104 N         -8.1996  -21.7567  -48.7546 N.am      19 UNK        -0.5000 
    105 CA        -7.7737  -20.8329  -47.7028 C.3       19 UNK         0.1400 
    106 CB        -8.7677  -20.8952  -46.5331 C.3       19 UNK        -0.1800 
    107 C         -7.6241  -19.3922  -48.2292 C.2       19 UNK         0.5000 
    108 O         -8.6010  -18.8085  -48.7017 O.2       19 UNK        -0.5000 
    109 N         -6.3879  -18.8831  -48.1610 N.am      20 UNK        -0.5000 
    110 CA        -5.9182  -17.5737  -48.6301 C.3       20 UNK         0.1400 
    111 CB        -6.6935  -16.4187  -47.9626 C.3       20 UNK        -0.1800 
    112 C         -5.8480  -17.4260  -50.1651 C.2       20 UNK         0.5000 
    113 O         -5.5321  -16.3348  -50.6426 O.2       20 UNK        -0.5000 
    114 N         -6.0678  -18.5095  -50.9252 N.am      21 UNK        -0.5000 
    115 CA        -5.9166  -18.5464  -52.3822 C.3       21 UNK         0.1400 
    116 CB        -6.8993  -19.5708  -52.9742 C.3       21 UNK        -0.1800 
    117 C         -4.4503  -18.8375  -52.7552 C.2       21 UNK         0.5000 
    118 O         -4.1522  -19.8598  -53.3744 O.2       21 UNK        -0.5000 
    119 N         -3.5555  -17.9438  -52.3199 N.am      22 UNK        -0.5000 
    120 CA        -2.1044  -18.0209  -52.5218 C.3       22 UNK         0.1400 
    121 C         -1.7162  -17.9030  -54.0228 C.2       22 UNK         0.5000 
    122 N         -0.9778  -18.8612  -54.5666 N.am      22 UNK        -0.7600 
    123 O         -2.0575  -16.9281  -54.6885 O.2       22 UNK        -0.5000 
    124 C124       -1.3635  -16.9639  -51.6505 C.3       23 UNK        -0.0398 
    125 S125       -0.0222  -17.6943  -50.6602 S.3       23 UNK        -0.2404 
    126 C126        1.3527  -17.6529  -51.8538 C.3       23 UNK        -0.0205 
    127 H127        4.7628  -16.6786  -44.3121 H         1 UNK         0.0600 
    128 H128        4.1429  -15.0324  -44.1452 H         1 UNK         0.0600 
    129 H129        5.7461  -15.3069  -44.8306 H         1 UNK         0.0600 
    130 H130        5.7635  -15.0465  -47.0472 H         1 UNK         0.3000 
    131 H131        3.8967  -16.3726  -48.7819 H         1 UNK         0.0600 
    132 H132        5.2313  -15.1833  -50.6087 H         1 UNK         0.0800 
    133 H133        6.1307  -14.3602  -49.3712 H         1 UNK         0.0800 
    134 H134        7.1271  -18.3456  -51.1479 H         1 UNK         0.0800 
    135 H135        6.3728  -16.9364  -51.8396 H         1 UNK         0.0800 
    136 H136        3.9025  -16.7013  -51.8165 H         1 UNK         0.1150 
    137 H137        1.5805  -20.1376  -50.7410 H         1 UNK         0.1150 
    138 H138        5.7920  -20.0712  -49.9552 H         1 UNK         0.1150 
    139 H139        2.6799  -22.1551  -50.0149 H         1 UNK         0.0800 
    140 H140        4.4198  -22.2450  -50.0382 H         1 UNK         0.0800 
    141 H141        1.6523  -20.2076  -48.1963 H         1 UNK         0.0800 
    142 H142        2.1899  -20.2680  -46.5537 H         1 UNK         0.0800 
    143 H143        1.5048  -22.8803  -46.7612 H         1 UNK         0.0600 
    144 H144        0.1425  -20.6591  -45.6422 H         1 UNK         0.3000 
    145 H145       -2.3752  -22.6408  -44.0007 H         1 UNK         0.0600 
    146 H146       -1.4500  -21.3853  -42.0773 H         1 UNK         0.0600 
    147 H147       -0.3465  -22.6658  -42.5573 H         1 UNK         0.0600 
    148 H148        0.0059  -20.9984  -42.9902 H         1 UNK         0.0600 
    149 H149       -1.9435  -19.8276  -44.0596 H         1 UNK         0.3000 
    150 H150       -3.9289  -19.1788  -46.9765 H         1 UNK         0.0600 
    151 H151       -5.5214  -19.3681  -45.0486 H         1 UNK         0.0600 
    152 H152       -5.0924  -17.6956  -45.3724 H         1 UNK         0.0600 
    153 H153       -4.3634  -18.5431  -44.0111 H         1 UNK         0.0600 
    154 H154       -2.5535  -17.3751  -45.2944 H         1 UNK         0.3000 
    155 H155        0.6076  -17.5098  -47.0307 H         1 UNK         0.0600 
    156 H156       -1.5657  -15.3775  -46.6745 H         1 UNK         0.0600 
    157 H157        0.1391  -15.0716  -47.0085 H         1 UNK         0.0600 
    158 H158       -0.8607  -15.8818  -48.2054 H         1 UNK         0.0600 
    159 H159       -0.1219  -16.0721  -44.7082 H         1 UNK         0.3000 
    160 H160        0.6911  -18.5874  -42.2847 H         1 UNK         0.0600 
    161 H161        1.9835  -15.9408  -43.1237 H         1 UNK         0.0600 
    162 H162        2.8098  -17.4645  -42.8455 H         1 UNK         0.0600 
    163 H163        2.0456  -16.6297  -41.5006 H         1 UNK         0.0600 
    164 H164       -0.3725  -15.8951  -42.2039 H         1 UNK         0.3000 
    165 H165       -3.8014  -16.8668  -42.0135 H         1 UNK         0.0600 
    166 H166       -3.6490  -15.6138  -39.8815 H         1 UNK         0.0600 
    167 H167       -2.9135  -17.1985  -39.7018 H         1 UNK         0.0600 
    168 H168       -1.8926  -15.7759  -39.8748 H         1 UNK         0.0600 
    169 H169       -2.4755  -14.3349  -41.8099 H         1 UNK         0.3000 
    170 H170       -2.4455  -13.5686  -45.2861 H         1 UNK         0.0600 
    171 H171       -4.8031  -13.1199  -44.5811 H         1 UNK         0.0600 
    172 H172       -4.2289  -12.4824  -43.0445 H         1 UNK         0.0600 
    173 H173       -3.8289  -11.6589  -44.5522 H         1 UNK         0.0600 
    174 H174       -1.7579  -11.8629  -43.2295 H         1 UNK         0.3000 
    175 H175        0.2631  -11.7104  -42.1269 H         1 UNK         0.0600 
    176 H176        2.5099  -13.5314  -43.1451 H         1 UNK         0.0600 
    177 H177        2.6394  -12.3171  -41.8771 H         1 UNK         0.0600 
    178 H178        1.6506  -13.7475  -41.6228 H         1 UNK         0.0600 
    179 H179        2.0153  -11.6185  -44.4985 H         1 UNK         0.3000 
    180 H180        0.3175   -8.8689  -45.9901 H         1 UNK         0.0600 
    181 H181        3.1430   -9.2636  -44.8772 H         1 UNK         0.0600 
    182 H182        2.0473   -7.9458  -44.4957 H         1 UNK         0.0600 
    183 H183        2.6763   -8.1120  -46.1274 H         1 UNK         0.0600 
    184 H184        0.7817  -10.2932  -47.5694 H         1 UNK         0.3000 
    185 H185        1.3858  -12.4676  -48.4732 H         1 UNK         0.0600 
    186 H186        2.2457  -10.3140  -49.4752 H         1 UNK         0.0600 
    187 H187        3.9005  -10.8151  -49.1500 H         1 UNK         0.0600 
    188 H188        2.9189  -11.6941  -50.3198 H         1 UNK         0.0600 
    189 H189        3.8728  -13.2326  -47.2856 H         1 UNK         0.3000 
    190 H190       -1.1415  -20.8373  -48.0696 H         1 UNK         0.3000 
    191 H191       -1.3944  -22.0847  -50.5889 H         1 UNK         0.0600 
    192 H192       -3.5724  -20.7993  -48.8573 H         1 UNK         0.0600 
    193 H193       -3.6730  -21.1027  -50.5833 H         1 UNK         0.0600 
    194 H194       -2.5089  -19.9404  -49.9679 H         1 UNK         0.0600 
    195 H195       -2.9659  -22.9004  -47.4463 H         1 UNK         0.3000 
    196 H196       -4.4263  -25.1471  -48.3547 H         1 UNK         0.0600 
    197 H197       -4.5608  -25.7192  -45.9290 H         1 UNK         0.0600 
    198 H198       -4.8920  -24.0163  -46.2091 H         1 UNK         0.0600 
    199 H199       -3.3298  -24.5160  -45.5656 H         1 UNK         0.0600 
    200 H200       -1.0967  -24.9452  -47.0016 H         1 UNK         0.3000 
    201 H201       -0.5022  -27.7194  -47.1011 H         1 UNK         0.0600 
    202 H202        0.8240  -26.0725  -45.7953 H         1 UNK         0.0600 
    203 H203        1.3820  -25.3096  -47.2828 H         1 UNK         0.0600 
    204 H204        1.8586  -26.9590  -46.9049 H         1 UNK         0.0600 
    205 H205       -0.2695  -25.1903  -49.5855 H         1 UNK         0.3000 
    206 H206        0.9174  -26.8845  -51.6208 H         1 UNK         0.0600 
    207 H207        1.2577  -24.4133  -51.5456 H         1 UNK         0.0600 
    208 H208        0.5249  -24.9067  -53.0631 H         1 UNK         0.0600 
    209 H209       -0.4638  -24.1568  -51.8179 H         1 UNK         0.0600 
    210 H210       -2.0968  -27.0396  -50.2691 H         1 UNK         0.3000 
    211 H211       -3.9712  -28.0660  -50.6918 H         1 UNK         0.0600 
    212 H212       -2.8109  -29.1207  -53.3179 H         1 UNK         0.0600 
    213 H213       -4.1735  -29.7751  -52.4241 H         1 UNK         0.0600 
    214 H214       -2.5615  -29.8595  -51.7355 H         1 UNK         0.0600 
    215 H215       -3.5628  -25.2961  -51.5780 H         1 UNK         0.3000 
    216 H216       -5.7642  -24.9653  -53.5579 H         1 UNK         0.0600 
    217 H217       -5.1017  -22.5962  -53.5293 H         1 UNK         0.0600 
    218 H218       -3.6662  -23.5623  -53.8193 H         1 UNK         0.0600 
    219 H219       -3.9592  -22.8701  -52.2268 H         1 UNK         0.0600 
    220 H220       -7.2501  -23.0633  -52.7796 H         1 UNK         0.3000 
    221 H221       -8.5746  -23.8091  -50.3120 H         1 UNK         0.0600 
    222 H222       -9.0153  -21.4666  -52.2472 H         1 UNK         0.0600 
    223 H223       -9.8468  -23.0185  -52.2940 H         1 UNK         0.0600 
    224 H224      -10.1019  -21.9256  -50.9448 H         1 UNK         0.0600 
    225 H225       -9.0808  -22.2258  -48.6056 H         1 UNK         0.3000 
    226 H226       -6.8047  -21.1801  -47.3364 H         1 UNK         0.0600 
    227 H227       -8.4648  -20.2235  -45.7287 H         1 UNK         0.0600 
    228 H228       -9.7729  -20.6051  -46.8421 H         1 UNK         0.0600 
    229 H229       -8.8218  -21.8999  -46.1133 H         1 UNK         0.0600 
    230 H230       -5.6643  -19.4931  -47.8120 H         1 UNK         0.3000 
    231 H231       -4.8846  -17.4930  -48.2922 H         1 UNK         0.0600 
    232 H232       -6.2161  -15.4596  -48.1666 H         1 UNK         0.0600 
    233 H233       -6.7273  -16.5370  -46.8797 H         1 UNK         0.0600 
    234 H234       -7.7189  -16.3520  -48.3263 H         1 UNK         0.0600 
    235 H235       -6.2586  -19.4003  -50.4777 H         1 UNK         0.3000 
    236 H236       -6.1748  -17.5720  -52.8022 H         1 UNK         0.0600 
    237 H237       -7.9240  -19.3472  -52.6778 H         1 UNK         0.0600 
    238 H238       -6.8648  -19.5565  -54.0641 H         1 UNK         0.0600 
    239 H239       -6.6666  -20.5863  -52.6557 H         1 UNK         0.0600 
    240 H240       -3.9056  -17.1301  -51.8299 H         1 UNK         0.3000 
    241 H241       -1.8174  -19.0188  -52.1835 H         1 UNK         0.0600 
    242 H242       -0.7101  -19.6817  -54.0465 H         1 UNK         0.3800 
    243 H243       -0.7182  -18.7860  -55.5377 H         1 UNK         0.3800 
    244 H244       -0.9730  -16.1301  -52.2374 H         1 UNK         0.0800 
    245 H245       -2.0466  -16.5056  -50.9337 H         1 UNK         0.0800 
    246 H246        1.5614  -16.6127  -52.1096 H         1 UNK         0.0800 
    247 H247        1.0578  -18.1521  -52.7761 H         1 UNK         0.0800 
@<TRIPOS>BOND
     1    1    2 1    
     2    1  127 1    
     3    1  128 1    
     4    1  129 1    
     5    2    3 2    
     6    2    4 am   BACKBONE|DICT|INTERRES
     7    4    5 1    
     8    4  130 1    
     9    5    6 1    
    10    5   65 1    
    11    5  131 1    
    12    6    7 1    
    13    6  132 1    
    14    6  133 1    
    15    7    8 1    
    16    8    9 1    
    17    8  134 1    
    18    8  135 1    
    19    9   10 ar   
    20    9   14 ar   
    21   10   11 ar   
    22   10  136 1    
    23   11   12 ar   
    24   11  126 1    
    25   12   13 ar   
    26   12  137 1    
    27   13   14 ar   
    28   13   15 1    
    29   14  138 1    
    30   15   16 1    
    31   15  139 1    
    32   15  140 1    
    33   16   17 1    
    34   17   18 1    
    35   17  141 1    
    36   17  142 1    
    37   18   19 1    
    38   18   67 1    
    39   18  143 1    
    40   19   20 am   BACKBONE|DICT|INTERRES
    41   19  144 1    
    42   20   21 2    
    43   20   22 1    
    44   22   23 1    
    45   22   24 1    
    46   22  145 1    
    47   23  146 1    
    48   23  147 1    
    49   23  148 1    
    50   24   25 am   BACKBONE|DICT|INTERRES
    51   24  149 1    
    52   25   26 2    
    53   25   27 1    
    54   27   28 1    
    55   27   29 1    
    56   27  150 1    
    57   28  151 1    
    58   28  152 1    
    59   28  153 1    
    60   29   30 am   BACKBONE|DICT|INTERRES
    61   29  154 1    
    62   30   31 2    
    63   30   32 1    
    64   32   33 1    
    65   32   34 1    
    66   32  155 1    
    67   33  156 1    
    68   33  157 1    
    69   33  158 1    
    70   34   35 am   BACKBONE|DICT|INTERRES
    71   34  159 1    
    72   35   36 2    
    73   35   37 1    
    74   37   38 1    
    75   37   39 1    
    76   37  160 1    
    77   38  161 1    
    78   38  162 1    
    79   38  163 1    
    80   39   40 am   BACKBONE|DICT|INTERRES
    81   39  164 1    
    82   40   41 2    
    83   40   42 1    
    84   42   43 1    
    85   42   44 1    
    86   42  165 1    
    87   43  166 1    
    88   43  167 1    
    89   43  168 1    
    90   44   45 am   BACKBONE|DICT|INTERRES
    91   44  169 1    
    92   45   46 2    
    93   45   47 1    
    94   47   48 1    
    95   47   49 1    
    96   47  170 1    
    97   48  171 1    
    98   48  172 1    
    99   48  173 1    
   100   49   50 am   BACKBONE|DICT|INTERRES
   101   49  174 1    
   102   50   51 2    
   103   50   52 1    
   104   52   53 1    
   105   52   54 1    
   106   52  175 1    
   107   53  176 1    
   108   53  177 1    
   109   53  178 1    
   110   54   55 am   BACKBONE|DICT|INTERRES
   111   54  179 1    
   112   55   56 2    
   113   55   57 1    
   114   57   58 1    
   115   57   59 1    
   116   57  180 1    
   117   58  181 1    
   118   58  182 1    
   119   58  183 1    
   120   59   60 am   BACKBONE|DICT|INTERRES
   121   59  184 1    
   122   60   61 2    
   123   60   62 1    
   124   62   63 1    
   125   62   64 1    
   126   62  185 1    
   127   63  186 1    
   128   63  187 1    
   129   63  188 1    
   130   64   65 am   BACKBONE|DICT|INTERRES
   131   64  189 1    
   132   65   66 2    
   133   67   68 2    
   134   67   69 am   BACKBONE|DICT|INTERRES
   135   69   70 1    
   136   69  190 1    
   137   70   71 1    
   138   70   72 1    
   139   70  191 1    
   140   71  192 1    
   141   71  193 1    
   142   71  194 1    
   143   72   73 2    
   144   72   74 am   BACKBONE|DICT|INTERRES
   145   74   75 1    
   146   74  195 1    
   147   75   76 1    
   148   75   77 1    
   149   75  196 1    
   150   76  197 1    
   151   76  198 1    
   152   76  199 1    
   153   77   78 2    
   154   77   79 am   BACKBONE|DICT|INTERRES
   155   79   80 1    
   156   79  200 1    
   157   80   81 1    
   158   80   82 1    
   159   80  201 1    
   160   81  202 1    
   161   81  203 1    
   162   81  204 1    
   163   82   83 2    
   164   82   84 am   BACKBONE|DICT|INTERRES
   165   84   85 1    
   166   84  205 1    
   167   85   86 1    
   168   85   87 1    
   169   85  206 1    
   170   86  207 1    
   171   86  208 1    
   172   86  209 1    
   173   87   88 2    
   174   87   89 am   BACKBONE|DICT|INTERRES
   175   89   90 1    
   176   89  210 1    
   177   90   91 1    
   178   90   92 1    
   179   90  211 1    
   180   91  212 1    
   181   91  213 1    
   182   91  214 1    
   183   92   93 2    
   184   92   94 am   BACKBONE|DICT|INTERRES
   185   94   95 1    
   186   94  215 1    
   187   95   96 1    
   188   95   97 1    
   189   95  216 1    
   190   96  217 1    
   191   96  218 1    
   192   96  219 1    
   193   97   98 2    
   194   97   99 am   BACKBONE|DICT|INTERRES
   195   99  100 1    
   196   99  220 1    
   197  100  101 1    
   198  100  102 1    
   199  100  221 1    
   200  101  222 1    
   201  101  223 1    
   202  101  224 1    
   203  102  103 2    
   204  102  104 am   BACKBONE|DICT|INTERRES
   205  104  105 1    
   206  104  225 1    
   207  105  106 1    
   208  105  107 1    
   209  105  226 1    
   210  106  227 1    
   211  106  228 1    
   212  106  229 1    
   213  107  108 2    
   214  107  109 am   BACKBONE|DICT|INTERRES
   215  109  110 1    
   216  109  230 1    
   217  110  111 1    
   218  110  112 1    
   219  110  231 1    
   220  111  232 1    
   221  111  233 1    
   222  111  234 1    
   223  112  113 2    
   224  112  114 am   BACKBONE|DICT|INTERRES
   225  114  115 1    
   226  114  235 1    
   227  115  116 1    
   228  115  117 1    
   229  115  236 1    
   230  116  237 1    
   231  116  238 1    
   232  116  239 1    
   233  117  118 2    
   234  117  119 am   BACKBONE|DICT|INTERRES
   235  119  120 1    
   236  119  240 1    
   237  120  121 1    
   238  120  124 1    
   239  120  241 1    
   240  121  122 am   BACKBONE|DICT|INTERRES
   241  121  123 2    
   242  122  242 1    
   243  122  243 1    
   244  124  125 1    
   245  124  244 1    
   246  124  245 1    
   247  125  126 1    
   248  126  246 1    
   249  126  247 1    
@<TRIPOS>SUBSTRUCTURE
     1 UNK         1 GROUP             0       ****    0 ROOT    
