@<TRIPOS>MOLECULE
3R540
247   249    1
SMALL
USER_CHARGES


@<TRIPOS>ATOM
      1 CA         -1.8305  -15.3225  -51.6319 C.3       0 UNK        -0.1800 
      2 C          -1.3215  -14.7706  -50.3095 C.2       0 UNK         0.5000 
      3 O          -1.8536  -15.1100  -49.2560 O.2       0 UNK        -0.5000 
      4 N          -0.3002  -13.9065  -50.3704 N.am      1 UNK        -0.5000 
      5 CA          0.3923  -13.2680  -49.2369 C.3       1 UNK         0.1400 
      6 C6          1.0096  -14.2642  -48.2155 C.3       23 UNK        -0.0398 
      7 S7          2.0720  -15.5384  -48.9730 S.3       23 UNK        -0.2404 
      8 C8          1.2485  -17.0503  -48.3855 C.3       23 UNK        -0.0205 
      9 C9          1.9048  -18.2918  -48.9654 C.ar      23 UNK        -0.0193 
     10 C10         1.3303  -18.9458  -50.0592 C.ar      23 UNK        -0.1150 
     11 C11         1.9375  -20.0783  -50.6086 C.ar      23 UNK        -0.0193 
     12 C12         3.1275  -20.5569  -50.0531 C.ar      23 UNK        -0.1150 
     13 C13         3.7123  -19.9112  -48.9600 C.ar      23 UNK        -0.0193 
     14 C14         3.0920  -18.7833  -48.4148 C.ar      23 UNK        -0.1150 
     15 C15         5.0320  -20.4118  -48.3918 C.3       23 UNK        -0.0205 
     16 S16         4.8095  -21.3470  -46.8487 S.3       23 UNK        -0.2404 
     17 C17         3.8665  -22.7961  -47.4308 C.3       23 UNK        -0.0398 
     18 CA          3.8998  -23.9699  -46.4219 C.3       11 UNK         0.1400 
     19 N           3.3708  -23.5781  -45.1083 N.am      11 UNK        -0.5000 
     20 C           3.6100  -24.2146  -43.9538 C.2       10 UNK         0.5000 
     21 O           4.3582  -25.1868  -43.8500 O.2       10 UNK        -0.5000 
     22 CA          2.8405  -23.7102  -42.7184 C.3       10 UNK         0.1400 
     23 CB          3.6218  -22.6016  -41.9965 C.3       10 UNK        -0.1800 
     24 N           1.5012  -23.2264  -43.0652 N.am      10 UNK        -0.5000 
     25 C           0.4788  -24.0215  -43.4135 C.2       9 UNK         0.5000 
     26 O           0.5467  -25.2501  -43.4348 O.2       9 UNK        -0.5000 
     27 CA         -0.8198  -23.3328  -43.8713 C.3       9 UNK         0.1400 
     28 CB         -1.7125  -22.9854  -42.6719 C.3       9 UNK        -0.1800 
     29 N          -0.5639  -22.1294  -44.6623 N.am      9 UNK        -0.5000 
     30 C          -0.0251  -22.1378  -45.8905 C.2       8 UNK         0.5000 
     31 O           0.2293  -23.1707  -46.5097 O.2       8 UNK        -0.5000 
     32 CA          0.3215  -20.7780  -46.5226 C.3       8 UNK         0.1400 
     33 CB         -0.8068  -20.3212  -47.4491 C.3       8 UNK        -0.1800 
     34 N           0.5926  -19.7319  -45.5364 N.am      8 UNK        -0.5000 
     35 C           1.6216  -19.7577  -44.6761 C.2       7 UNK         0.5000 
     36 O           2.4228  -20.6888  -44.6118 O.2       7 UNK        -0.5000 
     37 CA          1.7520  -18.5863  -43.6852 C.3       7 UNK         0.1400 
     38 CB          2.7403  -17.5411  -44.2231 C.3       7 UNK        -0.1800 
     39 N           0.4740  -17.9404  -43.3780 N.am      7 UNK        -0.5000 
     40 C          -0.5459  -18.5397  -42.7422 C.2       6 UNK         0.5000 
     41 O          -0.4936  -19.6941  -42.3173 O.2       6 UNK        -0.5000 
     42 CA         -1.8586  -17.7427  -42.5902 C.3       6 UNK         0.1400 
     43 CB         -1.9016  -17.0414  -41.2248 C.3       6 UNK        -0.1800 
     44 N          -2.0779  -16.7467  -43.6413 N.am      6 UNK        -0.5000 
     45 C          -2.1158  -16.9908  -44.9593 C.2       5 UNK         0.5000 
     46 O          -2.0610  -18.1198  -45.4431 O.2       5 UNK        -0.5000 
     47 CA         -2.1666  -15.7710  -45.8994 C.3       5 UNK         0.1400 
     48 CB         -3.6051  -15.5460  -46.3871 C.3       5 UNK        -0.1800 
     49 N          -1.6439  -14.5235  -45.3211 N.am      5 UNK        -0.5000 
     50 C          -0.4196  -14.3500  -44.7951 C.2       4 UNK         0.5000 
     51 O           0.4198  -15.2497  -44.7451 O.2       4 UNK        -0.5000 
     52 CA         -0.0796  -12.9673  -44.2018 C.3       4 UNK         0.1400 
     53 CB          1.3822  -12.5649  -44.4641 C.3       4 UNK        -0.1800 
     54 N          -0.9624  -11.9098  -44.6960 N.am      4 UNK        -0.5000 
     55 C          -2.0680  -11.4755  -44.0752 C.2       3 UNK         0.5000 
     56 O          -2.4738  -11.9400  -43.0096 O.2       3 UNK        -0.5000 
     57 CA         -2.8669  -10.3429  -44.7530 C.3       3 UNK         0.1400 
     58 CB         -2.5619   -8.9959  -44.0799 C.3       3 UNK        -0.1800 
     59 N          -2.6149  -10.2192  -46.1902 N.am      3 UNK        -0.5000 
     60 C          -2.9925  -11.1110  -47.1153 C.2       2 UNK         0.5000 
     61 O          -3.6244  -12.1336  -46.8497 O.2       2 UNK        -0.5000 
     62 CA         -2.5774  -10.8377  -48.5776 C.3       2 UNK         0.1400 
     63 CB         -2.0290   -9.4138  -48.8236 C.3       2 UNK        -0.1800 
     64 N          -1.6242  -11.8375  -49.0701 N.am      2 UNK        -0.5000 
     65 C          -0.4469  -12.1793  -48.5230 C.2       1 UNK         0.5000 
     66 O          -0.0000  -11.6503  -47.5035 O.2       1 UNK        -0.5000 
     67 C           3.1827  -25.2080  -47.0146 C.2       11 UNK         0.5000 
     68 O           3.6301  -25.7205  -48.0409 O.2       11 UNK        -0.5000 
     69 N           2.0891  -25.6558  -46.3767 N.am      12 UNK        -0.5000 
     70 CA          1.2192  -26.7782  -46.7489 C.3       12 UNK         0.1400 
     71 CB          1.9954  -28.1118  -46.7559 C.3       12 UNK        -0.1800 
     72 C           0.4121  -26.5420  -48.0450 C.2       12 UNK         0.5000 
     73 O          -0.0395  -27.5024  -48.6708 O.2       12 UNK        -0.5000 
     74 N           0.2109  -25.2683  -48.4044 N.am      13 UNK        -0.5000 
     75 CA         -0.6589  -24.8246  -49.4953 C.3       13 UNK         0.1400 
     76 CB         -0.0540  -23.5575  -50.1191 C.3       13 UNK        -0.1800 
     77 C          -2.1024  -24.5656  -49.0151 C.2       13 UNK         0.5000 
     78 O          -3.0080  -24.5297  -49.8477 O.2       13 UNK        -0.5000 
     79 N          -2.2712  -24.4197  -47.6906 N.am      14 UNK        -0.5000 
     80 CA         -3.4771  -24.0750  -46.9300 C.3       14 UNK         0.1400 
     81 CB         -4.6985  -24.9297  -47.3211 C.3       14 UNK        -0.1800 
     82 C          -3.7889  -22.5698  -46.9881 C.2       14 UNK         0.5000 
     83 O          -3.6232  -21.9339  -48.0274 O.2       14 UNK        -0.5000 
     84 N          -4.2289  -22.0267  -45.8489 N.am      15 UNK        -0.5000 
     85 CA         -4.6299  -20.6296  -45.6871 C.3       15 UNK         0.1400 
     86 CB         -4.3524  -20.2238  -44.2302 C.3       15 UNK        -0.1800 
     87 C          -6.1131  -20.4192  -46.0523 C.2       15 UNK         0.5000 
     88 O          -6.8234  -21.3890  -46.3258 O.2       15 UNK        -0.5000 
     89 N          -6.5487  -19.1500  -46.0118 N.am      16 UNK        -0.5000 
     90 CA         -7.9103  -18.6583  -46.2599 C.3       16 UNK         0.1400 
     91 CB         -8.9134  -19.2418  -45.2424 C.3       16 UNK        -0.1800 
     92 C          -8.3433  -18.8827  -47.7207 C.2       16 UNK         0.5000 
     93 O          -9.0159  -19.8669  -48.0311 O.2       16 UNK        -0.5000 
     94 N          -7.8979  -17.9739  -48.6002 N.am      17 UNK        -0.5000 
     95 CA         -8.1220  -17.9057  -50.0544 C.3       17 UNK         0.1400 
     96 CB         -9.6216  -17.8747  -50.4067 C.3       17 UNK        -0.1800 
     97 C          -7.3772  -18.9823  -50.8675 C.2       17 UNK         0.5000 
     98 O          -6.9019  -18.6826  -51.9633 O.2       17 UNK        -0.5000 
     99 N          -7.2227  -20.1883  -50.3040 N.am      18 UNK        -0.5000 
    100 CA        -6.4457  -21.3033  -50.8563 C.3       18 UNK         0.1400 
    101 CB        -6.6125  -22.5290  -49.9467 C.3       18 UNK        -0.1800 
    102 C         -4.9523  -20.9757  -51.0601 C.2       18 UNK         0.5000 
    103 O         -4.3138  -21.5703  -51.9272 O.2       18 UNK        -0.5000 
    104 N         -4.4463  -19.9865  -50.3096 N.am      19 UNK        -0.5000 
    105 CA        -3.0904  -19.4450  -50.3891 C.3       19 UNK         0.1400 
    106 CB        -2.9484  -18.3360  -49.3352 C.3       19 UNK        -0.1800 
    107 C         -2.7162  -18.9011  -51.7816 C.2       19 UNK         0.5000 
    108 O         -1.5395  -18.9038  -52.1352 O.2       19 UNK        -0.5000 
    109 N         -3.7163  -18.4638  -52.5598 N.am      20 UNK        -0.5000 
    110 CA        -3.5458  -17.9599  -53.9220 C.3       20 UNK         0.1400 
    111 CB        -4.8291  -17.2264  -54.3398 C.3       20 UNK        -0.1800 
    112 C         -3.1823  -19.0475  -54.9548 C.2       20 UNK         0.5000 
    113 O         -2.7525  -18.6976  -56.0552 O.2       20 UNK        -0.5000 
    114 N         -3.3512  -20.3341  -54.6068 N.am      21 UNK        -0.5000 
    115 CA        -3.1386  -21.4825  -55.4949 C.3       21 UNK         0.1400 
    116 CB        -3.5586  -22.7727  -54.7753 C.3       21 UNK        -0.1800 
    117 C         -1.7052  -21.6221  -56.0436 C.2       21 UNK         0.5000 
    118 O         -1.5374  -22.1725  -57.1330 O.2       21 UNK        -0.5000 
    119 N         -0.7074  -21.1165  -55.3055 N.am      22 UNK        -0.5000 
    120 CA         0.6911  -21.0425  -55.7578 C.3       22 UNK         0.1400 
    121 C          1.0173  -19.8149  -56.6630 C.2       22 UNK         0.5000 
    122 N          0.0829  -18.9115  -56.9396 N.am      22 UNK        -0.7600 
    123 O          2.1392  -19.6906  -57.1472 O.2       22 UNK        -0.5000 
    124 C124        1.6955  -21.2246  -54.5907 C.3       23 UNK        -0.0398 
    125 S125        1.6994  -19.8807  -53.3512 S.3       23 UNK        -0.2404 
    126 C126        1.3232  -20.7768  -51.8116 C.3       23 UNK        -0.0205 
    127 H127       -2.8764  -15.6181  -51.5478 H         1 UNK         0.0600 
    128 H128       -1.2472  -16.1975  -51.9165 H         1 UNK         0.0600 
    129 H129       -1.7507  -14.5821  -52.4279 H         1 UNK         0.0600 
    130 H130        0.0787  -13.6734  -51.2779 H         1 UNK         0.3000 
    131 H131        1.2245  -12.7255  -49.6875 H         1 UNK         0.0600 
    132 H132        1.6279  -13.7319  -47.4924 H         1 UNK         0.0800 
    133 H133        0.2225  -14.7449  -47.6368 H         1 UNK         0.0800 
    134 H134        1.2816  -17.0875  -47.2959 H         1 UNK         0.0800 
    135 H135        0.1939  -17.0162  -48.6609 H         1 UNK         0.0800 
    136 H136        0.4179  -18.5649  -50.4946 H         1 UNK         0.1150 
    137 H137        3.6075  -21.4252  -50.4820 H         1 UNK         0.1150 
    138 H138        3.5416  -18.2787  -47.5711 H         1 UNK         0.1150 
    139 H139        5.5572  -21.0319  -49.1199 H         1 UNK         0.0800 
    140 H140        5.6842  -19.5600  -48.1940 H         1 UNK         0.0800 
    141 H141        2.8395  -22.4905  -47.6320 H         1 UNK         0.0800 
    142 H142        4.2867  -23.1081  -48.3887 H         1 UNK         0.0800 
    143 H143        4.9446  -24.2575  -46.2867 H         1 UNK         0.0600 
    144 H144        2.8163  -22.7297  -45.0817 H         1 UNK         0.3000 
    145 H145        2.7327  -24.5494  -42.0279 H         1 UNK         0.0600 
    146 H146        3.0895  -22.2561  -41.1102 H         1 UNK         0.0600 
    147 H147        3.7968  -21.7399  -42.6406 H         1 UNK         0.0600 
    148 H148        4.5964  -22.9655  -41.6691 H         1 UNK         0.0600 
    149 H149        1.3853  -22.2245  -43.1294 H         1 UNK         0.3000 
    150 H150       -1.3605  -24.0434  -44.4981 H         1 UNK         0.0600 
    151 H151       -1.9442  -23.8771  -42.0881 H         1 UNK         0.0600 
    152 H152       -2.6599  -22.5552  -42.9952 H         1 UNK         0.0600 
    153 H153       -1.2304  -22.2728  -42.0023 H         1 UNK         0.0600 
    154 H154       -0.7186  -21.2404  -44.2059 H         1 UNK         0.3000 
    155 H155        1.2221  -20.9056  -47.1248 H         1 UNK         0.0600 
    156 H156       -0.9569  -21.0253  -48.2666 H         1 UNK         0.0600 
    157 H157       -0.5898  -19.3500  -47.8888 H         1 UNK         0.0600 
    158 H158       -1.7507  -20.2405  -46.9134 H         1 UNK         0.0600 
    159 H159       -0.0768  -18.9731  -45.4875 H         1 UNK         0.3000 
    160 H160        2.1557  -18.9889  -42.7540 H         1 UNK         0.0600 
    161 H161        2.3935  -17.1023  -45.1588 H         1 UNK         0.0600 
    162 H162        3.7163  -17.9893  -44.4144 H         1 UNK         0.0600 
    163 H163        2.8872  -16.7311  -43.5086 H         1 UNK         0.0600 
    164 H164        0.3525  -16.9956  -43.7300 H         1 UNK         0.3000 
    165 H165       -2.6818  -18.4563  -42.6310 H         1 UNK         0.0600 
    166 H166       -2.8604  -16.5483  -41.0637 H         1 UNK         0.0600 
    167 H167       -1.7659  -17.7574  -40.4131 H         1 UNK         0.0600 
    168 H168       -1.1166  -16.2894  -41.1343 H         1 UNK         0.0600 
    169 H169       -2.1304  -15.7845  -43.3423 H         1 UNK         0.3000 
    170 H170       -1.5485  -16.0195  -46.7629 H         1 UNK         0.0600 
    171 H171       -4.2617  -15.2275  -45.5769 H         1 UNK         0.0600 
    172 H172       -3.6393  -14.7864  -47.1677 H         1 UNK         0.0600 
    173 H173       -4.0217  -16.4589  -46.8148 H         1 UNK         0.0600 
    174 H174       -2.2656  -13.7270  -45.3492 H         1 UNK         0.3000 
    175 H175       -0.1949  -13.0639  -43.1205 H         1 UNK         0.0600 
    176 H176        1.5911  -12.4611  -45.5276 H         1 UNK         0.0600 
    177 H177        1.6175  -11.6140  -43.9859 H         1 UNK         0.0600 
    178 H178        2.0757  -13.3054  -44.0635 H         1 UNK         0.0600 
    179 H179       -0.7203  -11.5226  -45.6033 H         1 UNK         0.3000 
    180 H180       -3.9274  -10.5625  -44.6123 H         1 UNK         0.0600 
    181 H181       -3.1766   -8.1978  -44.4966 H         1 UNK         0.0600 
    182 H182       -1.5153   -8.7136  -44.2013 H         1 UNK         0.0600 
    183 H183       -2.7685   -9.0375  -43.0095 H         1 UNK         0.0600 
    184 H184       -2.0765   -9.4184  -46.4875 H         1 UNK         0.3000 
    185 H185       -3.4831  -10.9499  -49.1752 H         1 UNK         0.0600 
    186 H186       -1.8378   -9.2517  -49.8845 H         1 UNK         0.0600 
    187 H187       -2.7470   -8.6545  -48.5108 H         1 UNK         0.0600 
    188 H188       -1.0942   -9.2311  -48.2925 H         1 UNK         0.0600 
    189 H189       -1.9194  -12.3598  -49.8821 H         1 UNK         0.3000 
    190 H190        1.8003  -25.1484  -45.5515 H         1 UNK         0.3000 
    191 H191        0.4765  -26.8442  -45.9526 H         1 UNK         0.0600 
    192 H192        1.3156  -28.9591  -46.8516 H         1 UNK         0.0600 
    193 H193        2.5523  -28.2484  -45.8289 H         1 UNK         0.0600 
    194 H194        2.7016  -28.1676  -47.5845 H         1 UNK         0.0600 
    195 H195        0.5673  -24.5379  -47.7947 H         1 UNK         0.3000 
    196 H196       -0.7029  -25.5939  -50.2691 H         1 UNK         0.0600 
    197 H197       -0.6922  -23.1667  -50.9129 H         1 UNK         0.0600 
    198 H198        0.9215  -23.7682  -50.5572 H         1 UNK         0.0600 
    199 H199        0.0781  -22.7670  -49.3811 H         1 UNK         0.0600 
    200 H200       -1.4179  -24.4047  -47.1473 H         1 UNK         0.3000 
    201 H201       -3.2368  -24.3209  -45.8954 H         1 UNK         0.0600 
    202 H202       -5.0738  -24.6785  -48.3130 H         1 UNK         0.0600 
    203 H203       -5.5197  -24.7707  -46.6214 H         1 UNK         0.0600 
    204 H204       -4.4596  -25.9930  -47.3086 H         1 UNK         0.0600 
    205 H205       -4.4043  -22.6265  -45.0570 H         1 UNK         0.3000 
    206 H206       -4.0300  -19.9963  -46.3431 H         1 UNK         0.0600 
    207 H207       -3.3006  -20.3684  -43.9830 H         1 UNK         0.0600 
    208 H208       -4.5778  -19.1708  -44.0597 H         1 UNK         0.0600 
    209 H209       -4.9474  -20.8070  -43.5264 H         1 UNK         0.0600 
    210 H210       -5.8770  -18.4329  -45.7786 H         1 UNK         0.3000 
    211 H211       -7.8841  -17.5802  -46.0931 H         1 UNK         0.0600 
    212 H212       -9.0244  -20.3218  -45.3415 H         1 UNK         0.0600 
    213 H213       -9.9020  -18.8024  -45.3800 H         1 UNK         0.0600 
    214 H214       -8.6032  -19.0306  -44.2191 H         1 UNK         0.0600 
    215 H215       -7.3212  -17.2277  -48.2370 H         1 UNK         0.3000 
    216 H216       -7.7012  -16.9478  -50.3646 H         1 UNK         0.0600 
    217 H217       -9.7641  -17.6850  -51.4712 H         1 UNK         0.0600 
    218 H218      -10.1386  -17.0834  -49.8638 H         1 UNK         0.0600 
    219 H219      -10.1171  -18.8187  -50.1790 H         1 UNK         0.0600 
    220 H220       -7.6901  -20.3489  -49.4171 H         1 UNK         0.3000 
    221 H221       -6.8613  -21.5436  -51.8368 H         1 UNK         0.0600 
    222 H222       -6.0408  -23.3777  -50.3250 H         1 UNK         0.0600 
    223 H223       -7.6559  -22.8380  -49.8857 H         1 UNK         0.0600 
    224 H224       -6.2637  -22.3252  -48.9340 H         1 UNK         0.0600 
    225 H225       -5.0520  -19.5760  -49.6170 H         1 UNK         0.3000 
    226 H226       -2.3960  -20.2525  -50.1493 H         1 UNK         0.0600 
    227 H227       -3.1410  -18.7122  -48.3308 H         1 UNK         0.0600 
    228 H228       -1.9399  -17.9230  -49.3391 H         1 UNK         0.0600 
    229 H229       -3.6365  -17.5104  -49.5215 H         1 UNK         0.0600 
    230 H230       -4.6671  -18.5239  -52.2158 H         1 UNK         0.3000 
    231 H231       -2.7285  -17.2359  -53.9165 H         1 UNK         0.0600 
    232 H232       -4.7233  -16.7845  -55.3315 H         1 UNK         0.0600 
    233 H233       -5.0650  -16.4176  -53.6479 H         1 UNK         0.0600 
    234 H234       -5.6848  -17.9019  -54.3708 H         1 UNK         0.0600 
    235 H235       -3.6846  -20.5487  -53.6733 H         1 UNK         0.3000 
    236 H236       -3.7976  -21.3484  -56.3550 H         1 UNK         0.0600 
    237 H237       -2.9514  -22.9516  -53.8869 H         1 UNK         0.0600 
    238 H238       -4.6031  -22.7309  -54.4662 H         1 UNK         0.0600 
    239 H239       -3.4490  -23.6399  -55.4277 H         1 UNK         0.0600 
    240 H240       -0.9236  -20.6520  -54.4344 H         1 UNK         0.3000 
    241 H241        0.8624  -21.9003  -56.4109 H         1 UNK         0.0600 
    242 H242        0.3156  -18.1325  -57.5346 H         1 UNK         0.3800 
    243 H243       -0.8598  -18.9918  -56.5733 H         1 UNK         0.3800 
    244 H244        2.7096  -21.3140  -54.9837 H         1 UNK         0.0800 
    245 H245        1.4957  -22.1782  -54.1013 H         1 UNK         0.0800 
    246 H246        0.2425  -20.8559  -51.6893 H         1 UNK         0.0800 
    247 H247        1.7037  -21.7968  -51.8712 H         1 UNK         0.0800 
@<TRIPOS>BOND
     1    1    2 1    
     2    1  127 1    
     3    1  128 1    
     4    1  129 1    
     5    2    3 2    
     6    2    4 am   BACKBONE|DICT|INTERRES
     7    4    5 1    
     8    4  130 1    
     9    5    6 1    
    10    5   65 1    
    11    5  131 1    
    12    6    7 1    
    13    6  132 1    
    14    6  133 1    
    15    7    8 1    
    16    8    9 1    
    17    8  134 1    
    18    8  135 1    
    19    9   10 ar   
    20    9   14 ar   
    21   10   11 ar   
    22   10  136 1    
    23   11   12 ar   
    24   11  126 1    
    25   12   13 ar   
    26   12  137 1    
    27   13   14 ar   
    28   13   15 1    
    29   14  138 1    
    30   15   16 1    
    31   15  139 1    
    32   15  140 1    
    33   16   17 1    
    34   17   18 1    
    35   17  141 1    
    36   17  142 1    
    37   18   19 1    
    38   18   67 1    
    39   18  143 1    
    40   19   20 am   BACKBONE|DICT|INTERRES
    41   19  144 1    
    42   20   21 2    
    43   20   22 1    
    44   22   23 1    
    45   22   24 1    
    46   22  145 1    
    47   23  146 1    
    48   23  147 1    
    49   23  148 1    
    50   24   25 am   BACKBONE|DICT|INTERRES
    51   24  149 1    
    52   25   26 2    
    53   25   27 1    
    54   27   28 1    
    55   27   29 1    
    56   27  150 1    
    57   28  151 1    
    58   28  152 1    
    59   28  153 1    
    60   29   30 am   BACKBONE|DICT|INTERRES
    61   29  154 1    
    62   30   31 2    
    63   30   32 1    
    64   32   33 1    
    65   32   34 1    
    66   32  155 1    
    67   33  156 1    
    68   33  157 1    
    69   33  158 1    
    70   34   35 am   BACKBONE|DICT|INTERRES
    71   34  159 1    
    72   35   36 2    
    73   35   37 1    
    74   37   38 1    
    75   37   39 1    
    76   37  160 1    
    77   38  161 1    
    78   38  162 1    
    79   38  163 1    
    80   39   40 am   BACKBONE|DICT|INTERRES
    81   39  164 1    
    82   40   41 2    
    83   40   42 1    
    84   42   43 1    
    85   42   44 1    
    86   42  165 1    
    87   43  166 1    
    88   43  167 1    
    89   43  168 1    
    90   44   45 am   BACKBONE|DICT|INTERRES
    91   44  169 1    
    92   45   46 2    
    93   45   47 1    
    94   47   48 1    
    95   47   49 1    
    96   47  170 1    
    97   48  171 1    
    98   48  172 1    
    99   48  173 1    
   100   49   50 am   BACKBONE|DICT|INTERRES
   101   49  174 1    
   102   50   51 2    
   103   50   52 1    
   104   52   53 1    
   105   52   54 1    
   106   52  175 1    
   107   53  176 1    
   108   53  177 1    
   109   53  178 1    
   110   54   55 am   BACKBONE|DICT|INTERRES
   111   54  179 1    
   112   55   56 2    
   113   55   57 1    
   114   57   58 1    
   115   57   59 1    
   116   57  180 1    
   117   58  181 1    
   118   58  182 1    
   119   58  183 1    
   120   59   60 am   BACKBONE|DICT|INTERRES
   121   59  184 1    
   122   60   61 2    
   123   60   62 1    
   124   62   63 1    
   125   62   64 1    
   126   62  185 1    
   127   63  186 1    
   128   63  187 1    
   129   63  188 1    
   130   64   65 am   BACKBONE|DICT|INTERRES
   131   64  189 1    
   132   65   66 2    
   133   67   68 2    
   134   67   69 am   BACKBONE|DICT|INTERRES
   135   69   70 1    
   136   69  190 1    
   137   70   71 1    
   138   70   72 1    
   139   70  191 1    
   140   71  192 1    
   141   71  193 1    
   142   71  194 1    
   143   72   73 2    
   144   72   74 am   BACKBONE|DICT|INTERRES
   145   74   75 1    
   146   74  195 1    
   147   75   76 1    
   148   75   77 1    
   149   75  196 1    
   150   76  197 1    
   151   76  198 1    
   152   76  199 1    
   153   77   78 2    
   154   77   79 am   BACKBONE|DICT|INTERRES
   155   79   80 1    
   156   79  200 1    
   157   80   81 1    
   158   80   82 1    
   159   80  201 1    
   160   81  202 1    
   161   81  203 1    
   162   81  204 1    
   163   82   83 2    
   164   82   84 am   BACKBONE|DICT|INTERRES
   165   84   85 1    
   166   84  205 1    
   167   85   86 1    
   168   85   87 1    
   169   85  206 1    
   170   86  207 1    
   171   86  208 1    
   172   86  209 1    
   173   87   88 2    
   174   87   89 am   BACKBONE|DICT|INTERRES
   175   89   90 1    
   176   89  210 1    
   177   90   91 1    
   178   90   92 1    
   179   90  211 1    
   180   91  212 1    
   181   91  213 1    
   182   91  214 1    
   183   92   93 2    
   184   92   94 am   BACKBONE|DICT|INTERRES
   185   94   95 1    
   186   94  215 1    
   187   95   96 1    
   188   95   97 1    
   189   95  216 1    
   190   96  217 1    
   191   96  218 1    
   192   96  219 1    
   193   97   98 2    
   194   97   99 am   BACKBONE|DICT|INTERRES
   195   99  100 1    
   196   99  220 1    
   197  100  101 1    
   198  100  102 1    
   199  100  221 1    
   200  101  222 1    
   201  101  223 1    
   202  101  224 1    
   203  102  103 2    
   204  102  104 am   BACKBONE|DICT|INTERRES
   205  104  105 1    
   206  104  225 1    
   207  105  106 1    
   208  105  107 1    
   209  105  226 1    
   210  106  227 1    
   211  106  228 1    
   212  106  229 1    
   213  107  108 2    
   214  107  109 am   BACKBONE|DICT|INTERRES
   215  109  110 1    
   216  109  230 1    
   217  110  111 1    
   218  110  112 1    
   219  110  231 1    
   220  111  232 1    
   221  111  233 1    
   222  111  234 1    
   223  112  113 2    
   224  112  114 am   BACKBONE|DICT|INTERRES
   225  114  115 1    
   226  114  235 1    
   227  115  116 1    
   228  115  117 1    
   229  115  236 1    
   230  116  237 1    
   231  116  238 1    
   232  116  239 1    
   233  117  118 2    
   234  117  119 am   BACKBONE|DICT|INTERRES
   235  119  120 1    
   236  119  240 1    
   237  120  121 1    
   238  120  124 1    
   239  120  241 1    
   240  121  122 am   BACKBONE|DICT|INTERRES
   241  121  123 2    
   242  122  242 1    
   243  122  243 1    
   244  124  125 1    
   245  124  244 1    
   246  124  245 1    
   247  125  126 1    
   248  126  246 1    
   249  126  247 1    
@<TRIPOS>SUBSTRUCTURE
     1 UNK         1 GROUP             0       ****    0 ROOT    
