@<TRIPOS>MOLECULE
3R540
247   249    1
SMALL
USER_CHARGES


@<TRIPOS>ATOM
      1 CA          1.1150  -11.8693  -50.4460 C.3       0 UNK        -0.1800 
      2 C           0.8096  -11.7309  -48.9611 C.2       0 UNK         0.5000 
      3 O           0.4830  -10.6364  -48.5021 O.2       0 UNK        -0.5000 
      4 N           0.9164  -12.8415  -48.2204 N.am      1 UNK        -0.5000 
      5 CA          0.6186  -12.9787  -46.7882 C.3       1 UNK         0.1400 
      6 C6         -0.8836  -12.7965  -46.4350 C.3       23 UNK        -0.0398 
      7 S7         -2.0733  -13.7718  -47.4220 S.3       23 UNK        -0.2404 
      8 C8         -1.3955  -15.4636  -47.4034 C.3       23 UNK        -0.0205 
      9 C9         -0.6673  -15.8031  -48.6975 C.ar      23 UNK        -0.0193 
     10 C10        -1.3850  -15.8661  -49.8953 C.ar      23 UNK        -0.1150 
     11 C11        -0.7508  -16.2054  -51.0923 C.ar      23 UNK        -0.0193 
     12 C12         0.6192  -16.4736  -51.0895 C.ar      23 UNK        -0.1150 
     13 C13         1.3521  -16.4202  -49.9001 C.ar      23 UNK        -0.0193 
     14 C14         0.7030  -16.0850  -48.7058 C.ar      23 UNK        -0.1150 
     15 C15         2.8436  -16.7355  -49.9202 C.3       23 UNK        -0.0205 
     16 S16         3.3029  -18.1663  -48.8865 S.3       23 UNK        -0.2404 
     17 C17         1.9768  -19.3676  -49.2593 C.3       23 UNK        -0.0398 
     18 CA          2.3123  -20.8125  -48.8119 C.3       11 UNK         0.1400 
     19 N           2.6400  -20.8847  -47.3818 N.am      11 UNK        -0.5000 
     20 C           3.3765  -21.8436  -46.8075 C.2       10 UNK         0.5000 
     21 O           3.8827  -22.7794  -47.4276 O.2       10 UNK        -0.5000 
     22 CA          3.5604  -21.7557  -45.2808 C.3       10 UNK         0.1400 
     23 CB          4.6513  -20.7333  -44.9292 C.3       10 UNK        -0.1800 
     24 N           2.3288  -21.4309  -44.5536 N.am      10 UNK        -0.5000 
     25 C           1.2469  -22.2219  -44.4889 C.2       9 UNK         0.5000 
     26 O           1.1489  -23.2947  -45.0843 O.2       9 UNK        -0.5000 
     27 CA          0.0660  -21.7269  -43.6320 C.3       9 UNK         0.1400 
     28 CB          0.3616  -21.8887  -42.1333 C.3       9 UNK        -0.1800 
     29 N          -0.2764  -20.3362  -43.9162 N.am      9 UNK        -0.5000 
     30 C          -0.8274  -19.9181  -45.0625 C.2       8 UNK         0.5000 
     31 O          -1.2048  -20.6769  -45.9547 O.2       8 UNK        -0.5000 
     32 CA         -0.9385  -18.3962  -45.2697 C.3       8 UNK         0.1400 
     33 CB         -2.2491  -17.8602  -44.6772 C.3       8 UNK        -0.1800 
     34 N           0.2031  -17.6556  -44.7258 N.am      8 UNK        -0.5000 
     35 C           1.4659  -17.8284  -45.1422 C.2       7 UNK         0.5000 
     36 O           1.7799  -18.6030  -46.0405 O.2       7 UNK        -0.5000 
     37 CA          2.5705  -17.0623  -44.4006 C.3       7 UNK         0.1400 
     38 CB          2.7220  -15.6350  -44.9408 C.3       7 UNK        -0.1800 
     39 N           2.3399  -17.0436  -42.9578 N.am      7 UNK        -0.5000 
     40 C           2.4580  -18.1251  -42.1740 C.2       6 UNK         0.5000 
     41 O           2.8424  -19.2231  -42.5763 O.2       6 UNK        -0.5000 
     42 CA          2.0092  -17.9665  -40.7119 C.3       6 UNK         0.1400 
     43 CB          3.1395  -17.3879  -39.8486 C.3       6 UNK        -0.1800 
     44 N           0.8120  -17.1306  -40.5991 N.am      6 UNK        -0.5000 
     45 C          -0.4014  -17.5180  -41.0207 C.2       5 UNK         0.5000 
     46 O          -0.6270  -18.6246  -41.5104 O.2       5 UNK        -0.5000 
     47 CA         -1.5500  -16.4975  -40.9151 C.3       5 UNK         0.1400 
     48 CB         -2.2796  -16.6493  -39.5724 C.3       5 UNK        -0.1800 
     49 N          -1.1264  -15.1062  -41.0766 N.am      5 UNK        -0.5000 
     50 C          -0.5642  -14.5870  -42.1762 C.2       4 UNK         0.5000 
     51 O          -0.3182  -15.2429  -43.1907 O.2       4 UNK        -0.5000 
     52 CA         -0.1853  -13.0912  -42.1381 C.3       4 UNK         0.1400 
     53 CB         -0.6123  -12.3585  -40.8460 C.3       4 UNK        -0.1800 
     54 N           1.2435  -12.8809  -42.3868 N.am      4 UNK        -0.5000 
     55 C           2.2710  -13.4121  -41.7053 C.2       3 UNK         0.5000 
     56 O           2.1275  -14.2021  -40.7709 O.2       3 UNK        -0.5000 
     57 CA          3.6910  -13.0102  -42.1537 C.3       3 UNK         0.1400 
     58 CB          4.7227  -14.1240  -41.8953 C.3       3 UNK        -0.1800 
     59 N           3.7128  -12.6500  -43.5735 N.am      3 UNK        -0.5000 
     60 C           4.0333  -11.4490  -44.0698 C.2       2 UNK         0.5000 
     61 O           4.4200  -10.5024  -43.3837 O.2       2 UNK        -0.5000 
     62 CA          3.8746  -11.2629  -45.5943 C.3       2 UNK         0.1400 
     63 CB          5.2139  -11.5136  -46.3039 C.3       2 UNK        -0.1800 
     64 N           2.8426  -12.0987  -46.2234 N.am      2 UNK        -0.5000 
     65 C           1.5382  -12.1001  -45.9084 C.2       1 UNK         0.5000 
     66 O           1.0690  -11.4568  -44.9679 O.2       1 UNK        -0.5000 
     67 C           1.1524  -21.7626  -49.1884 C.2       11 UNK         0.5000 
     68 O           0.8756  -21.9305  -50.3760 O.2       11 UNK        -0.5000 
     69 N           0.4838  -22.3374  -48.1761 N.am      12 UNK        -0.5000 
     70 CA         -0.6839  -23.2209  -48.2435 C.3       12 UNK         0.1400 
     71 CB         -0.3598  -24.5247  -48.9986 C.3       12 UNK        -0.1800 
     72 C          -1.9635  -22.5267  -48.7548 C.2       12 UNK         0.5000 
     73 O          -2.9315  -23.2016  -49.0980 O.2       12 UNK        -0.5000 
     74 N          -1.9911  -21.1886  -48.7148 N.am      13 UNK        -0.5000 
     75 CA         -3.1521  -20.3544  -49.0285 C.3       13 UNK         0.1400 
     76 CB         -2.7149  -18.8854  -49.0392 C.3       13 UNK        -0.1800 
     77 C          -4.3327  -20.5621  -48.0565 C.2       13 UNK         0.5000 
     78 O          -5.4725  -20.2654  -48.4112 O.2       13 UNK        -0.5000 
     79 N          -4.0410  -21.0837  -46.8578 N.am      14 UNK        -0.5000 
     80 CA         -5.0188  -21.5007  -45.8552 C.3       14 UNK         0.1400 
     81 CB         -4.3035  -21.5930  -44.4970 C.3       14 UNK        -0.1800 
     82 C          -5.7286  -22.8344  -46.1860 C.2       14 UNK         0.5000 
     83 O          -6.7313  -23.1448  -45.5405 O.2       14 UNK        -0.5000 
     84 N          -5.2034  -23.6156  -47.1430 N.am      15 UNK        -0.5000 
     85 CA         -5.7511  -24.9125  -47.5521 C.3       15 UNK         0.1400 
     86 CB         -4.6358  -25.7342  -48.2225 C.3       15 UNK        -0.1800 
     87 C          -6.9658  -24.7748  -48.4932 C.2       15 UNK         0.5000 
     88 O          -7.3278  -23.6670  -48.8990 O.2       15 UNK        -0.5000 
     89 N          -7.5627  -25.9218  -48.8492 N.am      16 UNK        -0.5000 
     90 CA         -8.6525  -26.0448  -49.8212 C.3       16 UNK         0.1400 
     91 CB         -9.0773  -27.5173  -49.9215 C.3       16 UNK        -0.1800 
     92 C          -8.2466  -25.5019  -51.2047 C.2       16 UNK         0.5000 
     93 O          -7.1508  -25.8096  -51.6822 O.2       16 UNK        -0.5000 
     94 N          -9.1106  -24.6562  -51.7869 N.am      17 UNK        -0.5000 
     95 CA         -8.9014  -23.8917  -53.0281 C.3       17 UNK         0.1400 
     96 CB         -8.8716  -24.8382  -54.2467 C.3       17 UNK        -0.1800 
     97 C          -7.6654  -22.9621  -52.9825 C.2       17 UNK         0.5000 
     98 O          -7.1121  -22.6212  -54.0309 O.2       17 UNK        -0.5000 
     99 N          -7.2212  -22.6162  -51.7633 N.am      18 UNK        -0.5000 
    100 CA        -5.9720  -21.9287  -51.4343 C.3       18 UNK         0.1400 
    101 CB        -6.0415  -20.4484  -51.8674 C.3       18 UNK        -0.1800 
    102 C         -4.7244  -22.6621  -51.9701 C.2       18 UNK         0.5000 
    103 O         -3.7616  -22.0013  -52.3502 O.2       18 UNK        -0.5000 
    104 N         -4.7808  -24.0033  -52.0408 N.am      19 UNK        -0.5000 
    105 CA        -3.7958  -24.8860  -52.6768 C.3       19 UNK         0.1400 
    106 CB        -2.4694  -24.9078  -51.8929 C.3       19 UNK        -0.1800 
    107 C         -3.6114  -24.5476  -54.1700 C.2       19 UNK         0.5000 
    108 O         -2.4930  -24.2953  -54.6237 O.2       19 UNK        -0.5000 
    109 N         -4.7432  -24.5117  -54.8887 N.am      20 UNK        -0.5000 
    110 CA        -4.8841  -24.1516  -56.3026 C.3       20 UNK         0.1400 
    111 CB        -4.2374  -25.2233  -57.2052 C.3       20 UNK        -0.1800 
    112 C         -4.3784  -22.7229  -56.5901 C.2       20 UNK         0.5000 
    113 O         -3.5642  -22.5222  -57.4932 O.2       20 UNK        -0.5000 
    114 N         -4.8765  -21.7649  -55.7947 N.am      21 UNK        -0.5000 
    115 CA        -4.5450  -20.3370  -55.8204 C.3       21 UNK         0.1400 
    116 CB        -5.0413  -19.6813  -57.1267 C.3       21 UNK        -0.1800 
    117 C         -3.0545  -20.0614  -55.5257 C.2       21 UNK         0.5000 
    118 O         -2.3664  -19.4231  -56.3254 O.2       21 UNK        -0.5000 
    119 N         -2.6013  -20.5332  -54.3589 N.am      22 UNK        -0.5000 
    120 CA        -1.2722  -20.3058  -53.7695 C.3       22 UNK         0.1400 
    121 C         -0.1241  -21.0592  -54.5042 C.2       22 UNK         0.5000 
    122 N         -0.3671  -22.2443  -55.0520 N.am      22 UNK        -0.7600 
    123 O          1.0050  -20.5800  -54.5755 O.2       22 UNK        -0.5000 
    124 C124       -0.9586  -18.8022  -53.5078 C.3       23 UNK        -0.0398 
    125 S125       -2.2929  -17.9258  -52.6162 S.3       23 UNK        -0.2404 
    126 C126       -1.5525  -16.2800  -52.3820 C.3       23 UNK        -0.0205 
    127 H127        1.3398  -12.9010  -50.7195 H         1 UNK         0.0600 
    128 H128        1.9718  -11.2508  -50.7129 H         1 UNK         0.0600 
    129 H129        0.2590  -11.5427  -51.0364 H         1 UNK         0.0600 
    130 H130        1.1578  -13.7034  -48.6892 H         1 UNK         0.3000 
    131 H131        0.8868  -14.0014  -46.5330 H         1 UNK         0.0600 
    132 H132       -1.1677  -11.7474  -46.5343 H         1 UNK         0.0800 
    133 H133       -1.0521  -13.0546  -45.3883 H         1 UNK         0.0800 
    134 H134       -0.7587  -15.6094  -46.5308 H         1 UNK         0.0800 
    135 H135       -2.2280  -16.1579  -47.2867 H         1 UNK         0.0800 
    136 H136       -2.4464  -15.6613  -49.8923 H         1 UNK         0.1150 
    137 H137        1.1127  -16.7333  -52.0153 H         1 UNK         0.1150 
    138 H138        1.2650  -16.0674  -47.7842 H         1 UNK         0.1150 
    139 H139        3.1813  -16.9284  -50.9396 H         1 UNK         0.0800 
    140 H140        3.3975  -15.8610  -49.5769 H         1 UNK         0.0800 
    141 H141        1.0623  -19.0249  -48.7714 H         1 UNK         0.0800 
    142 H142        1.7844  -19.3380  -50.3336 H         1 UNK         0.0800 
    143 H143        3.1856  -21.1402  -49.3798 H         1 UNK         0.0600 
    144 H144        2.3020  -20.1092  -46.8112 H         1 UNK         0.3000 
    145 H145        3.8961  -22.7353  -44.9343 H         1 UNK         0.0600 
    146 H146        4.8495  -20.7194  -43.8574 H         1 UNK         0.0600 
    147 H147        4.3680  -19.7252  -45.2319 H         1 UNK         0.0600 
    148 H148        5.5895  -20.9745  -45.4303 H         1 UNK         0.0600 
    149 H149        2.3399  -20.5718  -44.0134 H         1 UNK         0.3000 
    150 H150       -0.8021  -22.3453  -43.8708 H         1 UNK         0.0600 
    151 H151        1.2036  -21.2728  -41.8168 H         1 UNK         0.0600 
    152 H152       -0.5017  -21.6057  -41.5306 H         1 UNK         0.0600 
    153 H153        0.6023  -22.9247  -41.8922 H         1 UNK         0.0600 
    154 H154       -0.0655  -19.6532  -43.1968 H         1 UNK         0.3000 
    155 H155       -0.9482  -18.2157  -46.3451 H         1 UNK         0.0600 
    156 H156       -3.1094  -18.2926  -45.1899 H         1 UNK         0.0600 
    157 H157       -2.3207  -16.7769  -44.7746 H         1 UNK         0.0600 
    158 H158       -2.3420  -18.1089  -43.6206 H         1 UNK         0.0600 
    159 H159        0.0103  -16.9589  -44.0119 H         1 UNK         0.3000 
    160 H160        3.5105  -17.5841  -44.5903 H         1 UNK         0.0600 
    161 H161        1.8919  -14.9984  -44.6377 H         1 UNK         0.0600 
    162 H162        2.7716  -15.6319  -46.0300 H         1 UNK         0.0600 
    163 H163        3.6496  -15.1901  -44.5866 H         1 UNK         0.0600 
    164 H164        1.9521  -16.2008  -42.5587 H         1 UNK         0.3000 
    165 H165        1.7688  -18.9604  -40.3279 H         1 UNK         0.0600 
    166 H166        2.8329  -17.2952  -38.8067 H         1 UNK         0.0600 
    167 H167        4.0164  -18.0361  -39.8733 H         1 UNK         0.0600 
    168 H168        3.4532  -16.4038  -40.1950 H         1 UNK         0.0600 
    169 H169        0.9395  -16.1877  -40.2539 H         1 UNK         0.3000 
    170 H170       -2.2610  -16.7179  -41.7129 H         1 UNK         0.0600 
    171 H171       -2.6319  -17.6723  -39.4329 H         1 UNK         0.0600 
    172 H172       -1.6286  -16.4085  -38.7310 H         1 UNK         0.0600 
    173 H173       -3.1518  -15.9974  -39.5207 H         1 UNK         0.0600 
    174 H174       -1.2675  -14.4993  -40.2824 H         1 UNK         0.3000 
    175 H175       -0.7152  -12.6250  -42.9693 H         1 UNK         0.0600 
    176 H176       -0.1163  -12.7581  -39.9607 H         1 UNK         0.0600 
    177 H177       -0.3680  -11.2978  -40.9057 H         1 UNK         0.0600 
    178 H178       -1.6896  -12.4261  -40.6889 H         1 UNK         0.0600 
    179 H179        1.4494  -12.2631  -43.1652 H         1 UNK         0.3000 
    180 H180        3.9692  -12.1510  -41.5406 H         1 UNK         0.0600 
    181 H181        4.8166  -14.3286  -40.8282 H         1 UNK         0.0600 
    182 H182        5.7108  -13.8363  -42.2545 H         1 UNK         0.0600 
    183 H183        4.4476  -15.0587  -42.3830 H         1 UNK         0.0600 
    184 H184        3.4032  -13.3591  -44.2207 H         1 UNK         0.3000 
    185 H185        3.5915  -10.2216  -45.7612 H         1 UNK         0.0600 
    186 H186        6.0033  -10.8891  -45.8833 H         1 UNK         0.0600 
    187 H187        5.5312  -12.5527  -46.2077 H         1 UNK         0.0600 
    188 H188        5.1486  -11.2783  -47.3664 H         1 UNK         0.0600 
    189 H189        3.1388  -12.6421  -47.0211 H         1 UNK         0.3000 
    190 H190        0.7994  -22.1259  -47.2387 H         1 UNK         0.3000 
    191 H191       -0.8985  -23.4940  -47.2094 H         1 UNK         0.0600 
    192 H192       -1.1745  -25.2432  -48.9033 H         1 UNK         0.0600 
    193 H193        0.5361  -24.9986  -48.5977 H         1 UNK         0.0600 
    194 H194       -0.1998  -24.3493  -50.0623 H         1 UNK         0.0600 
    195 H195       -1.1894  -20.7206  -48.3184 H         1 UNK         0.3000 
    196 H196       -3.4867  -20.6210  -50.0308 H         1 UNK         0.0600 
    197 H197       -3.5146  -18.2439  -49.4114 H         1 UNK         0.0600 
    198 H198       -1.8502  -18.7364  -49.6859 H         1 UNK         0.0600 
    199 H199       -2.4531  -18.5376  -48.0415 H         1 UNK         0.0600 
    200 H200       -3.0634  -21.2324  -46.6305 H         1 UNK         0.3000 
    201 H201       -5.7901  -20.7312  -45.7830 H         1 UNK         0.0600 
    202 H202       -4.9961  -21.8834  -43.7061 H         1 UNK         0.0600 
    203 H203       -3.8722  -20.6334  -44.2115 H         1 UNK         0.0600 
    204 H204       -3.4984  -22.3286  -44.5166 H         1 UNK         0.0600 
    205 H205       -4.4123  -23.2801  -47.6810 H         1 UNK         0.3000 
    206 H206       -6.0772  -25.4469  -46.6574 H         1 UNK         0.0600 
    207 H207       -4.3981  -25.3503  -49.2148 H         1 UNK         0.0600 
    208 H208       -3.7205  -25.7252  -47.6303 H         1 UNK         0.0600 
    209 H209       -4.9300  -26.7771  -48.3428 H         1 UNK         0.0600 
    210 H210       -7.1904  -26.7901  -48.4941 H         1 UNK         0.3000 
    211 H211       -9.4981  -25.4656  -49.4446 H         1 UNK         0.0600 
    212 H212       -8.2582  -28.1494  -50.2672 H         1 UNK         0.0600 
    213 H213       -9.9035  -27.6381  -50.6234 H         1 UNK         0.0600 
    214 H214       -9.4130  -27.8989  -48.9571 H         1 UNK         0.0600 
    215 H215       -9.9770  -24.4572  -51.3053 H         1 UNK         0.3000 
    216 H216       -9.7666  -23.2366  -53.1373 H         1 UNK         0.0600 
    217 H217       -9.7548  -25.4766  -54.2705 H         1 UNK         0.0600 
    218 H218       -7.9928  -25.4833  -54.2395 H         1 UNK         0.0600 
    219 H219       -8.8560  -24.2759  -55.1811 H         1 UNK         0.0600 
    220 H220       -7.7215  -22.9730  -50.9576 H         1 UNK         0.3000 
    221 H221       -5.8837  -21.9571  -50.3495 H         1 UNK         0.0600 
    222 H222       -5.1475  -19.9006  -51.5688 H         1 UNK         0.0600 
    223 H223       -6.1416  -20.3462  -52.9469 H         1 UNK         0.0600 
    224 H224       -6.8916  -19.9476  -51.4046 H         1 UNK         0.0600 
    225 H225       -5.6324  -24.4641  -51.7363 H         1 UNK         0.3000 
    226 H226       -4.2138  -25.8929  -52.6386 H         1 UNK         0.0600 
    227 H227       -2.6309  -25.2396  -50.8688 H         1 UNK         0.0600 
    228 H228       -1.7570  -25.5979  -52.3457 H         1 UNK         0.0600 
    229 H229       -1.9965  -23.9258  -51.8584 H         1 UNK         0.0600 
    230 H230       -5.6118  -24.6684  -54.3974 H         1 UNK         0.3000 
    231 H231       -5.9545  -24.1461  -56.5139 H         1 UNK         0.0600 
    232 H232       -4.4312  -25.0141  -58.2578 H         1 UNK         0.0600 
    233 H233       -4.6407  -26.2132  -56.9920 H         1 UNK         0.0600 
    234 H234       -3.1557  -25.2669  -57.0750 H         1 UNK         0.0600 
    235 H235       -5.5538  -22.0461  -55.0902 H         1 UNK         0.3000 
    236 H236       -5.1032  -19.8795  -55.0034 H         1 UNK         0.0600 
    237 H237       -6.1061  -19.8594  -57.2766 H         1 UNK         0.0600 
    238 H238       -4.8942  -18.6011  -57.0986 H         1 UNK         0.0600 
    239 H239       -4.5114  -20.0589  -58.0015 H         1 UNK         0.0600 
    240 H240       -3.2201  -21.0800  -53.7622 H         1 UNK         0.3000 
    241 H241       -1.3153  -20.7806  -52.7883 H         1 UNK         0.0600 
    242 H242       -1.2695  -22.6988  -54.9568 H         1 UNK         0.3800 
    243 H243        0.3785  -22.7281  -55.5252 H         1 UNK         0.3800 
    244 H244       -0.7705  -18.2829  -54.4485 H         1 UNK         0.0800 
    245 H245       -0.0442  -18.7142  -52.9199 H         1 UNK         0.0800 
    246 H246       -2.3525  -15.5386  -52.3566 H         1 UNK         0.0800 
    247 H247       -0.9293  -16.0217  -53.2394 H         1 UNK         0.0800 
@<TRIPOS>BOND
     1    1    2 1    
     2    1  127 1    
     3    1  128 1    
     4    1  129 1    
     5    2    3 2    
     6    2    4 am   BACKBONE|DICT|INTERRES
     7    4    5 1    
     8    4  130 1    
     9    5    6 1    
    10    5   65 1    
    11    5  131 1    
    12    6    7 1    
    13    6  132 1    
    14    6  133 1    
    15    7    8 1    
    16    8    9 1    
    17    8  134 1    
    18    8  135 1    
    19    9   10 ar   
    20    9   14 ar   
    21   10   11 ar   
    22   10  136 1    
    23   11   12 ar   
    24   11  126 1    
    25   12   13 ar   
    26   12  137 1    
    27   13   14 ar   
    28   13   15 1    
    29   14  138 1    
    30   15   16 1    
    31   15  139 1    
    32   15  140 1    
    33   16   17 1    
    34   17   18 1    
    35   17  141 1    
    36   17  142 1    
    37   18   19 1    
    38   18   67 1    
    39   18  143 1    
    40   19   20 am   BACKBONE|DICT|INTERRES
    41   19  144 1    
    42   20   21 2    
    43   20   22 1    
    44   22   23 1    
    45   22   24 1    
    46   22  145 1    
    47   23  146 1    
    48   23  147 1    
    49   23  148 1    
    50   24   25 am   BACKBONE|DICT|INTERRES
    51   24  149 1    
    52   25   26 2    
    53   25   27 1    
    54   27   28 1    
    55   27   29 1    
    56   27  150 1    
    57   28  151 1    
    58   28  152 1    
    59   28  153 1    
    60   29   30 am   BACKBONE|DICT|INTERRES
    61   29  154 1    
    62   30   31 2    
    63   30   32 1    
    64   32   33 1    
    65   32   34 1    
    66   32  155 1    
    67   33  156 1    
    68   33  157 1    
    69   33  158 1    
    70   34   35 am   BACKBONE|DICT|INTERRES
    71   34  159 1    
    72   35   36 2    
    73   35   37 1    
    74   37   38 1    
    75   37   39 1    
    76   37  160 1    
    77   38  161 1    
    78   38  162 1    
    79   38  163 1    
    80   39   40 am   BACKBONE|DICT|INTERRES
    81   39  164 1    
    82   40   41 2    
    83   40   42 1    
    84   42   43 1    
    85   42   44 1    
    86   42  165 1    
    87   43  166 1    
    88   43  167 1    
    89   43  168 1    
    90   44   45 am   BACKBONE|DICT|INTERRES
    91   44  169 1    
    92   45   46 2    
    93   45   47 1    
    94   47   48 1    
    95   47   49 1    
    96   47  170 1    
    97   48  171 1    
    98   48  172 1    
    99   48  173 1    
   100   49   50 am   BACKBONE|DICT|INTERRES
   101   49  174 1    
   102   50   51 2    
   103   50   52 1    
   104   52   53 1    
   105   52   54 1    
   106   52  175 1    
   107   53  176 1    
   108   53  177 1    
   109   53  178 1    
   110   54   55 am   BACKBONE|DICT|INTERRES
   111   54  179 1    
   112   55   56 2    
   113   55   57 1    
   114   57   58 1    
   115   57   59 1    
   116   57  180 1    
   117   58  181 1    
   118   58  182 1    
   119   58  183 1    
   120   59   60 am   BACKBONE|DICT|INTERRES
   121   59  184 1    
   122   60   61 2    
   123   60   62 1    
   124   62   63 1    
   125   62   64 1    
   126   62  185 1    
   127   63  186 1    
   128   63  187 1    
   129   63  188 1    
   130   64   65 am   BACKBONE|DICT|INTERRES
   131   64  189 1    
   132   65   66 2    
   133   67   68 2    
   134   67   69 am   BACKBONE|DICT|INTERRES
   135   69   70 1    
   136   69  190 1    
   137   70   71 1    
   138   70   72 1    
   139   70  191 1    
   140   71  192 1    
   141   71  193 1    
   142   71  194 1    
   143   72   73 2    
   144   72   74 am   BACKBONE|DICT|INTERRES
   145   74   75 1    
   146   74  195 1    
   147   75   76 1    
   148   75   77 1    
   149   75  196 1    
   150   76  197 1    
   151   76  198 1    
   152   76  199 1    
   153   77   78 2    
   154   77   79 am   BACKBONE|DICT|INTERRES
   155   79   80 1    
   156   79  200 1    
   157   80   81 1    
   158   80   82 1    
   159   80  201 1    
   160   81  202 1    
   161   81  203 1    
   162   81  204 1    
   163   82   83 2    
   164   82   84 am   BACKBONE|DICT|INTERRES
   165   84   85 1    
   166   84  205 1    
   167   85   86 1    
   168   85   87 1    
   169   85  206 1    
   170   86  207 1    
   171   86  208 1    
   172   86  209 1    
   173   87   88 2    
   174   87   89 am   BACKBONE|DICT|INTERRES
   175   89   90 1    
   176   89  210 1    
   177   90   91 1    
   178   90   92 1    
   179   90  211 1    
   180   91  212 1    
   181   91  213 1    
   182   91  214 1    
   183   92   93 2    
   184   92   94 am   BACKBONE|DICT|INTERRES
   185   94   95 1    
   186   94  215 1    
   187   95   96 1    
   188   95   97 1    
   189   95  216 1    
   190   96  217 1    
   191   96  218 1    
   192   96  219 1    
   193   97   98 2    
   194   97   99 am   BACKBONE|DICT|INTERRES
   195   99  100 1    
   196   99  220 1    
   197  100  101 1    
   198  100  102 1    
   199  100  221 1    
   200  101  222 1    
   201  101  223 1    
   202  101  224 1    
   203  102  103 2    
   204  102  104 am   BACKBONE|DICT|INTERRES
   205  104  105 1    
   206  104  225 1    
   207  105  106 1    
   208  105  107 1    
   209  105  226 1    
   210  106  227 1    
   211  106  228 1    
   212  106  229 1    
   213  107  108 2    
   214  107  109 am   BACKBONE|DICT|INTERRES
   215  109  110 1    
   216  109  230 1    
   217  110  111 1    
   218  110  112 1    
   219  110  231 1    
   220  111  232 1    
   221  111  233 1    
   222  111  234 1    
   223  112  113 2    
   224  112  114 am   BACKBONE|DICT|INTERRES
   225  114  115 1    
   226  114  235 1    
   227  115  116 1    
   228  115  117 1    
   229  115  236 1    
   230  116  237 1    
   231  116  238 1    
   232  116  239 1    
   233  117  118 2    
   234  117  119 am   BACKBONE|DICT|INTERRES
   235  119  120 1    
   236  119  240 1    
   237  120  121 1    
   238  120  124 1    
   239  120  241 1    
   240  121  122 am   BACKBONE|DICT|INTERRES
   241  121  123 2    
   242  122  242 1    
   243  122  243 1    
   244  124  125 1    
   245  124  244 1    
   246  124  245 1    
   247  125  126 1    
   248  126  246 1    
   249  126  247 1    
@<TRIPOS>SUBSTRUCTURE
     1 UNK         1 GROUP             0       ****    0 ROOT    
