@<TRIPOS>MOLECULE
3R540
247   249    1
SMALL
USER_CHARGES


@<TRIPOS>ATOM
      1 CA         -0.8317  -13.0929  -47.6367 C.3       0 UNK        -0.1800 
      2 C           0.5611  -12.7001  -48.1086 C.2       0 UNK         0.5000 
      3 O           0.7031  -11.7637  -48.8944 O.2       0 UNK        -0.5000 
      4 N           1.5869  -13.4116  -47.6260 N.am      1 UNK        -0.5000 
      5 CA          2.9991  -13.1972  -47.9732 C.3       1 UNK         0.1400 
      6 C6          3.8130  -14.5125  -47.8649 C.3       23 UNK        -0.0398 
      7 S7          3.5059  -15.6320  -49.2701 S.3       23 UNK        -0.2404 
      8 C8          2.1197  -16.6495  -48.6776 C.3       23 UNK        -0.0205 
      9 C9          1.7645  -17.7118  -49.7050 C.ar      23 UNK        -0.0193 
     10 C10         1.1123  -17.3528  -50.8885 C.ar      23 UNK        -0.1150 
     11 C11         0.8200  -18.3144  -51.8603 C.ar      23 UNK        -0.0193 
     12 C12         1.1724  -19.6477  -51.6337 C.ar      23 UNK        -0.1150 
     13 C13         1.8216  -20.0193  -50.4529 C.ar      23 UNK        -0.0193 
     14 C14         2.1133  -19.0478  -49.4906 C.ar      23 UNK        -0.1150 
     15 C15         2.2294  -21.4674  -50.2322 C.3       23 UNK        -0.0205 
     16 S16         0.8303  -22.4791  -49.6678 S.3       23 UNK        -0.2404 
     17 C17         0.5334  -21.7910  -48.0000 C.3       23 UNK        -0.0398 
     18 CA          0.0925  -22.8489  -46.9620 C.3       11 UNK         0.1400 
     19 N          -0.0166  -22.2865  -45.6159 N.am      11 UNK        -0.5000 
     20 C          -0.1730  -23.0128  -44.4993 C.2       10 UNK         0.5000 
     21 O          -0.1466  -24.2430  -44.4719 O.2       10 UNK        -0.5000 
     22 CA         -0.4454  -22.2352  -43.1998 C.3       10 UNK         0.1400 
     23 CB          0.8725  -21.7735  -42.5604 C.3       10 UNK        -0.1800 
     24 N          -1.3213  -21.0811  -43.4076 N.am      10 UNK        -0.5000 
     25 C          -2.5998  -21.1526  -43.8060 C.2       9 UNK         0.5000 
     26 O          -3.2011  -22.2119  -43.9862 O.2       9 UNK        -0.5000 
     27 CA         -3.3064  -19.8152  -44.1048 C.3       9 UNK         0.1400 
     28 CB         -3.7839  -19.1432  -42.8095 C.3       9 UNK        -0.1800 
     29 N          -2.4618  -18.8873  -44.8627 N.am      9 UNK        -0.5000 
     30 C          -2.0052  -19.1286  -46.1000 C.2       8 UNK         0.5000 
     31 O          -2.2790  -20.1428  -46.7362 O.2       8 UNK        -0.5000 
     32 CA         -1.0359  -18.1028  -46.7088 C.3       8 UNK         0.1400 
     33 CB         -1.7947  -16.9460  -47.3756 C.3       8 UNK        -0.1800 
     34 N          -0.1065  -17.5878  -45.7045 N.am      8 UNK        -0.5000 
     35 C           0.9244  -18.2917  -45.2149 C.2       7 UNK         0.5000 
     36 O           1.2278  -19.4185  -45.6076 O.2       7 UNK        -0.5000 
     37 CA          1.7287  -17.6397  -44.0737 C.3       7 UNK         0.1400 
     38 CB          2.7791  -16.6732  -44.6384 C.3       7 UNK        -0.1800 
     39 N           0.8837  -16.9190  -43.1204 N.am      7 UNK        -0.5000 
     40 C          -0.0232  -17.4977  -42.3209 C.2       6 UNK         0.5000 
     41 O          -0.2120  -18.7113  -42.2721 O.2       6 UNK        -0.5000 
     42 CA         -0.9040  -16.5639  -41.4692 C.3       6 UNK         0.1400 
     43 CB         -0.2464  -16.3045  -40.1058 C.3       6 UNK        -0.1800 
     44 N          -1.2064  -15.2794  -42.1047 N.am      6 UNK        -0.5000 
     45 C          -1.7688  -15.1004  -43.3094 C.2       5 UNK         0.5000 
     46 O          -2.0935  -16.0292  -44.0496 O.2       5 UNK        -0.5000 
     47 CA         -1.9900  -13.6471  -43.7781 C.3       5 UNK         0.1400 
     48 CB         -3.4905  -13.3435  -43.9034 C.3       5 UNK        -0.1800 
     49 N          -1.3736  -12.6508  -42.8964 N.am      5 UNK        -0.5000 
     50 C          -0.0645  -12.3751  -42.8441 C.2       4 UNK         0.5000 
     51 O           0.7782  -12.8889  -43.5860 O.2       4 UNK        -0.5000 
     52 CA          0.3638  -11.4024  -41.7355 C.3       4 UNK         0.1400 
     53 CB          0.3284  -12.0978  -40.3633 C.3       4 UNK        -0.1800 
     54 N           1.7225  -10.9311  -41.9829 N.am      4 UNK        -0.5000 
     55 C           2.1066   -9.6504  -42.0000 C.2       3 UNK         0.5000 
     56 O           1.3486   -8.7066  -41.7742 O.2       3 UNK        -0.5000 
     57 CA          3.5829   -9.3602  -42.3380 C.3       3 UNK         0.1400 
     58 CB          4.3175   -8.8439  -41.0904 C.3       3 UNK        -0.1800 
     59 N           4.3228  -10.5174  -42.8586 N.am      3 UNK        -0.5000 
     60 C           4.2611  -11.0911  -44.0706 C.2       2 UNK         0.5000 
     61 O           4.9393  -12.0900  -44.3112 O.2       2 UNK        -0.5000 
     62 CA          3.3328  -10.5083  -45.1668 C.3       2 UNK         0.1400 
     63 CB          3.9504   -9.2743  -45.8642 C.3       2 UNK        -0.1800 
     64 N           2.9315  -11.5307  -46.1444 N.am      2 UNK        -0.5000 
     65 C           3.6524  -12.0661  -47.1452 C.2       1 UNK         0.5000 
     66 O           4.7904  -11.7030  -47.4474 O.2       1 UNK        -0.5000 
     67 C          -1.2101  -23.5688  -47.3652 C.2       11 UNK         0.5000 
     68 O          -1.1481  -24.7325  -47.7503 O.2       11 UNK        -0.5000 
     69 N          -2.3628  -22.8999  -47.2201 N.am      12 UNK        -0.5000 
     70 CA         -3.6890  -23.4120  -47.5842 C.3       12 UNK         0.1400 
     71 CB         -4.7339  -22.3084  -47.3604 C.3       12 UNK        -0.1800 
     72 C          -4.0980  -24.6963  -46.8365 C.2       12 UNK         0.5000 
     73 O          -4.8681  -25.4952  -47.3695 O.2       12 UNK        -0.5000 
     74 N          -3.5649  -24.8795  -45.6229 N.am      13 UNK        -0.5000 
     75 CA         -3.7334  -26.0827  -44.8123 C.3       13 UNK         0.1400 
     76 CB         -3.3834  -25.7410  -43.3554 C.3       13 UNK        -0.1800 
     77 C          -2.8934  -27.2828  -45.3008 C.2       13 UNK         0.5000 
     78 O          -3.1948  -28.4109  -44.9074 O.2       13 UNK        -0.5000 
     79 N          -1.8545  -27.0359  -46.1115 N.am      14 UNK        -0.5000 
     80 CA         -0.8729  -28.0347  -46.5392 C.3       14 UNK         0.1400 
     81 CB          0.5228  -27.5654  -46.0972 C.3       14 UNK        -0.1800 
     82 C          -0.8872  -28.2852  -48.0574 C.2       14 UNK         0.5000 
     83 O          -0.6785  -29.4250  -48.4761 O.2       14 UNK        -0.5000 
     84 N          -1.1048  -27.2338  -48.8541 N.am      15 UNK        -0.5000 
     85 CA         -1.0281  -27.2360  -50.3110 C.3       15 UNK         0.1400 
     86 CB          0.2799  -26.5463  -50.7341 C.3       15 UNK        -0.1800 
     87 C          -2.2360  -26.5071  -50.9161 C.2       15 UNK         0.5000 
     88 O          -2.8581  -25.6673  -50.2629 O.2       15 UNK        -0.5000 
     89 N          -2.5302  -26.8303  -52.1806 N.am      16 UNK        -0.5000 
     90 CA         -3.6690  -26.2984  -52.9296 C.3       16 UNK         0.1400 
     91 CB         -3.9301  -27.2047  -54.1425 C.3       16 UNK        -0.1800 
     92 C          -3.5011  -24.8361  -53.3862 C.2       16 UNK         0.5000 
     93 O          -4.5051  -24.2008  -53.7013 O.2       16 UNK        -0.5000 
     94 N          -2.2573  -24.3348  -53.4349 N.am      17 UNK        -0.5000 
     95 CA         -1.8852  -23.0214  -53.9714 C.3       17 UNK         0.1400 
     96 CB         -0.3625  -22.8334  -53.8601 C.3       17 UNK        -0.1800 
     97 C          -2.6411  -21.8496  -53.3203 C.2       17 UNK         0.5000 
     98 O          -3.4118  -21.1656  -53.9950 O.2       17 UNK        -0.5000 
     99 N          -2.4410  -21.6639  -52.0104 N.am      18 UNK        -0.5000 
    100 CA        -3.1064  -20.6133  -51.2398 C.3       18 UNK         0.1400 
    101 CB        -2.3296  -20.3587  -49.9465 C.3       18 UNK        -0.1800 
    102 C         -4.5867  -20.9226  -50.9502 C.2       18 UNK         0.5000 
    103 O         -5.3621  -19.9896  -50.7434 O.2       18 UNK        -0.5000 
    104 N         -4.9738  -22.2076  -50.9828 N.am      19 UNK        -0.5000 
    105 CA        -6.3689  -22.6479  -50.8734 C.3       19 UNK         0.1400 
    106 CB        -6.4200  -24.1686  -50.6711 C.3       19 UNK        -0.1800 
    107 C         -7.2100  -22.2229  -52.0946 C.2       19 UNK         0.5000 
    108 O         -8.3788  -21.8704  -51.9391 O.2       19 UNK        -0.5000 
    109 N         -6.5750  -22.1953  -53.2741 N.am      20 UNK        -0.5000 
    110 CA        -7.0970  -21.6460  -54.5267 C.3       20 UNK         0.1400 
    111 CB        -6.4493  -22.4043  -55.6983 C.3       20 UNK        -0.1800 
    112 C         -6.8741  -20.1206  -54.6490 C.2       20 UNK         0.5000 
    113 O         -6.9572  -19.5822  -55.7549 O.2       20 UNK        -0.5000 
    114 N         -6.5711  -19.4494  -53.5262 N.am      21 UNK        -0.5000 
    115 CA        -6.3356  -18.0096  -53.3739 C.3       21 UNK         0.1400 
    116 CB        -7.6350  -17.2192  -53.6345 C.3       21 UNK        -0.1800 
    117 C         -5.1405  -17.4857  -54.1970 C.2       21 UNK         0.5000 
    118 O         -5.1277  -16.3127  -54.5748 O.2       21 UNK        -0.5000 
    119 N         -4.1632  -18.3639  -54.4627 N.am      22 UNK        -0.5000 
    120 CA        -2.9600  -18.1098  -55.2719 C.3       22 UNK         0.1400 
    121 C         -3.2449  -17.9028  -56.7919 C.2       22 UNK         0.5000 
    122 N         -4.4186  -18.2606  -57.3027 N.am      22 UNK        -0.7600 
    123 O         -2.3800  -17.4416  -57.5318 O.2       22 UNK        -0.5000 
    124 C124       -2.0331  -17.0158  -54.6684 C.3       23 UNK        -0.0398 
    125 S125       -1.5537  -17.3754  -52.9410 S.3       23 UNK        -0.2404 
    126 C126        0.1694  -17.9038  -53.1723 C.3       23 UNK        -0.0205 
    127 H127       -0.8072  -13.9759  -46.9987 H         1 UNK         0.0600 
    128 H128       -1.4700  -13.3129  -48.4924 H         1 UNK         0.0600 
    129 H129       -1.2826  -12.2758  -47.0735 H         1 UNK         0.0600 
    130 H130        1.4062  -14.1532  -46.9666 H         1 UNK         0.3000 
    131 H131        3.0518  -12.8610  -49.0113 H         1 UNK         0.0600 
    132 H132        3.6233  -15.0238  -46.9219 H         1 UNK         0.0800 
    133 H133        4.8856  -14.3097  -47.8776 H         1 UNK         0.0800 
    134 H134        1.2489  -16.0205  -48.4951 H         1 UNK         0.0800 
    135 H135        2.3839  -17.1100  -47.7251 H         1 UNK         0.0800 
    136 H136        0.8519  -16.3183  -51.0640 H         1 UNK         0.1150 
    137 H137        0.9533  -20.3980  -52.3799 H         1 UNK         0.1150 
    138 H138        2.6240  -19.3288  -48.5801 H         1 UNK         0.1150 
    139 H139        2.6095  -21.8839  -51.1662 H         1 UNK         0.0800 
    140 H140        3.0479  -21.5363  -49.5141 H         1 UNK         0.0800 
    141 H141       -0.1987  -20.9894  -48.0810 H         1 UNK         0.0800 
    142 H142        1.4516  -21.3192  -47.6490 H         1 UNK         0.0800 
    143 H143        0.8774  -23.6077  -46.9231 H         1 UNK         0.0600 
    144 H144       -0.0112  -21.2769  -45.5432 H         1 UNK         0.3000 
    145 H145       -0.9441  -22.9139  -42.5047 H         1 UNK         0.0600 
    146 H146        0.6964  -21.3005  -41.5942 H         1 UNK         0.0600 
    147 H147        1.3967  -21.0560  -43.1931 H         1 UNK         0.0600 
    148 H148        1.5431  -22.6170  -42.3921 H         1 UNK         0.0600 
    149 H149       -0.9175  -20.1679  -43.2141 H         1 UNK         0.3000 
    150 H150       -4.1849  -20.0326  -44.7158 H         1 UNK         0.0600 
    151 H151       -4.5057  -19.7746  -42.2900 H         1 UNK         0.0600 
    152 H152       -4.2706  -18.1891  -43.0128 H         1 UNK         0.0600 
    153 H153       -2.9585  -18.9614  -42.1226 H         1 UNK         0.0600 
    154 H154       -2.2245  -18.0051  -44.4214 H         1 UNK         0.3000 
    155 H155       -0.4602  -18.6094  -47.4867 H         1 UNK         0.0600 
    156 H156       -2.4862  -17.3213  -48.1310 H         1 UNK         0.0600 
    157 H157       -1.1098  -16.2651  -47.8793 H         1 UNK         0.0600 
    158 H158       -2.3776  -16.3696  -46.6574 H         1 UNK         0.0600 
    159 H159       -0.3601  -16.7164  -45.2596 H         1 UNK         0.3000 
    160 H160        2.2470  -18.4364  -43.5360 H         1 UNK         0.0600 
    161 H161        2.3114  -15.8202  -45.1304 H         1 UNK         0.0600 
    162 H162        3.4199  -17.1708  -45.3676 H         1 UNK         0.0600 
    163 H163        3.4252  -16.2892  -43.8487 H         1 UNK         0.0600 
    164 H164        0.9720  -15.9133  -43.0981 H         1 UNK         0.3000 
    165 H165       -1.8540  -17.0716  -41.2974 H         1 UNK         0.0600 
    166 H166       -0.9007  -15.7240  -39.4551 H         1 UNK         0.0600 
    167 H167       -0.0290  -17.2421  -39.5921 H         1 UNK         0.0600 
    168 H168        0.6936  -15.7607  -40.2089 H         1 UNK         0.0600 
    169 H169       -0.9821  -14.4552  -41.5695 H         1 UNK         0.3000 
    170 H170       -1.5417  -13.5574  -44.7682 H         1 UNK         0.0600 
    171 H171       -3.9985  -13.4182  -42.9411 H         1 UNK         0.0600 
    172 H172       -3.6581  -12.3404  -44.2960 H         1 UNK         0.0600 
    173 H173       -3.9762  -14.0421  -44.5862 H         1 UNK         0.0600 
    174 H174       -1.9973  -12.1823  -42.2540 H         1 UNK         0.3000 
    175 H175       -0.3415  -10.5686  -41.7332 H         1 UNK         0.0600 
    176 H176        0.9888  -12.9657  -40.3335 H         1 UNK         0.0600 
    177 H177        0.6404  -11.4162  -39.5717 H         1 UNK         0.0600 
    178 H178       -0.6772  -12.4386  -40.1144 H         1 UNK         0.0600 
    179 H179        2.3908  -11.6470  -42.2337 H         1 UNK         0.3000 
    180 H180        3.5939   -8.5587  -43.0742 H         1 UNK         0.0600 
    181 H181        5.3451   -8.5647  -41.3246 H         1 UNK         0.0600 
    182 H182        4.3448   -9.5945  -40.2994 H         1 UNK         0.0600 
    183 H183        3.8284   -7.9574  -40.6841 H         1 UNK         0.0600 
    184 H184        4.9487  -10.9411  -42.1897 H         1 UNK         0.3000 
    185 H185        2.3970  -10.1966  -44.7064 H         1 UNK         0.0600 
    186 H186        4.9733   -9.4606  -46.1922 H         1 UNK         0.0600 
    187 H187        3.3675   -8.9816  -46.7378 H         1 UNK         0.0600 
    188 H188        3.9860   -8.4079  -45.2071 H         1 UNK         0.0600 
    189 H189        2.0222  -11.9383  -45.9779 H         1 UNK         0.3000 
    190 H190       -2.3298  -21.9319  -46.9036 H         1 UNK         0.3000 
    191 H191       -3.6643  -23.6479  -48.6493 H         1 UNK         0.0600 
    192 H192       -4.5000  -21.4155  -47.9394 H         1 UNK         0.0600 
    193 H193       -4.7905  -22.0188  -46.3108 H         1 UNK         0.0600 
    194 H194       -5.7266  -22.6421  -47.6644 H         1 UNK         0.0600 
    195 H195       -2.9888  -24.1425  -45.2353 H         1 UNK         0.3000 
    196 H196       -4.7834  -26.3803  -44.8482 H         1 UNK         0.0600 
    197 H197       -4.0076  -24.9300  -42.9793 H         1 UNK         0.0600 
    198 H198       -2.3416  -25.4351  -43.2541 H         1 UNK         0.0600 
    199 H199       -3.5388  -26.6007  -42.7024 H         1 UNK         0.0600 
    200 H200       -1.6952  -26.0867  -46.4331 H         1 UNK         0.3000 
    201 H201       -1.0670  -28.9941  -46.0554 H         1 UNK         0.0600 
    202 H202        0.5759  -27.4573  -45.0137 H         1 UNK         0.0600 
    203 H203        0.7821  -26.6023  -46.5397 H         1 UNK         0.0600 
    204 H204        1.2905  -28.2820  -46.3919 H         1 UNK         0.0600 
    205 H205       -1.2825  -26.3171  -48.4427 H         1 UNK         0.3000 
    206 H206       -1.0301  -28.2603  -50.6892 H         1 UNK         0.0600 
    207 H207        0.3173  -25.5132  -50.3851 H         1 UNK         0.0600 
    208 H208        1.1477  -27.0661  -50.3278 H         1 UNK         0.0600 
    209 H209        0.3890  -26.5324  -51.8190 H         1 UNK         0.0600 
    210 H210       -1.9648  -27.5194  -52.6558 H         1 UNK         0.3000 
    211 H211       -4.5482  -26.3408  -52.2843 H         1 UNK         0.0600 
    212 H212       -3.0786  -27.2212  -54.8239 H         1 UNK         0.0600 
    213 H213       -4.7967  -26.8607  -54.7089 H         1 UNK         0.0600 
    214 H214       -4.1339  -28.2300  -53.8330 H         1 UNK         0.0600 
    215 H215       -1.4994  -24.9339  -53.1449 H         1 UNK         0.3000 
    216 H216       -2.1457  -23.0204  -55.0317 H         1 UNK         0.0600 
    217 H217       -0.0609  -21.8555  -54.2380 H         1 UNK         0.0600 
    218 H218        0.1692  -23.5831  -54.4461 H         1 UNK         0.0600 
    219 H219       -0.0150  -22.9096  -52.8290 H         1 UNK         0.0600 
    220 H220       -1.8027  -22.2689  -51.5142 H         1 UNK         0.3000 
    221 H221       -3.0836  -19.6906  -51.8225 H         1 UNK         0.0600 
    222 H222       -2.2574  -21.2630  -49.3464 H         1 UNK         0.0600 
    223 H223       -1.3191  -20.0083  -50.1546 H         1 UNK         0.0600 
    224 H224       -2.8182  -19.5947  -49.3412 H         1 UNK         0.0600 
    225 H225       -4.2841  -22.9163  -51.1854 H         1 UNK         0.3000 
    226 H226       -6.8013  -22.1748  -49.9893 H         1 UNK         0.0600 
    227 H227       -5.8044  -24.4807  -49.8277 H         1 UNK         0.0600 
    228 H228       -7.4399  -24.4976  -50.4689 H         1 UNK         0.0600 
    229 H229       -6.0763  -24.7043  -51.5545 H         1 UNK         0.0600 
    230 H230       -5.6313  -22.5673  -53.3223 H         1 UNK         0.3000 
    231 H231       -8.1743  -21.8170  -54.5686 H         1 UNK         0.0600 
    232 H232       -6.8660  -22.0878  -56.6551 H         1 UNK         0.0600 
    233 H233       -6.6167  -23.4781  -55.6128 H         1 UNK         0.0600 
    234 H234       -5.3720  -22.2371  -55.7353 H         1 UNK         0.0600 
    235 H235       -6.4850  -19.9819  -52.6702 H         1 UNK         0.3000 
    236 H236       -6.0649  -17.8565  -52.3286 H         1 UNK         0.0600 
    237 H237       -7.9342  -17.2661  -54.6820 H         1 UNK         0.0600 
    238 H238       -8.4580  -17.6043  -53.0325 H         1 UNK         0.0600 
    239 H239       -7.5125  -16.1666  -53.3767 H         1 UNK         0.0600 
    240 H240       -4.2560  -19.3210  -54.1401 H         1 UNK         0.3000 
    241 H241       -2.3959  -19.0417  -55.2401 H         1 UNK         0.0600 
    242 H242       -4.5896  -18.1334  -58.2876 H         1 UNK         0.3800 
    243 H243       -5.1457  -18.6464  -56.7136 H         1 UNK         0.3800 
    244 H244       -2.5205  -16.0408  -54.6940 H         1 UNK         0.0800 
    245 H245       -1.1291  -16.9073  -55.2695 H         1 UNK         0.0800 
    246 H246        0.1963  -18.7271  -53.8881 H         1 UNK         0.0800 
    247 H247        0.7429  -17.0876  -53.6142 H         1 UNK         0.0800 
@<TRIPOS>BOND
     1    1    2 1    
     2    1  127 1    
     3    1  128 1    
     4    1  129 1    
     5    2    3 2    
     6    2    4 am   BACKBONE|DICT|INTERRES
     7    4    5 1    
     8    4  130 1    
     9    5    6 1    
    10    5   65 1    
    11    5  131 1    
    12    6    7 1    
    13    6  132 1    
    14    6  133 1    
    15    7    8 1    
    16    8    9 1    
    17    8  134 1    
    18    8  135 1    
    19    9   10 ar   
    20    9   14 ar   
    21   10   11 ar   
    22   10  136 1    
    23   11   12 ar   
    24   11  126 1    
    25   12   13 ar   
    26   12  137 1    
    27   13   14 ar   
    28   13   15 1    
    29   14  138 1    
    30   15   16 1    
    31   15  139 1    
    32   15  140 1    
    33   16   17 1    
    34   17   18 1    
    35   17  141 1    
    36   17  142 1    
    37   18   19 1    
    38   18   67 1    
    39   18  143 1    
    40   19   20 am   BACKBONE|DICT|INTERRES
    41   19  144 1    
    42   20   21 2    
    43   20   22 1    
    44   22   23 1    
    45   22   24 1    
    46   22  145 1    
    47   23  146 1    
    48   23  147 1    
    49   23  148 1    
    50   24   25 am   BACKBONE|DICT|INTERRES
    51   24  149 1    
    52   25   26 2    
    53   25   27 1    
    54   27   28 1    
    55   27   29 1    
    56   27  150 1    
    57   28  151 1    
    58   28  152 1    
    59   28  153 1    
    60   29   30 am   BACKBONE|DICT|INTERRES
    61   29  154 1    
    62   30   31 2    
    63   30   32 1    
    64   32   33 1    
    65   32   34 1    
    66   32  155 1    
    67   33  156 1    
    68   33  157 1    
    69   33  158 1    
    70   34   35 am   BACKBONE|DICT|INTERRES
    71   34  159 1    
    72   35   36 2    
    73   35   37 1    
    74   37   38 1    
    75   37   39 1    
    76   37  160 1    
    77   38  161 1    
    78   38  162 1    
    79   38  163 1    
    80   39   40 am   BACKBONE|DICT|INTERRES
    81   39  164 1    
    82   40   41 2    
    83   40   42 1    
    84   42   43 1    
    85   42   44 1    
    86   42  165 1    
    87   43  166 1    
    88   43  167 1    
    89   43  168 1    
    90   44   45 am   BACKBONE|DICT|INTERRES
    91   44  169 1    
    92   45   46 2    
    93   45   47 1    
    94   47   48 1    
    95   47   49 1    
    96   47  170 1    
    97   48  171 1    
    98   48  172 1    
    99   48  173 1    
   100   49   50 am   BACKBONE|DICT|INTERRES
   101   49  174 1    
   102   50   51 2    
   103   50   52 1    
   104   52   53 1    
   105   52   54 1    
   106   52  175 1    
   107   53  176 1    
   108   53  177 1    
   109   53  178 1    
   110   54   55 am   BACKBONE|DICT|INTERRES
   111   54  179 1    
   112   55   56 2    
   113   55   57 1    
   114   57   58 1    
   115   57   59 1    
   116   57  180 1    
   117   58  181 1    
   118   58  182 1    
   119   58  183 1    
   120   59   60 am   BACKBONE|DICT|INTERRES
   121   59  184 1    
   122   60   61 2    
   123   60   62 1    
   124   62   63 1    
   125   62   64 1    
   126   62  185 1    
   127   63  186 1    
   128   63  187 1    
   129   63  188 1    
   130   64   65 am   BACKBONE|DICT|INTERRES
   131   64  189 1    
   132   65   66 2    
   133   67   68 2    
   134   67   69 am   BACKBONE|DICT|INTERRES
   135   69   70 1    
   136   69  190 1    
   137   70   71 1    
   138   70   72 1    
   139   70  191 1    
   140   71  192 1    
   141   71  193 1    
   142   71  194 1    
   143   72   73 2    
   144   72   74 am   BACKBONE|DICT|INTERRES
   145   74   75 1    
   146   74  195 1    
   147   75   76 1    
   148   75   77 1    
   149   75  196 1    
   150   76  197 1    
   151   76  198 1    
   152   76  199 1    
   153   77   78 2    
   154   77   79 am   BACKBONE|DICT|INTERRES
   155   79   80 1    
   156   79  200 1    
   157   80   81 1    
   158   80   82 1    
   159   80  201 1    
   160   81  202 1    
   161   81  203 1    
   162   81  204 1    
   163   82   83 2    
   164   82   84 am   BACKBONE|DICT|INTERRES
   165   84   85 1    
   166   84  205 1    
   167   85   86 1    
   168   85   87 1    
   169   85  206 1    
   170   86  207 1    
   171   86  208 1    
   172   86  209 1    
   173   87   88 2    
   174   87   89 am   BACKBONE|DICT|INTERRES
   175   89   90 1    
   176   89  210 1    
   177   90   91 1    
   178   90   92 1    
   179   90  211 1    
   180   91  212 1    
   181   91  213 1    
   182   91  214 1    
   183   92   93 2    
   184   92   94 am   BACKBONE|DICT|INTERRES
   185   94   95 1    
   186   94  215 1    
   187   95   96 1    
   188   95   97 1    
   189   95  216 1    
   190   96  217 1    
   191   96  218 1    
   192   96  219 1    
   193   97   98 2    
   194   97   99 am   BACKBONE|DICT|INTERRES
   195   99  100 1    
   196   99  220 1    
   197  100  101 1    
   198  100  102 1    
   199  100  221 1    
   200  101  222 1    
   201  101  223 1    
   202  101  224 1    
   203  102  103 2    
   204  102  104 am   BACKBONE|DICT|INTERRES
   205  104  105 1    
   206  104  225 1    
   207  105  106 1    
   208  105  107 1    
   209  105  226 1    
   210  106  227 1    
   211  106  228 1    
   212  106  229 1    
   213  107  108 2    
   214  107  109 am   BACKBONE|DICT|INTERRES
   215  109  110 1    
   216  109  230 1    
   217  110  111 1    
   218  110  112 1    
   219  110  231 1    
   220  111  232 1    
   221  111  233 1    
   222  111  234 1    
   223  112  113 2    
   224  112  114 am   BACKBONE|DICT|INTERRES
   225  114  115 1    
   226  114  235 1    
   227  115  116 1    
   228  115  117 1    
   229  115  236 1    
   230  116  237 1    
   231  116  238 1    
   232  116  239 1    
   233  117  118 2    
   234  117  119 am   BACKBONE|DICT|INTERRES
   235  119  120 1    
   236  119  240 1    
   237  120  121 1    
   238  120  124 1    
   239  120  241 1    
   240  121  122 am   BACKBONE|DICT|INTERRES
   241  121  123 2    
   242  122  242 1    
   243  122  243 1    
   244  124  125 1    
   245  124  244 1    
   246  124  245 1    
   247  125  126 1    
   248  126  246 1    
   249  126  247 1    
@<TRIPOS>SUBSTRUCTURE
     1 UNK         1 GROUP             0       ****    0 ROOT    
