@<TRIPOS>MOLECULE
3R540
247   249    1
SMALL
USER_CHARGES


@<TRIPOS>ATOM
      1 CA          0.3673  -11.3739  -46.0408 C.3       0 UNK        -0.1800 
      2 C           1.6738  -11.5263  -46.8040 C.2       0 UNK         0.5000 
      3 O           2.6990  -10.9818  -46.3941 O.2       0 UNK        -0.5000 
      4 N           1.6424  -12.2778  -47.9119 N.am      1 UNK        -0.5000 
      5 CA          2.7814  -12.5202  -48.8101 C.3       1 UNK         0.1400 
      6 C6          2.3295  -13.1471  -50.1509 C.3       23 UNK        -0.0398 
      7 S7          1.4461  -14.7383  -49.9705 S.3       23 UNK        -0.2404 
      8 C8          2.5362  -15.8418  -50.9245 C.3       23 UNK        -0.0205 
      9 C9          1.9301  -17.2275  -51.0854 C.ar      23 UNK        -0.0193 
     10 C10         0.7192  -17.3813  -51.7669 C.ar      23 UNK        -0.1150 
     11 C11         0.1462  -18.6448  -51.9158 C.ar      23 UNK        -0.0193 
     12 C12         0.7961  -19.7636  -51.3903 C.ar      23 UNK        -0.1150 
     13 C13         2.0142  -19.6287  -50.7201 C.ar      23 UNK        -0.0193 
     14 C14         2.5793  -18.3561  -50.5731 C.ar      23 UNK        -0.1150 
     15 C15         2.7059  -20.8694  -50.1674 C.3       23 UNK        -0.0205 
     16 S16         3.1533  -20.7370  -48.4058 S.3       23 UNK        -0.2404 
     17 C17         1.5679  -20.2946  -47.6214 C.3       23 UNK        -0.0398 
     18 CA          0.7839  -21.5210  -47.0859 C.3       11 UNK         0.1400 
     19 N           0.2145  -21.2642  -45.7605 N.am      11 UNK        -0.5000 
     20 C          -0.3678  -22.1789  -44.9745 C.2       10 UNK         0.5000 
     21 O          -0.4249  -23.3761  -45.2499 O.2       10 UNK        -0.5000 
     22 CA         -1.0516  -21.6602  -43.6947 C.3       10 UNK         0.1400 
     23 CB         -0.0489  -21.5479  -42.5372 C.3       10 UNK        -0.1800 
     24 N          -1.7213  -20.3743  -43.9059 N.am      10 UNK        -0.5000 
     25 C          -2.7787  -20.2075  -44.7138 C.2       9 UNK         0.5000 
     26 O          -3.3459  -21.1402  -45.2819 O.2       9 UNK        -0.5000 
     27 CA         -3.2541  -18.7647  -44.9701 C.3       9 UNK         0.1400 
     28 CB         -4.1952  -18.2945  -43.8516 C.3       9 UNK        -0.1800 
     29 N          -2.1476  -17.8169  -45.1157 N.am      9 UNK        -0.5000 
     30 C          -1.2427  -17.8508  -46.1048 C.2       8 UNK         0.5000 
     31 O          -1.2700  -18.6648  -47.0260 O.2       8 UNK        -0.5000 
     32 CA         -0.0644  -16.8626  -46.0074 C.3       8 UNK         0.1400 
     33 CB         -0.4475  -15.4701  -46.5282 C.3       8 UNK        -0.1800 
     34 N           0.4577  -16.7533  -44.6444 N.am      8 UNK        -0.5000 
     35 C           1.0379  -17.7620  -43.9778 C.2       7 UNK         0.5000 
     36 O           1.2251  -18.8776  -44.4584 O.2       7 UNK        -0.5000 
     37 CA          1.4293  -17.4996  -42.5150 C.3       7 UNK         0.1400 
     38 CB          2.7703  -16.7566  -42.4216 C.3       7 UNK        -0.1800 
     39 N           0.3911  -16.7569  -41.8028 N.am      7 UNK        -0.5000 
     40 C          -0.8145  -17.2586  -41.4972 C.2       6 UNK         0.5000 
     41 O          -1.1554  -18.4160  -41.7396 O.2       6 UNK        -0.5000 
     42 CA         -1.8214  -16.2887  -40.8537 C.3       6 UNK         0.1400 
     43 CB         -1.6082  -16.2157  -39.3345 C.3       6 UNK        -0.1800 
     44 N          -1.7388  -14.9420  -41.4212 N.am      6 UNK        -0.5000 
     45 C          -2.0587  -14.6312  -42.6857 C.2       5 UNK         0.5000 
     46 O          -2.4969  -15.4418  -43.5003 O.2       5 UNK        -0.5000 
     47 CA         -1.7859  -13.1828  -43.1266 C.3       5 UNK         0.1400 
     48 CB         -2.9608  -12.2677  -42.7526 C.3       5 UNK        -0.1800 
     49 N          -0.5468  -12.6479  -42.5560 N.am      5 UNK        -0.5000 
     50 C           0.6755  -13.1019  -42.8575 C.2       4 UNK         0.5000 
     51 O           0.8907  -14.0147  -43.6606 O.2       4 UNK        -0.5000 
     52 CA          1.8491  -12.4480  -42.1225 C.3       4 UNK         0.1400 
     53 CB          2.1510  -13.1835  -40.8046 C.3       4 UNK        -0.1800 
     54 N           3.0062  -12.4776  -43.0061 N.am      4 UNK        -0.5000 
     55 C           4.0915  -11.7038  -42.9056 C.2       3 UNK         0.5000 
     56 O           4.2728  -10.9125  -41.9785 O.2       3 UNK        -0.5000 
     57 CA          5.1270  -11.7755  -44.0465 C.3       3 UNK         0.1400 
     58 CB          6.5735  -11.9046  -43.5257 C.3       3 UNK        -0.1800 
     59 N           4.8209  -12.7701  -45.0837 N.am      3 UNK        -0.5000 
     60 C           4.9580  -14.1050  -45.0435 C.2       2 UNK         0.5000 
     61 O           5.3832  -14.7184  -44.0648 O.2       2 UNK        -0.5000 
     62 CA          4.5254  -14.8886  -46.3048 C.3       2 UNK         0.1400 
     63 CB          3.8651  -16.2304  -45.9530 C.3       2 UNK        -0.1800 
     64 N           3.5926  -14.1242  -47.1343 N.am      2 UNK        -0.5000 
     65 C           3.9268  -13.3269  -48.1568 C.2       1 UNK         0.5000 
     66 O           5.0806  -13.1832  -48.5621 O.2       1 UNK        -0.5000 
     67 C          -0.2939  -21.9947  -48.0874 C.2       11 UNK         0.5000 
     68 O          -0.0679  -22.9630  -48.8129 O.2       11 UNK        -0.5000 
     69 N          -1.4664  -21.3430  -48.0683 N.am      12 UNK        -0.5000 
     70 CA         -2.6473  -21.7194  -48.8482 C.3       12 UNK         0.1400 
     71 CB         -3.7437  -20.6575  -48.6824 C.3       12 UNK        -0.1800 
     72 C          -3.1901  -23.1050  -48.4599 C.2       12 UNK         0.5000 
     73 O          -3.5296  -23.8914  -49.3437 O.2       12 UNK        -0.5000 
     74 N          -3.2324  -23.3912  -47.1506 N.am      13 UNK        -0.5000 
     75 CA         -3.6263  -24.6852  -46.5936 C.3       13 UNK         0.1400 
     76 CB         -3.7845  -24.5718  -45.0705 C.3       13 UNK        -0.1800 
     77 C          -2.6464  -25.8123  -46.9666 C.2       13 UNK         0.5000 
     78 O          -3.0921  -26.9029  -47.3221 O.2       13 UNK        -0.5000 
     79 N          -1.3373  -25.5220  -46.9398 N.am      14 UNK        -0.5000 
     80 CA         -0.2731  -26.4217  -47.3968 C.3       14 UNK         0.1400 
     81 CB          1.0961  -25.8348  -47.0221 C.3       14 UNK        -0.1800 
     82 C          -0.3502  -26.7179  -48.9081 C.2       14 UNK         0.5000 
     83 O          -0.0698  -27.8424  -49.3237 O.2       14 UNK        -0.5000 
     84 N          -0.7831  -25.7218  -49.6922 N.am      15 UNK        -0.5000 
     85 CA         -1.0987  -25.8354  -51.1177 C.3       15 UNK         0.1400 
     86 CB         -0.9916  -24.4404  -51.7601 C.3       15 UNK        -0.1800 
     87 C          -2.4845  -26.4627  -51.3931 C.2       15 UNK         0.5000 
     88 O          -2.8749  -26.5543  -52.5572 O.2       15 UNK        -0.5000 
     89 N          -3.2243  -26.8475  -50.3397 N.am      16 UNK        -0.5000 
     90 CA         -4.5673  -27.4436  -50.3511 C.3       16 UNK         0.1400 
     91 CB         -4.5138  -28.8662  -50.9451 C.3       16 UNK        -0.1800 
     92 C          -5.6352  -26.5575  -51.0299 C.2       16 UNK         0.5000 
     93 O          -6.6130  -27.0777  -51.5697 O.2       16 UNK        -0.5000 
     94 N          -5.4061  -25.2356  -51.0184 N.am      17 UNK        -0.5000 
     95 CA         -6.1551  -24.1834  -51.7112 C.3       17 UNK         0.1400 
     96 CB         -7.5675  -24.0271  -51.1133 C.3       17 UNK        -0.1800 
     97 C          -6.1749  -24.3239  -53.2515 C.2       17 UNK         0.5000 
     98 O          -6.9858  -23.6671  -53.9068 O.2       17 UNK        -0.5000 
     99 N          -5.2697  -25.1352  -53.8245 N.am      18 UNK        -0.5000 
    100 CA        -5.1277  -25.3258  -55.2732 C.3       18 UNK         0.1400 
    101 CB        -4.2619  -26.5645  -55.5451 C.3       18 UNK        -0.1800 
    102 C         -4.5366  -24.0865  -55.9719 C.2       18 UNK         0.5000 
    103 O         -4.8016  -23.8617  -57.1529 O.2       18 UNK        -0.5000 
    104 N         -3.7874  -23.2839  -55.2062 N.am      19 UNK        -0.5000 
    105 CA        -3.2597  -21.9737  -55.5829 C.3       19 UNK         0.1400 
    106 CB        -1.8513  -21.8375  -54.9787 C.3       19 UNK        -0.1800 
    107 C         -4.2023  -20.8270  -55.1445 C.2       19 UNK         0.5000 
    108 O         -3.7476  -19.6913  -55.0039 O.2       19 UNK        -0.5000 
    109 N         -5.4904  -21.1506  -54.9438 N.am      20 UNK        -0.5000 
    110 CA        -6.5841  -20.3216  -54.4262 C.3       20 UNK         0.1400 
    111 CB        -6.7380  -19.0093  -55.2262 C.3       20 UNK        -0.1800 
    112 C         -6.4805  -20.0832  -52.9058 C.2       20 UNK         0.5000 
    113 O         -5.5597  -20.5742  -52.2481 O.2       20 UNK        -0.5000 
    114 N         -7.4549  -19.3432  -52.3615 N.am      21 UNK        -0.5000 
    115 CA        -7.5494  -18.9687  -50.9487 C.3       21 UNK         0.1400 
    116 CB        -9.0348  -18.7851  -50.5845 C.3       21 UNK        -0.1800 
    117 C         -6.6987  -17.7167  -50.6472 C.2       21 UNK         0.5000 
    118 O         -7.2271  -16.6881  -50.2196 O.2       21 UNK        -0.5000 
    119 N         -5.3947  -17.8224  -50.9172 N.am      22 UNK        -0.5000 
    120 CA        -4.3608  -16.8192  -50.6221 C.3       22 UNK         0.1400 
    121 C         -4.1115  -16.5889  -49.0995 C.2       22 UNK         0.5000 
    122 N         -3.4212  -15.5138  -48.7385 N.am      22 UNK        -0.7600 
    123 O         -4.5443  -17.3524  -48.2386 O.2       22 UNK        -0.5000 
    124 C124       -3.0533  -17.0984  -51.4194 C.3       23 UNK        -0.0398 
    125 S125       -2.5568  -18.8562  -51.4664 S.3       23 UNK        -0.2404 
    126 C126       -1.1752  -18.8111  -52.6408 C.3       23 UNK        -0.0205 
    127 H127       -0.2834  -10.6611  -46.5451 H         1 UNK         0.0600 
    128 H128        0.5530  -11.0097  -45.0316 H         1 UNK         0.0600 
    129 H129       -0.1544  -12.3276  -45.9677 H         1 UNK         0.0600 
    130 H130        0.7726  -12.7060  -48.1972 H         1 UNK         0.3000 
    131 H131        3.2038  -11.5408  -49.0453 H         1 UNK         0.0600 
    132 H132        1.6583  -12.4558  -50.6624 H         1 UNK         0.0800 
    133 H133        3.1839  -13.2643  -50.8201 H         1 UNK         0.0800 
    134 H134        3.5084  -15.8962  -50.4318 H         1 UNK         0.0800 
    135 H135        2.7080  -15.4188  -51.9152 H         1 UNK         0.0800 
    136 H136        0.2170  -16.5128  -52.1695 H         1 UNK         0.1150 
    137 H137        0.3465  -20.7408  -51.5021 H         1 UNK         0.1150 
    138 H138        3.5208  -18.2469  -50.0533 H         1 UNK         0.1150 
    139 H139        2.0778  -21.7525  -50.2962 H         1 UNK         0.0800 
    140 H140        3.6119  -21.0520  -50.7465 H         1 UNK         0.0800 
    141 H141        0.9614  -19.6701  -48.2791 H         1 UNK         0.0800 
    142 H142        1.8425  -19.6353  -46.7996 H         1 UNK         0.0800 
    143 H143        1.4813  -22.3506  -46.9518 H         1 UNK         0.0600 
    144 H144        0.2750  -20.3099  -45.4197 H         1 UNK         0.3000 
    145 H145       -1.8124  -22.3886  -43.4075 H         1 UNK         0.0600 
    146 H146       -0.5426  -21.2330  -41.6177 H         1 UNK         0.0600 
    147 H147        0.4251  -22.5100  -42.3393 H         1 UNK         0.0600 
    148 H148        0.7432  -20.8318  -42.7529 H         1 UNK         0.0600 
    149 H149       -1.3416  -19.5717  -43.4153 H         1 UNK         0.3000 
    150 H150       -3.8148  -18.7644  -45.9072 H         1 UNK         0.0600 
    151 H151       -5.0407  -18.9745  -43.7414 H         1 UNK         0.0600 
    152 H152       -4.5991  -17.3053  -44.0680 H         1 UNK         0.0600 
    153 H153       -3.6848  -18.2447  -42.8897 H         1 UNK         0.0600 
    154 H154       -2.0885  -17.0768  -44.4219 H         1 UNK         0.3000 
    155 H155        0.7398  -17.2440  -46.6405 H         1 UNK         0.0600 
    156 H156       -1.2619  -15.0316  -45.9515 H         1 UNK         0.0600 
    157 H157       -0.7659  -15.5218  -47.5698 H         1 UNK         0.0600 
    158 H158        0.4010  -14.7881  -46.4825 H         1 UNK         0.0600 
    159 H159        0.3825  -15.8463  -44.1949 H         1 UNK         0.3000 
    160 H160        1.5492  -18.4682  -42.0249 H         1 UNK         0.0600 
    161 H161        2.7263  -15.7703  -42.8827 H         1 UNK         0.0600 
    162 H162        3.5595  -17.3148  -42.9266 H         1 UNK         0.0600 
    163 H163        3.0792  -16.6293  -41.3842 H         1 UNK         0.0600 
    164 H164        0.5776  -15.7864  -41.6040 H         1 UNK         0.3000 
    165 H165       -2.8251  -16.6761  -41.0409 H         1 UNK         0.0600 
    166 H166       -2.3633  -15.5883  -38.8604 H         1 UNK         0.0600 
    167 H167       -1.6802  -17.2061  -38.8829 H         1 UNK         0.0600 
    168 H168       -0.6275  -15.8102  -39.0823 H         1 UNK         0.0600 
    169 H169       -1.3894  -14.2121  -40.8184 H         1 UNK         0.3000 
    170 H170       -1.6881  -13.1821  -44.2139 H         1 UNK         0.0600 
    171 H171       -3.8939  -12.6371  -43.1802 H         1 UNK         0.0600 
    172 H172       -3.0969  -12.2042  -41.6723 H         1 UNK         0.0600 
    173 H173       -2.8086  -11.2572  -43.1323 H         1 UNK         0.0600 
    174 H174       -0.6449  -11.8947  -41.8902 H         1 UNK         0.3000 
    175 H175        1.5909  -11.4083  -41.9110 H         1 UNK         0.0600 
    176 H176        2.4667  -14.2116  -40.9792 H         1 UNK         0.0600 
    177 H177        2.9432  -12.6849  -40.2461 H         1 UNK         0.0600 
    178 H178        1.2724  -13.2125  -40.1591 H         1 UNK         0.0600 
    179 H179        2.9091  -13.0941  -43.8018 H         1 UNK         0.3000 
    180 H180        5.0583  -10.8125  -44.5540 H         1 UNK         0.0600 
    181 H181        6.7078  -12.7935  -42.9098 H         1 UNK         0.0600 
    182 H182        6.8436  -11.0449  -42.9114 H         1 UNK         0.0600 
    183 H183        7.2872  -11.9513  -44.3477 H         1 UNK         0.0600 
    184 H184        4.4030  -12.3754  -45.9174 H         1 UNK         0.3000 
    185 H185        5.4325  -15.1025  -46.8734 H         1 UNK         0.0600 
    186 H186        4.5435  -16.8750  -45.3926 H         1 UNK         0.0600 
    187 H187        2.9779  -16.0740  -45.3443 H         1 UNK         0.0600 
    188 H188        3.5664  -16.7750  -46.8494 H         1 UNK         0.0600 
    189 H189        2.6191  -14.1648  -46.8701 H         1 UNK         0.3000 
    190 H190       -1.5465  -20.5075  -47.4946 H         1 UNK         0.3000 
    191 H191       -2.3519  -21.7461  -49.8990 H         1 UNK         0.0600 
    192 H192       -4.2131  -20.6953  -47.7002 H         1 UNK         0.0600 
    193 H193       -4.5299  -20.7929  -49.4260 H         1 UNK         0.0600 
    194 H194       -3.3406  -19.6547  -48.8105 H         1 UNK         0.0600 
    195 H195       -3.0002  -22.6580  -46.4870 H         1 UNK         0.3000 
    196 H196       -4.6007  -24.9418  -47.0148 H         1 UNK         0.0600 
    197 H197       -4.1378  -25.5119  -44.6452 H         1 UNK         0.0600 
    198 H198       -4.5089  -23.8015  -44.8053 H         1 UNK         0.0600 
    199 H199       -2.8419  -24.3263  -44.5824 H         1 UNK         0.0600 
    200 H200       -1.0446  -24.6218  -46.5689 H         1 UNK         0.3000 
    201 H201       -0.3909  -27.3698  -46.8683 H         1 UNK         0.0600 
    202 H202        1.1774  -25.6800  -45.9461 H         1 UNK         0.0600 
    203 H203        1.2736  -24.8773  -47.5113 H         1 UNK         0.0600 
    204 H204        1.9025  -26.5075  -47.3161 H         1 UNK         0.0600 
    205 H205       -0.9245  -24.8083  -49.2738 H         1 UNK         0.3000 
    206 H206       -0.3554  -26.4810  -51.5892 H         1 UNK         0.0600 
    207 H207       -0.0081  -24.0020  -51.5896 H         1 UNK         0.0600 
    208 H208       -1.1403  -24.4900  -52.8395 H         1 UNK         0.0600 
    209 H209       -1.7358  -23.7528  -51.3587 H         1 UNK         0.0600 
    210 H210       -2.8388  -26.6999  -49.4150 H         1 UNK         0.3000 
    211 H211       -4.8714  -27.5323  -49.3077 H         1 UNK         0.0600 
    212 H212       -4.2797  -28.8509  -52.0101 H         1 UNK         0.0600 
    213 H213       -5.4696  -29.3777  -50.8274 H         1 UNK         0.0600 
    214 H214       -3.7596  -29.4734  -50.4443 H         1 UNK         0.0600 
    215 H215       -4.5919  -24.9049  -50.5032 H         1 UNK         0.3000 
    216 H216       -5.6126  -23.2590  -51.5077 H         1 UNK         0.0600 
    217 H217       -8.0657  -23.1428  -51.5127 H         1 UNK         0.0600 
    218 H218       -7.5255  -23.9108  -50.0303 H         1 UNK         0.0600 
    219 H219       -8.1993  -24.8873  -51.3360 H         1 UNK         0.0600 
    220 H220       -4.6173  -25.6448  -53.2371 H         1 UNK         0.3000 
    221 H221       -6.1200  -25.5048  -55.6929 H         1 UNK         0.0600 
    222 H222       -3.2359  -26.4219  -55.2044 H         1 UNK         0.0600 
    223 H223       -4.6627  -27.4459  -55.0439 H         1 UNK         0.0600 
    224 H224       -4.2234  -26.7848  -56.6126 H         1 UNK         0.0600 
    225 H225       -3.6457  -23.5582  -54.2448 H         1 UNK         0.3000 
    226 H226       -3.1666  -21.9122  -56.6697 H         1 UNK         0.0600 
    227 H227       -1.1990  -22.6458  -55.3132 H         1 UNK         0.0600 
    228 H228       -1.3817  -20.9015  -55.2835 H         1 UNK         0.0600 
    229 H229       -1.8810  -21.8637  -53.8877 H         1 UNK         0.0600 
    230 H230       -5.7347  -22.1266  -55.0449 H         1 UNK         0.3000 
    231 H231       -7.4893  -20.9104  -54.5818 H         1 UNK         0.0600 
    232 H232       -6.7037  -19.1945  -56.3003 H         1 UNK         0.0600 
    233 H233       -5.9544  -18.2906  -54.9844 H         1 UNK         0.0600 
    234 H234       -7.6936  -18.5278  -55.0165 H         1 UNK         0.0600 
    235 H235       -8.1654  -18.9571  -52.9663 H         1 UNK         0.3000 
    236 H236       -7.1579  -19.7809  -50.3320 H         1 UNK         0.0600 
    237 H237       -9.1504  -18.5333  -49.5288 H         1 UNK         0.0600 
    238 H238       -9.4984  -17.9876  -51.1667 H         1 UNK         0.0600 
    239 H239       -9.5997  -19.7008  -50.7616 H         1 UNK         0.0600 
    240 H240       -5.0497  -18.7095  -51.2674 H         1 UNK         0.3000 
    241 H241       -4.7544  -15.8685  -50.9879 H         1 UNK         0.0600 
    242 H242       -3.2764  -15.3472  -47.7557 H         1 UNK         0.3800 
    243 H243       -3.0728  -14.8505  -49.4134 H         1 UNK         0.3800 
    244 H244       -3.2045  -16.7801  -52.4518 H         1 UNK         0.0800 
    245 H245       -2.2177  -16.5022  -51.0484 H         1 UNK         0.0800 
    246 H246       -1.3230  -18.0213  -53.3791 H         1 UNK         0.0800 
    247 H247       -1.1627  -19.7453  -53.1981 H         1 UNK         0.0800 
@<TRIPOS>BOND
     1    1    2 1    
     2    1  127 1    
     3    1  128 1    
     4    1  129 1    
     5    2    3 2    
     6    2    4 am   BACKBONE|DICT|INTERRES
     7    4    5 1    
     8    4  130 1    
     9    5    6 1    
    10    5   65 1    
    11    5  131 1    
    12    6    7 1    
    13    6  132 1    
    14    6  133 1    
    15    7    8 1    
    16    8    9 1    
    17    8  134 1    
    18    8  135 1    
    19    9   10 ar   
    20    9   14 ar   
    21   10   11 ar   
    22   10  136 1    
    23   11   12 ar   
    24   11  126 1    
    25   12   13 ar   
    26   12  137 1    
    27   13   14 ar   
    28   13   15 1    
    29   14  138 1    
    30   15   16 1    
    31   15  139 1    
    32   15  140 1    
    33   16   17 1    
    34   17   18 1    
    35   17  141 1    
    36   17  142 1    
    37   18   19 1    
    38   18   67 1    
    39   18  143 1    
    40   19   20 am   BACKBONE|DICT|INTERRES
    41   19  144 1    
    42   20   21 2    
    43   20   22 1    
    44   22   23 1    
    45   22   24 1    
    46   22  145 1    
    47   23  146 1    
    48   23  147 1    
    49   23  148 1    
    50   24   25 am   BACKBONE|DICT|INTERRES
    51   24  149 1    
    52   25   26 2    
    53   25   27 1    
    54   27   28 1    
    55   27   29 1    
    56   27  150 1    
    57   28  151 1    
    58   28  152 1    
    59   28  153 1    
    60   29   30 am   BACKBONE|DICT|INTERRES
    61   29  154 1    
    62   30   31 2    
    63   30   32 1    
    64   32   33 1    
    65   32   34 1    
    66   32  155 1    
    67   33  156 1    
    68   33  157 1    
    69   33  158 1    
    70   34   35 am   BACKBONE|DICT|INTERRES
    71   34  159 1    
    72   35   36 2    
    73   35   37 1    
    74   37   38 1    
    75   37   39 1    
    76   37  160 1    
    77   38  161 1    
    78   38  162 1    
    79   38  163 1    
    80   39   40 am   BACKBONE|DICT|INTERRES
    81   39  164 1    
    82   40   41 2    
    83   40   42 1    
    84   42   43 1    
    85   42   44 1    
    86   42  165 1    
    87   43  166 1    
    88   43  167 1    
    89   43  168 1    
    90   44   45 am   BACKBONE|DICT|INTERRES
    91   44  169 1    
    92   45   46 2    
    93   45   47 1    
    94   47   48 1    
    95   47   49 1    
    96   47  170 1    
    97   48  171 1    
    98   48  172 1    
    99   48  173 1    
   100   49   50 am   BACKBONE|DICT|INTERRES
   101   49  174 1    
   102   50   51 2    
   103   50   52 1    
   104   52   53 1    
   105   52   54 1    
   106   52  175 1    
   107   53  176 1    
   108   53  177 1    
   109   53  178 1    
   110   54   55 am   BACKBONE|DICT|INTERRES
   111   54  179 1    
   112   55   56 2    
   113   55   57 1    
   114   57   58 1    
   115   57   59 1    
   116   57  180 1    
   117   58  181 1    
   118   58  182 1    
   119   58  183 1    
   120   59   60 am   BACKBONE|DICT|INTERRES
   121   59  184 1    
   122   60   61 2    
   123   60   62 1    
   124   62   63 1    
   125   62   64 1    
   126   62  185 1    
   127   63  186 1    
   128   63  187 1    
   129   63  188 1    
   130   64   65 am   BACKBONE|DICT|INTERRES
   131   64  189 1    
   132   65   66 2    
   133   67   68 2    
   134   67   69 am   BACKBONE|DICT|INTERRES
   135   69   70 1    
   136   69  190 1    
   137   70   71 1    
   138   70   72 1    
   139   70  191 1    
   140   71  192 1    
   141   71  193 1    
   142   71  194 1    
   143   72   73 2    
   144   72   74 am   BACKBONE|DICT|INTERRES
   145   74   75 1    
   146   74  195 1    
   147   75   76 1    
   148   75   77 1    
   149   75  196 1    
   150   76  197 1    
   151   76  198 1    
   152   76  199 1    
   153   77   78 2    
   154   77   79 am   BACKBONE|DICT|INTERRES
   155   79   80 1    
   156   79  200 1    
   157   80   81 1    
   158   80   82 1    
   159   80  201 1    
   160   81  202 1    
   161   81  203 1    
   162   81  204 1    
   163   82   83 2    
   164   82   84 am   BACKBONE|DICT|INTERRES
   165   84   85 1    
   166   84  205 1    
   167   85   86 1    
   168   85   87 1    
   169   85  206 1    
   170   86  207 1    
   171   86  208 1    
   172   86  209 1    
   173   87   88 2    
   174   87   89 am   BACKBONE|DICT|INTERRES
   175   89   90 1    
   176   89  210 1    
   177   90   91 1    
   178   90   92 1    
   179   90  211 1    
   180   91  212 1    
   181   91  213 1    
   182   91  214 1    
   183   92   93 2    
   184   92   94 am   BACKBONE|DICT|INTERRES
   185   94   95 1    
   186   94  215 1    
   187   95   96 1    
   188   95   97 1    
   189   95  216 1    
   190   96  217 1    
   191   96  218 1    
   192   96  219 1    
   193   97   98 2    
   194   97   99 am   BACKBONE|DICT|INTERRES
   195   99  100 1    
   196   99  220 1    
   197  100  101 1    
   198  100  102 1    
   199  100  221 1    
   200  101  222 1    
   201  101  223 1    
   202  101  224 1    
   203  102  103 2    
   204  102  104 am   BACKBONE|DICT|INTERRES
   205  104  105 1    
   206  104  225 1    
   207  105  106 1    
   208  105  107 1    
   209  105  226 1    
   210  106  227 1    
   211  106  228 1    
   212  106  229 1    
   213  107  108 2    
   214  107  109 am   BACKBONE|DICT|INTERRES
   215  109  110 1    
   216  109  230 1    
   217  110  111 1    
   218  110  112 1    
   219  110  231 1    
   220  111  232 1    
   221  111  233 1    
   222  111  234 1    
   223  112  113 2    
   224  112  114 am   BACKBONE|DICT|INTERRES
   225  114  115 1    
   226  114  235 1    
   227  115  116 1    
   228  115  117 1    
   229  115  236 1    
   230  116  237 1    
   231  116  238 1    
   232  116  239 1    
   233  117  118 2    
   234  117  119 am   BACKBONE|DICT|INTERRES
   235  119  120 1    
   236  119  240 1    
   237  120  121 1    
   238  120  124 1    
   239  120  241 1    
   240  121  122 am   BACKBONE|DICT|INTERRES
   241  121  123 2    
   242  122  242 1    
   243  122  243 1    
   244  124  125 1    
   245  124  244 1    
   246  124  245 1    
   247  125  126 1    
   248  126  246 1    
   249  126  247 1    
@<TRIPOS>SUBSTRUCTURE
     1 UNK         1 GROUP             0       ****    0 ROOT    
