@<TRIPOS>MOLECULE
3R540
247   249    1
SMALL
USER_CHARGES


@<TRIPOS>ATOM
      1 CA         -6.5708  -15.1278  -50.3884 C.3       0 UNK        -0.1800 
      2 C          -5.2399  -14.7532  -49.7532 C.2       0 UNK         0.5000 
      3 O          -5.1675  -13.7705  -49.0146 O.2       0 UNK        -0.5000 
      4 N          -4.1897  -15.5413  -50.0184 N.am      1 UNK        -0.5000 
      5 CA         -2.8352  -15.3663  -49.4789 C.3       1 UNK         0.1400 
      6 C6         -1.8152  -16.3056  -50.1702 C.3       23 UNK        -0.0398 
      7 S7         -0.1228  -15.6282  -50.1295 S.3       23 UNK        -0.2404 
      8 C8          0.7006  -16.7369  -48.9388 C.3       23 UNK        -0.0205 
      9 C9          1.5137  -17.8175  -49.6363 C.ar      23 UNK        -0.0193 
     10 C10         2.5936  -17.4537  -50.4446 C.ar      23 UNK        -0.1150 
     11 C11         3.3726  -18.4257  -51.0745 C.ar      23 UNK        -0.0193 
     12 C12         3.0823  -19.7766  -50.8707 C.ar      23 UNK        -0.1150 
     13 C13         2.0120  -20.1599  -50.0559 C.ar      23 UNK        -0.0193 
     14 C14         1.2213  -19.1729  -49.4519 C.ar      23 UNK        -0.1150 
     15 C15         1.7089  -21.6406  -49.8602 C.3       23 UNK        -0.0205 
     16 S16         1.9498  -22.1774  -48.1344 S.3       23 UNK        -0.2404 
     17 C17         0.2779  -21.9464  -47.4454 C.3       23 UNK        -0.0398 
     18 CA         -0.2942  -23.2613  -46.8713 C.3       11 UNK         0.1400 
     19 N           0.4305  -23.7100  -45.6791 N.am      11 UNK        -0.5000 
     20 C           0.3553  -24.9500  -45.1739 C.2       10 UNK         0.5000 
     21 O          -0.3209  -25.8465  -45.6756 O.2       10 UNK        -0.5000 
     22 CA          1.1077  -25.2196  -43.8550 C.3       10 UNK         0.1400 
     23 CB          2.5574  -25.6381  -44.1398 C.3       10 UNK        -0.1800 
     24 N           1.1083  -24.0698  -42.9491 N.am      10 UNK        -0.5000 
     25 C           0.0112  -23.4626  -42.4760 C.2       9 UNK         0.5000 
     26 O          -1.1290  -23.8834  -42.6705 O.2       9 UNK        -0.5000 
     27 CA          0.2030  -22.1362  -41.7131 C.3       9 UNK         0.1400 
     28 CB          0.0172  -22.3577  -40.2048 C.3       9 UNK        -0.1800 
     29 N           1.4901  -21.4675  -41.9428 N.am      9 UNK        -0.5000 
     30 C           1.9672  -21.0500  -43.1241 C.2       8 UNK         0.5000 
     31 O           1.3918  -21.2276  -44.2025 O.2       8 UNK        -0.5000 
     32 CA          3.3418  -20.3679  -43.0861 C.3       8 UNK         0.1400 
     33 CB          4.4506  -21.3784  -42.7341 C.3       8 UNK        -0.1800 
     34 N           3.6254  -19.7701  -44.3855 N.am      8 UNK        -0.5000 
     35 C           4.4475  -18.7385  -44.6049 C.2       7 UNK         0.5000 
     36 O           5.0554  -18.1522  -43.7063 O.2       7 UNK        -0.5000 
     37 CA          4.6802  -18.3104  -46.0701 C.3       7 UNK         0.1400 
     38 CB          3.7440  -18.9889  -47.0911 C.3       7 UNK        -0.1800 
     39 N           4.6725  -16.8540  -46.2379 N.am      7 UNK        -0.5000 
     40 C           3.6539  -16.0148  -46.0043 C.2       6 UNK         0.5000 
     41 O           2.5282  -16.3669  -45.6441 O.2       6 UNK        -0.5000 
     42 CA          3.9524  -14.5251  -46.2702 C.3       6 UNK         0.1400 
     43 CB          3.7714  -14.1920  -47.7609 C.3       6 UNK        -0.1800 
     44 N           3.1124  -13.6189  -45.4878 N.am      6 UNK        -0.5000 
     45 C           3.1408  -13.4800  -44.1551 C.2       5 UNK         0.5000 
     46 O           3.9211  -14.0919  -43.4242 O.2       5 UNK        -0.5000 
     47 CA          2.1636  -12.4604  -43.5291 C.3       5 UNK         0.1400 
     48 CB          2.9354  -11.2885  -42.8998 C.3       5 UNK        -0.1800 
     49 N           1.1996  -11.9167  -44.4914 N.am      5 UNK        -0.5000 
     50 C           0.0558  -12.5150  -44.8450 C.2       4 UNK         0.5000 
     51 O          -0.3354  -13.5803  -44.3633 O.2       4 UNK        -0.5000 
     52 CA         -0.7522  -11.8079  -45.9475 C.3       4 UNK         0.1400 
     53 CB         -0.1057  -12.0450  -47.3240 C.3       4 UNK        -0.1800 
     54 N          -2.1305  -12.2930  -45.9814 N.am      4 UNK        -0.5000 
     55 C          -3.1461  -11.7541  -45.2920 C.2       3 UNK         0.5000 
     56 O          -3.0275  -10.7524  -44.5843 O.2       3 UNK        -0.5000 
     57 CA         -4.5342  -12.4188  -45.4144 C.3       3 UNK         0.1400 
     58 CB         -5.4363  -11.6048  -46.3549 C.3       3 UNK        -0.1800 
     59 N          -4.4750  -13.7992  -45.8945 N.am      3 UNK        -0.5000 
     60 C          -4.0952  -14.8456  -45.1462 C.2       2 UNK         0.5000 
     61 O          -3.8638  -14.7668  -43.9393 O.2       2 UNK        -0.5000 
     62 CA         -3.9360  -16.2091  -45.8546 C.3       2 UNK         0.1400 
     63 CB         -5.1441  -17.1102  -45.5515 C.3       2 UNK        -0.1800 
     64 N          -3.7585  -16.1219  -47.3081 N.am      2 UNK        -0.5000 
     65 C          -2.7681  -15.4710  -47.9361 C.2       1 UNK         0.5000 
     66 O          -1.8553  -14.9099  -47.3341 O.2       1 UNK        -0.5000 
     67 C          -1.8063  -23.1180  -46.6087 C.2       11 UNK         0.5000 
     68 O          -2.5942  -23.3129  -47.5349 O.2       11 UNK        -0.5000 
     69 N          -2.1954  -22.7888  -45.3694 N.am      12 UNK        -0.5000 
     70 CA         -3.5941  -22.7348  -44.9440 C.3       12 UNK         0.1400 
     71 CB         -3.7300  -21.8663  -43.6844 C.3       12 UNK        -0.1800 
     72 C          -4.1638  -24.1455  -44.7259 C.2       12 UNK         0.5000 
     73 O          -5.2863  -24.4132  -45.1525 O.2       12 UNK        -0.5000 
     74 N          -3.3602  -25.0375  -44.1285 N.am      13 UNK        -0.5000 
     75 CA         -3.6761  -26.4557  -43.9372 C.3       13 UNK         0.1400 
     76 CB         -2.5921  -27.1065  -43.0651 C.3       13 UNK        -0.1800 
     77 C          -3.8407  -27.2175  -45.2675 C.2       13 UNK         0.5000 
     78 O          -4.7440  -28.0454  -45.3879 O.2       13 UNK        -0.5000 
     79 N          -2.9939  -26.8910  -46.2539 N.am      14 UNK        -0.5000 
     80 CA         -3.0643  -27.3975  -47.6272 C.3       14 UNK         0.1400 
     81 CB         -1.7084  -27.1551  -48.3099 C.3       14 UNK        -0.1800 
     82 C          -4.1960  -26.7654  -48.4651 C.2       14 UNK         0.5000 
     83 O          -4.4723  -27.2565  -49.5599 O.2       14 UNK        -0.5000 
     84 N          -4.8027  -25.6804  -47.9588 N.am      15 UNK        -0.5000 
     85 CA         -5.8331  -24.8470  -48.5897 C.3       15 UNK         0.1400 
     86 CB         -7.1275  -25.6479  -48.8384 C.3       15 UNK        -0.1800 
     87 C          -5.3403  -24.0958  -49.8459 C.2       15 UNK         0.5000 
     88 O          -6.1528  -23.6783  -50.6712 O.2       15 UNK        -0.5000 
     89 N          -4.0205  -23.8956  -49.9518 N.am      16 UNK        -0.5000 
     90 CA         -3.3759  -23.0903  -50.9870 C.3       16 UNK         0.1400 
     91 CB         -1.8870  -23.4619  -51.0663 C.3       16 UNK        -0.1800 
     92 C          -3.5435  -21.5903  -50.7003 C.2       16 UNK         0.5000 
     93 O          -3.8012  -20.8158  -51.6209 O.2       16 UNK        -0.5000 
     94 N          -3.4430  -21.2176  -49.4153 N.am      17 UNK        -0.5000 
     95 CA         -3.5838  -19.8431  -48.9291 C.3       17 UNK         0.1400 
     96 CB         -2.9796  -19.7345  -47.5217 C.3       17 UNK        -0.1800 
     97 C          -5.0304  -19.3119  -48.9545 C.2       17 UNK         0.5000 
     98 O          -5.2341  -18.1170  -48.7463 O.2       17 UNK        -0.5000 
     99 N          -6.0078  -20.1857  -49.2320 N.am      18 UNK        -0.5000 
    100 CA        -7.3901  -19.8042  -49.5293 C.3       18 UNK         0.1400 
    101 CB        -8.2849  -21.0486  -49.4236 C.3       18 UNK        -0.1800 
    102 C         -7.5339  -19.1441  -50.9185 C.2       18 UNK         0.5000 
    103 O         -8.5295  -18.4617  -51.1628 O.2       18 UNK        -0.5000 
    104 N         -6.5399  -19.3524  -51.7908 N.am      19 UNK        -0.5000 
    105 CA        -6.3869  -18.7211  -53.0953 C.3       19 UNK         0.1400 
    106 CB        -6.2695  -19.8347  -54.1531 C.3       19 UNK        -0.1800 
    107 C         -5.1419  -17.8123  -53.0736 C.2       19 UNK         0.5000 
    108 O         -4.5863  -17.5381  -52.0064 O.2       19 UNK        -0.5000 
    109 N         -4.7121  -17.3599  -54.2589 N.am      20 UNK        -0.5000 
    110 CA        -3.5217  -16.5254  -54.4612 C.3       20 UNK         0.1400 
    111 CB        -3.5295  -15.9994  -55.9053 C.3       20 UNK        -0.1800 
    112 C         -2.1847  -17.2353  -54.1508 C.2       20 UNK         0.5000 
    113 O         -1.1697  -16.5550  -54.0050 O.2       20 UNK        -0.5000 
    114 N         -2.2173  -18.5714  -54.0420 N.am      21 UNK        -0.5000 
    115 CA        -1.1120  -19.4691  -53.7110 C.3       21 UNK         0.1400 
    116 CB        -0.6168  -19.2227  -52.2727 C.3       21 UNK        -0.1800 
    117 C         -0.0066  -19.4530  -54.7872 C.2       21 UNK         0.5000 
    118 O         -0.3027  -19.7858  -55.9368 O.2       21 UNK        -0.5000 
    119 N          1.2369  -19.1291  -54.4063 N.am      22 UNK        -0.5000 
    120 CA         2.4113  -19.1172  -55.2922 C.3       22 UNK         0.1400 
    121 C          2.3411  -18.0826  -56.4564 C.2       22 UNK         0.5000 
    122 N          3.0613  -18.3229  -57.5448 N.am      22 UNK        -0.7600 
    123 O          1.6699  -17.0560  -56.3799 O.2       22 UNK        -0.5000 
    124 C124        3.7367  -19.0147  -54.4904 C.3       23 UNK        -0.0398 
    125 S125        3.9751  -17.4389  -53.5920 S.3       23 UNK        -0.2404 
    126 C126        4.5370  -18.0052  -51.9556 C.3       23 UNK        -0.0205 
    127 H127       -6.7995  -14.4509  -51.2111 H         1 UNK         0.0600 
    128 H128       -7.3716  -15.0585  -49.6525 H         1 UNK         0.0600 
    129 H129       -6.5597  -16.1473  -50.7728 H         1 UNK         0.0600 
    130 H130       -4.3262  -16.3460  -50.6289 H         1 UNK         0.3000 
    131 H131       -2.5597  -14.3383  -49.7247 H         1 UNK         0.0600 
    132 H132       -2.0733  -16.4261  -51.2228 H         1 UNK         0.0800 
    133 H133       -1.8358  -17.3077  -49.7452 H         1 UNK         0.0800 
    134 H134        1.3737  -16.1455  -48.3191 H         1 UNK         0.0800 
    135 H135       -0.0271  -17.1688  -48.2504 H         1 UNK         0.0800 
    136 H136        2.8243  -16.4074  -50.5889 H         1 UNK         0.1150 
    137 H137        3.6926  -20.5307  -51.3469 H         1 UNK         0.1150 
    138 H138        0.3888  -19.4561  -48.8264 H         1 UNK         0.1150 
    139 H139        0.6969  -21.8584  -50.2015 H         1 UNK         0.0800 
    140 H140        2.3654  -22.2440  -50.4887 H         1 UNK         0.0800 
    141 H141       -0.3736  -21.5711  -48.2346 H         1 UNK         0.0800 
    142 H142        0.3151  -21.1670  -46.6826 H         1 UNK         0.0800 
    143 H143       -0.1879  -24.0328  -47.6372 H         1 UNK         0.0600 
    144 H144        0.9764  -23.0058  -45.1940 H         1 UNK         0.3000 
    145 H145        0.6044  -26.0440  -43.3465 H         1 UNK         0.0600 
    146 H146        3.0781  -25.9085  -43.2211 H         1 UNK         0.0600 
    147 H147        2.5902  -26.5069  -44.7986 H         1 UNK         0.0600 
    148 H148        3.1200  -24.8379  -44.6228 H         1 UNK         0.0600 
    149 H149        2.0049  -23.6575  -42.7403 H         1 UNK         0.3000 
    150 H150       -0.5810  -21.4586  -42.0570 H         1 UNK         0.0600 
    151 H151        0.7940  -23.0044  -39.7950 H         1 UNK         0.0600 
    152 H152       -0.9452  -22.8258  -39.9930 H         1 UNK         0.0600 
    153 H153        0.0426  -21.4135  -39.6604 H         1 UNK         0.0600 
    154 H154        2.0432  -21.2930  -41.1159 H         1 UNK         0.3000 
    155 H155        3.3036  -19.5838  -42.3269 H         1 UNK         0.0600 
    156 H156        4.5074  -22.1824  -43.4691 H         1 UNK         0.0600 
    157 H157        4.2802  -21.8349  -41.7585 H         1 UNK         0.0600 
    158 H158        5.4273  -20.8959  -42.6932 H         1 UNK         0.0600 
    159 H159        3.0986  -20.1684  -45.1528 H         1 UNK         0.3000 
    160 H160        5.6956  -18.6300  -46.3084 H         1 UNK         0.0600 
    161 H161        2.6932  -18.7755  -46.8930 H         1 UNK         0.0600 
    162 H162        3.8725  -20.0714  -47.0886 H         1 UNK         0.0600 
    163 H163        3.9674  -18.6500  -48.1019 H         1 UNK         0.0600 
    164 H164        5.5595  -16.4558  -46.5118 H         1 UNK         0.3000 
    165 H165        4.9922  -14.3332  -45.9968 H         1 UNK         0.0600 
    166 H166        4.1141  -13.1809  -47.9812 H         1 UNK         0.0600 
    167 H167        4.3444  -14.8720  -48.3928 H         1 UNK         0.0600 
    168 H168        2.7272  -14.2619  -48.0662 H         1 UNK         0.0600 
    169 H169        2.4175  -13.0982  -45.9990 H         1 UNK         0.3000 
    170 H170        1.6233  -12.9757  -42.7321 H         1 UNK         0.0600 
    171 H171        3.6357  -11.6415  -42.1417 H         1 UNK         0.0600 
    172 H172        3.5097  -10.7377  -43.6457 H         1 UNK         0.0600 
    173 H173        2.2585  -10.5874  -42.4111 H         1 UNK         0.0600 
    174 H174        1.4526  -11.0418  -44.9288 H         1 UNK         0.3000 
    175 H175       -0.7477  -10.7341  -45.7486 H         1 UNK         0.0600 
    176 H176        0.8784  -11.5789  -47.3814 H         1 UNK         0.0600 
    177 H177        0.0258  -13.1066  -47.5358 H         1 UNK         0.0600 
    178 H178       -0.7109  -11.6179  -48.1239 H         1 UNK         0.0600 
    179 H179       -2.2691  -13.1774  -46.4602 H         1 UNK         0.3000 
    180 H180       -4.9900  -12.4145  -44.4221 H         1 UNK         0.0600 
    181 H181       -5.0209  -11.5506  -47.3619 H         1 UNK         0.0600 
    182 H182       -5.5559  -10.5824  -45.9942 H         1 UNK         0.0600 
    183 H183       -6.4319  -12.0431  -46.4259 H         1 UNK         0.0600 
    184 H184       -4.6569  -13.9426  -46.8815 H         1 UNK         0.3000 
    185 H185       -3.0423  -16.6817  -45.4424 H         1 UNK         0.0600 
    186 H186       -5.3154  -17.1910  -44.4773 H         1 UNK         0.0600 
    187 H187       -6.0571  -16.7191  -46.0022 H         1 UNK         0.0600 
    188 H188       -4.9928  -18.1212  -45.9279 H         1 UNK         0.0600 
    189 H189       -4.4546  -16.5972  -47.8776 H         1 UNK         0.3000 
    190 H190       -1.4960  -22.6858  -44.6482 H         1 UNK         0.3000 
    191 H191       -4.1842  -22.2664  -45.7338 H         1 UNK         0.0600 
    192 H192       -3.3469  -20.8605  -43.8574 H         1 UNK         0.0600 
    193 H193       -4.7765  -21.7693  -43.3931 H         1 UNK         0.0600 
    194 H194       -3.1943  -22.2881  -42.8345 H         1 UNK         0.0600 
    195 H195       -2.4719  -24.7136  -43.7558 H         1 UNK         0.3000 
    196 H196       -4.6254  -26.5141  -43.4008 H         1 UNK         0.0600 
    197 H197       -2.8351  -28.1487  -42.8547 H         1 UNK         0.0600 
    198 H198       -2.4949  -26.5942  -42.1076 H         1 UNK         0.0600 
    199 H199       -1.6182  -27.0894  -43.5540 H         1 UNK         0.0600 
    200 H200       -2.2182  -26.2703  -46.0429 H         1 UNK         0.3000 
    201 H201       -3.2434  -28.4740  -47.5922 H         1 UNK         0.0600 
    202 H202       -1.7018  -27.5520  -49.3259 H         1 UNK         0.0600 
    203 H203       -0.9000  -27.6448  -47.7668 H         1 UNK         0.0600 
    204 H204       -1.4752  -26.0915  -48.3715 H         1 UNK         0.0600 
    205 H205       -4.5118  -25.3711  -47.0406 H         1 UNK         0.3000 
    206 H206       -6.0693  -24.0710  -47.8604 H         1 UNK         0.0600 
    207 H207       -7.4523  -26.1614  -47.9334 H         1 UNK         0.0600 
    208 H208       -7.9411  -24.9898  -49.1459 H         1 UNK         0.0600 
    209 H209       -6.9999  -26.3948  -49.6221 H         1 UNK         0.0600 
    210 H210       -3.4354  -24.1909  -49.1790 H         1 UNK         0.3000 
    211 H211       -3.8396  -23.3082  -51.9514 H         1 UNK         0.0600 
    212 H212       -1.3765  -23.2946  -50.1174 H         1 UNK         0.0600 
    213 H213       -1.3755  -22.8683  -51.8253 H         1 UNK         0.0600 
    214 H214       -1.7588  -24.5113  -51.3322 H         1 UNK         0.0600 
    215 H215       -3.2467  -21.9332  -48.7218 H         1 UNK         0.3000 
    216 H216       -3.0073  -19.2029  -49.5962 H         1 UNK         0.0600 
    217 H217       -2.9673  -18.7021  -47.1786 H         1 UNK         0.0600 
    218 H218       -1.9481  -20.0774  -47.5016 H         1 UNK         0.0600 
    219 H219       -3.5462  -20.3133  -46.7941 H         1 UNK         0.0600 
    220 H220       -5.7581  -21.1495  -49.3943 H         1 UNK         0.3000 
    221 H221       -7.7196  -19.0798  -48.7814 H         1 UNK         0.0600 
    222 H222       -8.0277  -21.7942  -50.1764 H         1 UNK         0.0600 
    223 H223       -8.1999  -21.5165  -48.4427 H         1 UNK         0.0600 
    224 H224       -9.3336  -20.7867  -49.5691 H         1 UNK         0.0600 
    225 H225       -5.7243  -19.8672  -51.4797 H         1 UNK         0.3000 
    226 H226       -7.2510  -18.0962  -53.3283 H         1 UNK         0.0600 
    227 H227       -6.2541  -19.4299  -55.1652 H         1 UNK         0.0600 
    228 H228       -5.3628  -20.4259  -54.0161 H         1 UNK         0.0600 
    229 H229       -7.1188  -20.5161  -54.0979 H         1 UNK         0.0600 
    230 H230       -5.2199  -17.6193  -55.0922 H         1 UNK         0.3000 
    231 H231       -3.5941  -15.6700  -53.7859 H         1 UNK         0.0600 
    232 H232       -3.4751  -16.8134  -56.6292 H         1 UNK         0.0600 
    233 H233       -2.6781  -15.3420  -56.0871 H         1 UNK         0.0600 
    234 H234       -4.4317  -15.4234  -56.1118 H         1 UNK         0.0600 
    235 H235       -3.1057  -19.0241  -54.1955 H         1 UNK         0.3000 
    236 H236       -1.5333  -20.4753  -53.7314 H         1 UNK         0.0600 
    237 H237       -1.4403  -19.2676  -51.5609 H         1 UNK         0.0600 
    238 H238        0.0965  -19.9930  -51.9855 H         1 UNK         0.0600 
    239 H239       -0.1334  -18.2520  -52.1570 H         1 UNK         0.0600 
    240 H240        1.3924  -18.8117  -53.4605 H         1 UNK         0.3000 
    241 H241        2.4181  -20.0986  -55.7708 H         1 UNK         0.0600 
    242 H242        3.0361  -17.6582  -58.3027 H         1 UNK         0.3800 
    243 H243        3.6248  -19.1541  -57.6378 H         1 UNK         0.3800 
    244 H244        4.5895  -19.1504  -55.1572 H         1 UNK         0.0800 
    245 H245        3.7905  -19.8446  -53.7854 H         1 UNK         0.0800 
    246 H246        5.2578  -18.8166  -52.0682 H         1 UNK         0.0800 
    247 H247        5.0749  -17.1897  -51.4699 H         1 UNK         0.0800 
@<TRIPOS>BOND
     1    1    2 1    
     2    1  127 1    
     3    1  128 1    
     4    1  129 1    
     5    2    3 2    
     6    2    4 am   BACKBONE|DICT|INTERRES
     7    4    5 1    
     8    4  130 1    
     9    5    6 1    
    10    5   65 1    
    11    5  131 1    
    12    6    7 1    
    13    6  132 1    
    14    6  133 1    
    15    7    8 1    
    16    8    9 1    
    17    8  134 1    
    18    8  135 1    
    19    9   10 ar   
    20    9   14 ar   
    21   10   11 ar   
    22   10  136 1    
    23   11   12 ar   
    24   11  126 1    
    25   12   13 ar   
    26   12  137 1    
    27   13   14 ar   
    28   13   15 1    
    29   14  138 1    
    30   15   16 1    
    31   15  139 1    
    32   15  140 1    
    33   16   17 1    
    34   17   18 1    
    35   17  141 1    
    36   17  142 1    
    37   18   19 1    
    38   18   67 1    
    39   18  143 1    
    40   19   20 am   BACKBONE|DICT|INTERRES
    41   19  144 1    
    42   20   21 2    
    43   20   22 1    
    44   22   23 1    
    45   22   24 1    
    46   22  145 1    
    47   23  146 1    
    48   23  147 1    
    49   23  148 1    
    50   24   25 am   BACKBONE|DICT|INTERRES
    51   24  149 1    
    52   25   26 2    
    53   25   27 1    
    54   27   28 1    
    55   27   29 1    
    56   27  150 1    
    57   28  151 1    
    58   28  152 1    
    59   28  153 1    
    60   29   30 am   BACKBONE|DICT|INTERRES
    61   29  154 1    
    62   30   31 2    
    63   30   32 1    
    64   32   33 1    
    65   32   34 1    
    66   32  155 1    
    67   33  156 1    
    68   33  157 1    
    69   33  158 1    
    70   34   35 am   BACKBONE|DICT|INTERRES
    71   34  159 1    
    72   35   36 2    
    73   35   37 1    
    74   37   38 1    
    75   37   39 1    
    76   37  160 1    
    77   38  161 1    
    78   38  162 1    
    79   38  163 1    
    80   39   40 am   BACKBONE|DICT|INTERRES
    81   39  164 1    
    82   40   41 2    
    83   40   42 1    
    84   42   43 1    
    85   42   44 1    
    86   42  165 1    
    87   43  166 1    
    88   43  167 1    
    89   43  168 1    
    90   44   45 am   BACKBONE|DICT|INTERRES
    91   44  169 1    
    92   45   46 2    
    93   45   47 1    
    94   47   48 1    
    95   47   49 1    
    96   47  170 1    
    97   48  171 1    
    98   48  172 1    
    99   48  173 1    
   100   49   50 am   BACKBONE|DICT|INTERRES
   101   49  174 1    
   102   50   51 2    
   103   50   52 1    
   104   52   53 1    
   105   52   54 1    
   106   52  175 1    
   107   53  176 1    
   108   53  177 1    
   109   53  178 1    
   110   54   55 am   BACKBONE|DICT|INTERRES
   111   54  179 1    
   112   55   56 2    
   113   55   57 1    
   114   57   58 1    
   115   57   59 1    
   116   57  180 1    
   117   58  181 1    
   118   58  182 1    
   119   58  183 1    
   120   59   60 am   BACKBONE|DICT|INTERRES
   121   59  184 1    
   122   60   61 2    
   123   60   62 1    
   124   62   63 1    
   125   62   64 1    
   126   62  185 1    
   127   63  186 1    
   128   63  187 1    
   129   63  188 1    
   130   64   65 am   BACKBONE|DICT|INTERRES
   131   64  189 1    
   132   65   66 2    
   133   67   68 2    
   134   67   69 am   BACKBONE|DICT|INTERRES
   135   69   70 1    
   136   69  190 1    
   137   70   71 1    
   138   70   72 1    
   139   70  191 1    
   140   71  192 1    
   141   71  193 1    
   142   71  194 1    
   143   72   73 2    
   144   72   74 am   BACKBONE|DICT|INTERRES
   145   74   75 1    
   146   74  195 1    
   147   75   76 1    
   148   75   77 1    
   149   75  196 1    
   150   76  197 1    
   151   76  198 1    
   152   76  199 1    
   153   77   78 2    
   154   77   79 am   BACKBONE|DICT|INTERRES
   155   79   80 1    
   156   79  200 1    
   157   80   81 1    
   158   80   82 1    
   159   80  201 1    
   160   81  202 1    
   161   81  203 1    
   162   81  204 1    
   163   82   83 2    
   164   82   84 am   BACKBONE|DICT|INTERRES
   165   84   85 1    
   166   84  205 1    
   167   85   86 1    
   168   85   87 1    
   169   85  206 1    
   170   86  207 1    
   171   86  208 1    
   172   86  209 1    
   173   87   88 2    
   174   87   89 am   BACKBONE|DICT|INTERRES
   175   89   90 1    
   176   89  210 1    
   177   90   91 1    
   178   90   92 1    
   179   90  211 1    
   180   91  212 1    
   181   91  213 1    
   182   91  214 1    
   183   92   93 2    
   184   92   94 am   BACKBONE|DICT|INTERRES
   185   94   95 1    
   186   94  215 1    
   187   95   96 1    
   188   95   97 1    
   189   95  216 1    
   190   96  217 1    
   191   96  218 1    
   192   96  219 1    
   193   97   98 2    
   194   97   99 am   BACKBONE|DICT|INTERRES
   195   99  100 1    
   196   99  220 1    
   197  100  101 1    
   198  100  102 1    
   199  100  221 1    
   200  101  222 1    
   201  101  223 1    
   202  101  224 1    
   203  102  103 2    
   204  102  104 am   BACKBONE|DICT|INTERRES
   205  104  105 1    
   206  104  225 1    
   207  105  106 1    
   208  105  107 1    
   209  105  226 1    
   210  106  227 1    
   211  106  228 1    
   212  106  229 1    
   213  107  108 2    
   214  107  109 am   BACKBONE|DICT|INTERRES
   215  109  110 1    
   216  109  230 1    
   217  110  111 1    
   218  110  112 1    
   219  110  231 1    
   220  111  232 1    
   221  111  233 1    
   222  111  234 1    
   223  112  113 2    
   224  112  114 am   BACKBONE|DICT|INTERRES
   225  114  115 1    
   226  114  235 1    
   227  115  116 1    
   228  115  117 1    
   229  115  236 1    
   230  116  237 1    
   231  116  238 1    
   232  116  239 1    
   233  117  118 2    
   234  117  119 am   BACKBONE|DICT|INTERRES
   235  119  120 1    
   236  119  240 1    
   237  120  121 1    
   238  120  124 1    
   239  120  241 1    
   240  121  122 am   BACKBONE|DICT|INTERRES
   241  121  123 2    
   242  122  242 1    
   243  122  243 1    
   244  124  125 1    
   245  124  244 1    
   246  124  245 1    
   247  125  126 1    
   248  126  246 1    
   249  126  247 1    
@<TRIPOS>SUBSTRUCTURE
     1 UNK         1 GROUP             0       ****    0 ROOT    
