@<TRIPOS>MOLECULE
3R540
247   249    1
SMALL
USER_CHARGES


@<TRIPOS>ATOM
      1 CA         -5.0785  -11.2070  -48.3341 C.3       0 UNK        -0.1800 
      2 C          -3.5565  -11.1770  -48.3484 C.2       0 UNK         0.5000 
      3 O          -2.9665  -10.3302  -49.0202 O.2       0 UNK        -0.5000 
      4 N          -2.9217  -12.1021  -47.6189 N.am      1 UNK        -0.5000 
      5 CA         -1.4680  -12.2130  -47.4765 C.3       1 UNK         0.1400 
      6 C6         -1.0566  -13.5445  -46.8024 C.3       23 UNK        -0.0398 
      7 S7         -1.3583  -14.9787  -47.8850 S.3       23 UNK        -0.2404 
      8 C8          0.3359  -15.2849  -48.4667 C.3       23 UNK        -0.0205 
      9 C9          0.3989  -16.4166  -49.4783 C.ar      23 UNK        -0.0193 
     10 C10         0.2322  -16.1557  -50.8434 C.ar      23 UNK        -0.1150 
     11 C11         0.3651  -17.1808  -51.7872 C.ar      23 UNK        -0.0193 
     12 C12         0.6815  -18.4674  -51.3448 C.ar      23 UNK        -0.1150 
     13 C13         0.7932  -18.7531  -49.9836 C.ar      23 UNK        -0.0193 
     14 C14         0.6590  -17.7221  -49.0522 C.ar      23 UNK        -0.1150 
     15 C15         1.0665  -20.1782  -49.5374 C.3       23 UNK        -0.0205 
     16 S16        -0.4402  -21.1919  -49.6487 S.3       23 UNK        -0.2404 
     17 C17         0.2615  -22.8684  -49.4571 C.3       23 UNK        -0.0398 
     18 CA         -0.0508  -23.5440  -48.1022 C.3       11 UNK         0.1400 
     19 N           0.3227  -22.7118  -46.9537 N.am      11 UNK        -0.5000 
     20 C           1.4780  -22.8189  -46.2825 C.2       10 UNK         0.5000 
     21 O           2.3618  -23.6247  -46.5768 O.2       10 UNK        -0.5000 
     22 CA          1.7023  -21.8853  -45.0723 C.3       10 UNK         0.1400 
     23 CB          2.6407  -20.7278  -45.4470 C.3       10 UNK        -0.1800 
     24 N           0.4797  -21.3226  -44.5011 N.am      10 UNK        -0.5000 
     25 C          -0.5263  -22.0222  -43.9581 C.2       9 UNK         0.5000 
     26 O          -0.5275  -23.2471  -43.8422 O.2       9 UNK        -0.5000 
     27 CA         -1.7703  -21.2245  -43.5232 C.3       9 UNK         0.1400 
     28 CB         -1.6817  -20.8742  -42.0306 C.3       9 UNK        -0.1800 
     29 N          -1.9973  -19.9917  -44.2835 N.am      9 UNK        -0.5000 
     30 C          -2.0724  -19.8646  -45.6179 C.2       8 UNK         0.5000 
     31 O          -1.9668  -20.8068  -46.4020 O.2       8 UNK        -0.5000 
     32 CA         -2.2516  -18.4376  -46.1679 C.3       8 UNK         0.1400 
     33 CB         -3.7293  -18.1707  -46.4868 C.3       8 UNK        -0.1800 
     34 N          -1.7646  -17.4099  -45.2435 N.am      8 UNK        -0.5000 
     35 C          -0.4754  -17.2372  -44.9206 C.2       7 UNK         0.5000 
     36 O           0.4386  -17.8830  -45.4384 O.2       7 UNK        -0.5000 
     37 CA         -0.1784  -16.1709  -43.8437 C.3       7 UNK         0.1400 
     38 CB         -1.1480  -16.2527  -42.6446 C.3       7 UNK        -0.1800 
     39 N           1.2091  -16.1933  -43.3762 N.am      7 UNK        -0.5000 
     40 C           1.8651  -17.1979  -42.7735 C.2       6 UNK         0.5000 
     41 O           1.3583  -18.2755  -42.4575 O.2       6 UNK        -0.5000 
     42 CA          3.3438  -16.9312  -42.4505 C.3       6 UNK         0.1400 
     43 CB          4.1987  -16.9835  -43.7277 C.3       6 UNK        -0.1800 
     44 N           3.4948  -15.6200  -41.8215 N.am      6 UNK        -0.5000 
     45 C           3.5787  -15.4115  -40.5003 C.2       5 UNK         0.5000 
     46 O           3.6505  -16.3141  -39.6654 O.2       5 UNK        -0.5000 
     47 CA          3.5662  -13.9436  -40.0251 C.3       5 UNK         0.1400 
     48 CB          4.9983  -13.3963  -39.9275 C.3       5 UNK        -0.1800 
     49 N           2.7790  -13.0701  -40.8974 N.am      5 UNK        -0.5000 
     50 C           1.4487  -13.1390  -41.0480 C.2       4 UNK         0.5000 
     51 O           0.7255  -13.8686  -40.3698 O.2       4 UNK        -0.5000 
     52 CA          0.8155  -12.2687  -42.1531 C.3       4 UNK         0.1400 
     53 CB          0.0858  -11.0630  -41.5426 C.3       4 UNK        -0.1800 
     54 N           1.7518  -11.7832  -43.1724 N.am      4 UNK        -0.5000 
     55 C           2.4647  -12.5379  -44.0175 C.2       3 UNK         0.5000 
     56 O           2.4812  -13.7694  -43.9759 O.2       3 UNK        -0.5000 
     57 CA          3.2678  -11.7818  -45.0951 C.3       3 UNK         0.1400 
     58 CB          4.0904  -12.7300  -45.9862 C.3       3 UNK        -0.1800 
     59 N           2.3794  -10.9899  -45.9460 N.am      3 UNK        -0.5000 
     60 C           1.8406   -9.8024  -45.6334 C.2       2 UNK         0.5000 
     61 O           2.0898   -9.1944  -44.5917 O.2       2 UNK        -0.5000 
     62 CA          0.8136   -9.2308  -46.6295 C.3       2 UNK         0.1400 
     63 CB          1.5117   -8.3719  -47.6945 C.3       2 UNK        -0.1800 
     64 N           0.0426  -10.2896  -47.2873 N.am      2 UNK        -0.5000 
     65 C          -0.9008  -11.0223  -46.6796 C.2       1 UNK         0.5000 
     66 O          -1.2950  -10.8192  -45.5291 O.2       1 UNK        -0.5000 
     67 C          -1.4956  -24.0750  -48.0042 C.2       11 UNK         0.5000 
     68 O          -1.7870  -25.1264  -48.5783 O.2       11 UNK        -0.5000 
     69 N          -2.3719  -23.4153  -47.2310 N.am      12 UNK        -0.5000 
     70 CA         -3.7240  -23.8945  -46.9277 C.3       12 UNK         0.1400 
     71 CB         -4.5241  -22.7937  -46.2179 C.3       12 UNK        -0.1800 
     72 C          -3.7294  -25.1948  -46.1023 C.2       12 UNK         0.5000 
     73 O          -4.6409  -26.0048  -46.2653 O.2       12 UNK        -0.5000 
     74 N          -2.6810  -25.4148  -45.2938 N.am      13 UNK        -0.5000 
     75 CA         -2.4314  -26.6677  -44.5731 C.3       13 UNK         0.1400 
     76 CB         -1.2723  -26.4587  -43.5878 C.3       13 UNK        -0.1800 
     77 C          -2.1382  -27.8651  -45.5031 C.2       13 UNK         0.5000 
     78 O          -2.3683  -29.0077  -45.1067 O.2       13 UNK        -0.5000 
     79 N          -1.6661  -27.5834  -46.7257 N.am      14 UNK        -0.5000 
     80 CA         -1.4531  -28.5555  -47.7996 C.3       14 UNK         0.1400 
     81 CB         -0.1597  -28.1849  -48.5466 C.3       14 UNK        -0.1800 
     82 C          -2.6552  -28.6231  -48.7671 C.2       14 UNK         0.5000 
     83 O          -2.5639  -29.3060  -49.7878 O.2       14 UNK        -0.5000 
     84 N          -3.7484  -27.9127  -48.4422 N.am      15 UNK        -0.5000 
     85 CA         -4.9887  -27.7680  -49.2115 C.3       15 UNK         0.1400 
     86 CB         -5.7222  -29.1197  -49.3410 C.3       15 UNK        -0.1800 
     87 C          -4.7928  -27.0512  -50.5649 C.2       15 UNK         0.5000 
     88 O          -5.5396  -27.3114  -51.5100 O.2       15 UNK        -0.5000 
     89 N          -3.8069  -26.1477  -50.6320 N.am      16 UNK        -0.5000 
     90 CA         -3.4598  -25.3665  -51.8161 C.3       16 UNK         0.1400 
     91 CB         -2.1854  -25.9551  -52.4493 C.3       16 UNK        -0.1800 
     92 C          -3.3055  -23.8921  -51.4143 C.2       16 UNK         0.5000 
     93 O          -2.2628  -23.2928  -51.6696 O.2       16 UNK        -0.5000 
     94 N          -4.3396  -23.3546  -50.7546 N.am      17 UNK        -0.5000 
     95 CA         -4.3838  -22.0287  -50.1329 C.3       17 UNK         0.1400 
     96 CB         -5.7847  -21.8292  -49.5308 C.3       17 UNK        -0.1800 
     97 C          -4.0335  -20.8458  -51.0573 C.2       17 UNK         0.5000 
     98 O          -4.1195  -20.9514  -52.2853 O.2       17 UNK        -0.5000 
     99 N          -3.6786  -19.7201  -50.4249 N.am      18 UNK        -0.5000 
    100 CA        -3.3752  -18.4414  -51.0643 C.3       18 UNK         0.1400 
    101 CB        -3.0417  -17.4079  -49.9832 C.3       18 UNK        -0.1800 
    102 C         -4.5386  -17.9373  -51.9357 C.2       18 UNK         0.5000 
    103 O         -5.6969  -18.0406  -51.5257 O.2       18 UNK        -0.5000 
    104 N         -4.2060  -17.4432  -53.1339 N.am      19 UNK        -0.5000 
    105 CA        -5.0831  -16.9960  -54.2249 C.3       19 UNK         0.1400 
    106 CB        -6.0045  -15.8441  -53.7801 C.3       19 UNK        -0.1800 
    107 C         -5.8845  -18.1261  -54.9060 C.2       19 UNK         0.5000 
    108 O         -6.1016  -18.0563  -56.1163 O.2       19 UNK        -0.5000 
    109 N         -6.2917  -19.1490  -54.1434 N.am      20 UNK        -0.5000 
    110 CA        -6.9739  -20.3480  -54.6271 C.3       20 UNK         0.1400 
    111 CB        -7.5391  -21.1308  -53.4316 C.3       20 UNK        -0.1800 
    112 C         -6.0547  -21.2415  -55.4789 C.2       20 UNK         0.5000 
    113 O         -6.4983  -21.7591  -56.5051 O.2       20 UNK        -0.5000 
    114 N         -4.7946  -21.3896  -55.0510 N.am      21 UNK        -0.5000 
    115 CA        -3.7681  -22.1559  -55.7551 C.3       21 UNK         0.1400 
    116 CB        -3.8653  -23.6428  -55.3756 C.3       21 UNK        -0.1800 
    117 C         -2.3500  -21.6193  -55.5047 C.2       21 UNK         0.5000 
    118 O         -1.5314  -21.6786  -56.4231 O.2       21 UNK        -0.5000 
    119 N         -2.0764  -21.1119  -54.2928 N.am      22 UNK        -0.5000 
    120 CA        -0.7448  -20.6752  -53.8323 C.3       22 UNK         0.1400 
    121 C          0.3029  -21.8328  -53.8184 C.2       22 UNK         0.5000 
    122 N         -0.0197  -22.9763  -53.2322 N.am      22 UNK        -0.7600 
    123 O          1.4108  -21.7091  -54.3352 O.2       22 UNK        -0.5000 
    124 C124       -0.2215  -19.3966  -54.5592 C.3       23 UNK        -0.0398 
    125 S125       -1.1054  -17.8706  -54.0860 S.3       23 UNK        -0.2404 
    126 C126        0.2081  -16.8849  -53.2769 C.3       23 UNK        -0.0205 
    127 H127       -5.4626  -12.0126  -47.7078 H         1 UNK         0.0600 
    128 H128       -5.4606  -11.3509  -49.3448 H         1 UNK         0.0600 
    129 H129       -5.4687  -10.2637  -47.9518 H         1 UNK         0.0600 
    130 H130       -3.4630  -12.7662  -47.0849 H         1 UNK         0.3000 
    131 H131       -1.0333  -12.1917  -48.4786 H         1 UNK         0.0600 
    132 H132       -0.0020  -13.5334  -46.5190 H         1 UNK         0.0800 
    133 H133       -1.6110  -13.6894  -45.8736 H         1 UNK         0.0800 
    134 H134        0.7375  -14.3731  -48.9114 H         1 UNK         0.0800 
    135 H135        0.9733  -15.5182  -47.6118 H         1 UNK         0.0800 
    136 H136        0.0160  -15.1479  -51.1691 H         1 UNK         0.1150 
    137 H137        0.8362  -19.2619  -52.0544 H         1 UNK         0.1150 
    138 H138        0.7691  -17.9329  -47.9983 H         1 UNK         0.1150 
    139 H139        1.8482  -20.6039  -50.1682 H         1 UNK         0.0800 
    140 H140        1.4416  -20.2006  -48.5137 H         1 UNK         0.0800 
    141 H141        1.3433  -22.8188  -49.5827 H         1 UNK         0.0800 
    142 H142       -0.0865  -23.4903  -50.2822 H         1 UNK         0.0800 
    143 H143        0.5509  -24.4550  -48.0718 H         1 UNK         0.0600 
    144 H144       -0.3407  -21.9963  -46.6790 H         1 UNK         0.3000 
    145 H145        2.1854  -22.4793  -44.2940 H         1 UNK         0.0600 
    146 H146        2.8912  -20.1282  -44.5717 H         1 UNK         0.0600 
    147 H147        3.5769  -21.0978  -45.8668 H         1 UNK         0.0600 
    148 H148        2.1864  -20.0650  -46.1842 H         1 UNK         0.0600 
    149 H149        0.3841  -20.3171  -44.5578 H         1 UNK         0.3000 
    150 H150       -2.6373  -21.8687  -43.6682 H         1 UNK         0.0600 
    151 H151       -1.5316  -21.7699  -41.4263 H         1 UNK         0.0600 
    152 H152       -2.5978  -20.3980  -41.6807 H         1 UNK         0.0600 
    153 H153       -0.8510  -20.1968  -41.8265 H         1 UNK         0.0600 
    154 H154       -2.0824  -19.1491  -43.7356 H         1 UNK         0.3000 
    155 H155       -1.6768  -18.3659  -47.0933 H         1 UNK         0.0600 
    156 H156       -4.3539  -18.2446  -45.5957 H         1 UNK         0.0600 
    157 H157       -3.8664  -17.1755  -46.9097 H         1 UNK         0.0600 
    158 H158       -4.1087  -18.8899  -47.2138 H         1 UNK         0.0600 
    159 H159       -2.4653  -16.8308  -44.8048 H         1 UNK         0.3000 
    160 H160       -0.3134  -15.2006  -44.3223 H         1 UNK         0.0600 
    161 H161       -0.8763  -15.5340  -41.8717 H         1 UNK         0.0600 
    162 H162       -1.1474  -17.2434  -42.1888 H         1 UNK         0.0600 
    163 H163       -2.1726  -16.0249  -42.9389 H         1 UNK         0.0600 
    164 H164        1.7443  -15.3616  -43.6164 H         1 UNK         0.3000 
    165 H165        3.6926  -17.7190  -41.7795 H         1 UNK         0.0600 
    166 H166        5.2556  -16.8487  -43.4976 H         1 UNK         0.0600 
    167 H167        4.0944  -17.9468  -44.2278 H         1 UNK         0.0600 
    168 H168        3.9116  -16.2108  -44.4422 H         1 UNK         0.0600 
    169 H169        3.3906  -14.8184  -42.4318 H         1 UNK         0.3000 
    170 H170        3.1212  -13.9203  -39.0281 H         1 UNK         0.0600 
    171 H171        5.0070  -12.3826  -39.5263 H         1 UNK         0.0600 
    172 H172        5.4901  -13.3777  -40.9009 H         1 UNK         0.0600 
    173 H173        5.6068  -14.0124  -39.2640 H         1 UNK         0.0600 
    174 H174        3.2912  -12.4257  -41.4809 H         1 UNK         0.3000 
    175 H175        0.0762  -12.8912  -42.6612 H         1 UNK         0.0600 
    176 H176       -0.4495  -10.4992  -42.3072 H         1 UNK         0.0600 
    177 H177        0.7798  -10.3831  -41.0469 H         1 UNK         0.0600 
    178 H178       -0.6490  -11.3818  -40.8020 H         1 UNK         0.0600 
    179 H179        1.7917  -10.7782  -43.3048 H         1 UNK         0.3000 
    180 H180        3.9630  -11.1146  -44.5813 H         1 UNK         0.0600 
    181 H181        3.4530  -13.4263  -46.5329 H         1 UNK         0.0600 
    182 H182        4.7868  -13.3214  -45.3901 H         1 UNK         0.0600 
    183 H183        4.6806  -12.1733  -46.7142 H         1 UNK         0.0600 
    184 H184        2.1008  -11.4191  -46.8152 H         1 UNK         0.3000 
    185 H185        0.1249   -8.5921  -46.0720 H         1 UNK         0.0600 
    186 H186        2.2088   -8.9582  -48.2946 H         1 UNK         0.0600 
    187 H187        0.7872   -7.9165  -48.3701 H         1 UNK         0.0600 
    188 H188        2.0773   -7.5617  -47.2323 H         1 UNK         0.0600 
    189 H189        0.2806  -10.4896  -48.2484 H         1 UNK         0.3000 
    190 H190       -2.1229  -22.5067  -46.8458 H         1 UNK         0.3000 
    191 H191       -4.2184  -24.1134  -47.8759 H         1 UNK         0.0600 
    192 H192       -4.5365  -21.8718  -46.7989 H         1 UNK         0.0600 
    193 H193       -5.5607  -23.0996  -46.0717 H         1 UNK         0.0600 
    194 H194       -4.1110  -22.5646  -45.2373 H         1 UNK         0.0600 
    195 H195       -1.9780  -24.6938  -45.1985 H         1 UNK         0.3000 
    196 H196       -3.3280  -26.9113  -43.9994 H         1 UNK         0.0600 
    197 H197       -1.0621  -27.3714  -43.0287 H         1 UNK         0.0600 
    198 H198       -1.5093  -25.6819  -42.8606 H         1 UNK         0.0600 
    199 H199       -0.3550  -26.1681  -44.1018 H         1 UNK         0.0600 
    200 H200       -1.5411  -26.6144  -46.9880 H         1 UNK         0.3000 
    201 H201       -1.3227  -29.5536  -47.3768 H         1 UNK         0.0600 
    202 H202        0.6869  -28.1222  -47.8628 H         1 UNK         0.0600 
    203 H203       -0.2477  -27.2276  -49.0607 H         1 UNK         0.0600 
    204 H204        0.0876  -28.9360  -49.2977 H         1 UNK         0.0600 
    205 H205       -3.7309  -27.3905  -47.5748 H         1 UNK         0.3000 
    206 H206       -5.6289  -27.1105  -48.6220 H         1 UNK         0.0600 
    207 H207       -5.8475  -29.5948  -48.3680 H         1 UNK         0.0600 
    208 H208       -6.7181  -28.9853  -49.7646 H         1 UNK         0.0600 
    209 H209       -5.1850  -29.8139  -49.9876 H         1 UNK         0.0600 
    210 H210       -3.2313  -25.9740  -49.8136 H         1 UNK         0.3000 
    211 H211       -4.2619  -25.4073  -52.5554 H         1 UNK         0.0600 
    212 H212       -1.3405  -25.9132  -51.7604 H         1 UNK         0.0600 
    213 H213       -1.9061  -25.4100  -53.3517 H         1 UNK         0.0600 
    214 H214       -2.3333  -26.9974  -52.7323 H         1 UNK         0.0600 
    215 H215       -5.1589  -23.9285  -50.6259 H         1 UNK         0.3000 
    216 H216       -3.6513  -22.0336  -49.3245 H         1 UNK         0.0600 
    217 H217       -5.8518  -20.8872  -48.9849 H         1 UNK         0.0600 
    218 H218       -6.0362  -22.6247  -48.8298 H         1 UNK         0.0600 
    219 H219       -6.5532  -21.8127  -50.3044 H         1 UNK         0.0600 
    220 H220       -3.6443  -19.7240  -49.4177 H         1 UNK         0.3000 
    221 H221       -2.4913  -18.5961  -51.6829 H         1 UNK         0.0600 
    222 H222       -3.9012  -17.1991  -49.3461 H         1 UNK         0.0600 
    223 H223       -2.2253  -17.7512  -49.3498 H         1 UNK         0.0600 
    224 H224       -2.7294  -16.4637  -50.4307 H         1 UNK         0.0600 
    225 H225       -3.2218  -17.4447  -53.3750 H         1 UNK         0.3000 
    226 H226       -4.4109  -16.5970  -54.9862 H         1 UNK         0.0600 
    227 H227       -5.4320  -15.0299  -53.3358 H         1 UNK         0.0600 
    228 H228       -6.5476  -15.4330  -54.6319 H         1 UNK         0.0600 
    229 H229       -6.7470  -16.1704  -53.0517 H         1 UNK         0.0600 
    230 H230       -6.0991  -19.0965  -53.1487 H         1 UNK         0.3000 
    231 H231       -7.8106  -20.0317  -55.2536 H         1 UNK         0.0600 
    232 H232       -6.7482  -21.4806  -52.7681 H         1 UNK         0.0600 
    233 H233       -8.0949  -22.0068  -53.7679 H         1 UNK         0.0600 
    234 H234       -8.2223  -20.5170  -52.8445 H         1 UNK         0.0600 
    235 H235       -4.5297  -20.9668  -54.1663 H         1 UNK         0.3000 
    236 H236       -3.9417  -22.0667  -56.8299 H         1 UNK         0.0600 
    237 H237       -4.8277  -24.0655  -55.6642 H         1 UNK         0.0600 
    238 H238       -3.0900  -24.2277  -55.8721 H         1 UNK         0.0600 
    239 H239       -3.7461  -23.7810  -54.3030 H         1 UNK         0.0600 
    240 H240       -2.7893  -21.1454  -53.5693 H         1 UNK         0.3000 
    241 H241       -0.8873  -20.4252  -52.7814 H         1 UNK         0.0600 
    242 H242       -0.9018  -23.0739  -52.7270 H         1 UNK         0.3800 
    243 H243        0.6456  -23.7311  -53.2267 H         1 UNK         0.3800 
    244 H244        0.8390  -19.2418  -54.3599 H         1 UNK         0.0800 
    245 H245       -0.2885  -19.5116  -55.6410 H         1 UNK         0.0800 
    246 H246       -0.0376  -15.8317  -53.4202 H         1 UNK         0.0800 
    247 H247        1.1630  -17.0359  -53.7817 H         1 UNK         0.0800 
@<TRIPOS>BOND
     1    1    2 1    
     2    1  127 1    
     3    1  128 1    
     4    1  129 1    
     5    2    3 2    
     6    2    4 am   BACKBONE|DICT|INTERRES
     7    4    5 1    
     8    4  130 1    
     9    5    6 1    
    10    5   65 1    
    11    5  131 1    
    12    6    7 1    
    13    6  132 1    
    14    6  133 1    
    15    7    8 1    
    16    8    9 1    
    17    8  134 1    
    18    8  135 1    
    19    9   10 ar   
    20    9   14 ar   
    21   10   11 ar   
    22   10  136 1    
    23   11   12 ar   
    24   11  126 1    
    25   12   13 ar   
    26   12  137 1    
    27   13   14 ar   
    28   13   15 1    
    29   14  138 1    
    30   15   16 1    
    31   15  139 1    
    32   15  140 1    
    33   16   17 1    
    34   17   18 1    
    35   17  141 1    
    36   17  142 1    
    37   18   19 1    
    38   18   67 1    
    39   18  143 1    
    40   19   20 am   BACKBONE|DICT|INTERRES
    41   19  144 1    
    42   20   21 2    
    43   20   22 1    
    44   22   23 1    
    45   22   24 1    
    46   22  145 1    
    47   23  146 1    
    48   23  147 1    
    49   23  148 1    
    50   24   25 am   BACKBONE|DICT|INTERRES
    51   24  149 1    
    52   25   26 2    
    53   25   27 1    
    54   27   28 1    
    55   27   29 1    
    56   27  150 1    
    57   28  151 1    
    58   28  152 1    
    59   28  153 1    
    60   29   30 am   BACKBONE|DICT|INTERRES
    61   29  154 1    
    62   30   31 2    
    63   30   32 1    
    64   32   33 1    
    65   32   34 1    
    66   32  155 1    
    67   33  156 1    
    68   33  157 1    
    69   33  158 1    
    70   34   35 am   BACKBONE|DICT|INTERRES
    71   34  159 1    
    72   35   36 2    
    73   35   37 1    
    74   37   38 1    
    75   37   39 1    
    76   37  160 1    
    77   38  161 1    
    78   38  162 1    
    79   38  163 1    
    80   39   40 am   BACKBONE|DICT|INTERRES
    81   39  164 1    
    82   40   41 2    
    83   40   42 1    
    84   42   43 1    
    85   42   44 1    
    86   42  165 1    
    87   43  166 1    
    88   43  167 1    
    89   43  168 1    
    90   44   45 am   BACKBONE|DICT|INTERRES
    91   44  169 1    
    92   45   46 2    
    93   45   47 1    
    94   47   48 1    
    95   47   49 1    
    96   47  170 1    
    97   48  171 1    
    98   48  172 1    
    99   48  173 1    
   100   49   50 am   BACKBONE|DICT|INTERRES
   101   49  174 1    
   102   50   51 2    
   103   50   52 1    
   104   52   53 1    
   105   52   54 1    
   106   52  175 1    
   107   53  176 1    
   108   53  177 1    
   109   53  178 1    
   110   54   55 am   BACKBONE|DICT|INTERRES
   111   54  179 1    
   112   55   56 2    
   113   55   57 1    
   114   57   58 1    
   115   57   59 1    
   116   57  180 1    
   117   58  181 1    
   118   58  182 1    
   119   58  183 1    
   120   59   60 am   BACKBONE|DICT|INTERRES
   121   59  184 1    
   122   60   61 2    
   123   60   62 1    
   124   62   63 1    
   125   62   64 1    
   126   62  185 1    
   127   63  186 1    
   128   63  187 1    
   129   63  188 1    
   130   64   65 am   BACKBONE|DICT|INTERRES
   131   64  189 1    
   132   65   66 2    
   133   67   68 2    
   134   67   69 am   BACKBONE|DICT|INTERRES
   135   69   70 1    
   136   69  190 1    
   137   70   71 1    
   138   70   72 1    
   139   70  191 1    
   140   71  192 1    
   141   71  193 1    
   142   71  194 1    
   143   72   73 2    
   144   72   74 am   BACKBONE|DICT|INTERRES
   145   74   75 1    
   146   74  195 1    
   147   75   76 1    
   148   75   77 1    
   149   75  196 1    
   150   76  197 1    
   151   76  198 1    
   152   76  199 1    
   153   77   78 2    
   154   77   79 am   BACKBONE|DICT|INTERRES
   155   79   80 1    
   156   79  200 1    
   157   80   81 1    
   158   80   82 1    
   159   80  201 1    
   160   81  202 1    
   161   81  203 1    
   162   81  204 1    
   163   82   83 2    
   164   82   84 am   BACKBONE|DICT|INTERRES
   165   84   85 1    
   166   84  205 1    
   167   85   86 1    
   168   85   87 1    
   169   85  206 1    
   170   86  207 1    
   171   86  208 1    
   172   86  209 1    
   173   87   88 2    
   174   87   89 am   BACKBONE|DICT|INTERRES
   175   89   90 1    
   176   89  210 1    
   177   90   91 1    
   178   90   92 1    
   179   90  211 1    
   180   91  212 1    
   181   91  213 1    
   182   91  214 1    
   183   92   93 2    
   184   92   94 am   BACKBONE|DICT|INTERRES
   185   94   95 1    
   186   94  215 1    
   187   95   96 1    
   188   95   97 1    
   189   95  216 1    
   190   96  217 1    
   191   96  218 1    
   192   96  219 1    
   193   97   98 2    
   194   97   99 am   BACKBONE|DICT|INTERRES
   195   99  100 1    
   196   99  220 1    
   197  100  101 1    
   198  100  102 1    
   199  100  221 1    
   200  101  222 1    
   201  101  223 1    
   202  101  224 1    
   203  102  103 2    
   204  102  104 am   BACKBONE|DICT|INTERRES
   205  104  105 1    
   206  104  225 1    
   207  105  106 1    
   208  105  107 1    
   209  105  226 1    
   210  106  227 1    
   211  106  228 1    
   212  106  229 1    
   213  107  108 2    
   214  107  109 am   BACKBONE|DICT|INTERRES
   215  109  110 1    
   216  109  230 1    
   217  110  111 1    
   218  110  112 1    
   219  110  231 1    
   220  111  232 1    
   221  111  233 1    
   222  111  234 1    
   223  112  113 2    
   224  112  114 am   BACKBONE|DICT|INTERRES
   225  114  115 1    
   226  114  235 1    
   227  115  116 1    
   228  115  117 1    
   229  115  236 1    
   230  116  237 1    
   231  116  238 1    
   232  116  239 1    
   233  117  118 2    
   234  117  119 am   BACKBONE|DICT|INTERRES
   235  119  120 1    
   236  119  240 1    
   237  120  121 1    
   238  120  124 1    
   239  120  241 1    
   240  121  122 am   BACKBONE|DICT|INTERRES
   241  121  123 2    
   242  122  242 1    
   243  122  243 1    
   244  124  125 1    
   245  124  244 1    
   246  124  245 1    
   247  125  126 1    
   248  126  246 1    
   249  126  247 1    
@<TRIPOS>SUBSTRUCTURE
     1 UNK         1 GROUP             0       ****    0 ROOT    
