@<TRIPOS>MOLECULE
3R540
247   249    1
SMALL
USER_CHARGES


@<TRIPOS>ATOM
      1 CA          4.9150  -17.9023  -47.3238 C.3       0 UNK        -0.1800 
      2 C           4.3576  -16.5980  -47.8770 C.2       0 UNK         0.5000 
      3 O           5.0352  -15.9374  -48.6618 O.2       0 UNK        -0.5000 
      4 N           3.1338  -16.2484  -47.4623 N.am      1 UNK        -0.5000 
      5 CA          2.3577  -15.0515  -47.8142 C.3       1 UNK         0.1400 
      6 C6          1.8243  -15.0833  -49.2824 C.3       23 UNK        -0.0398 
      7 S7          2.6155  -14.0315  -50.5679 S.3       23 UNK        -0.2404 
      8 C8          3.5789  -15.1774  -51.6178 C.3       23 UNK        -0.0205 
      9 C9          2.8277  -16.4540  -51.9616 C.ar      23 UNK        -0.0193 
     10 C10         1.7764  -16.4421  -52.8805 C.ar      23 UNK        -0.1150 
     11 C11         1.0336  -17.6026  -53.1263 C.ar      23 UNK        -0.0193 
     12 C12         1.3665  -18.7872  -52.4577 C.ar      23 UNK        -0.1150 
     13 C13         2.4348  -18.8126  -51.5536 C.ar      23 UNK        -0.0193 
     14 C14         3.1683  -17.6478  -51.3253 C.ar      23 UNK        -0.1150 
     15 C15         2.8078  -20.0795  -50.7996 C.3       23 UNK        -0.0205 
     16 S16         2.3998  -19.9374  -49.0288 S.3       23 UNK        -0.2404 
     17 C17         0.6130  -20.2831  -49.0481 C.3       23 UNK        -0.0398 
     18 CA          0.2934  -21.5375  -48.2004 C.3       11 UNK         0.1400 
     19 N           0.2698  -21.2518  -46.7616 N.am      11 UNK        -0.5000 
     20 C           0.2440  -22.1892  -45.8033 C.2       10 UNK         0.5000 
     21 O           0.2803  -23.3977  -46.0294 O.2       10 UNK        -0.5000 
     22 CA          0.0981  -21.7020  -44.3499 C.3       10 UNK         0.1400 
     23 CB          1.4521  -21.2375  -43.7934 C.3       10 UNK        -0.1800 
     24 N          -0.8898  -20.6323  -44.2054 N.am      10 UNK        -0.5000 
     25 C          -2.1893  -20.7460  -44.5167 C.2       9 UNK         0.5000 
     26 O          -2.7105  -21.7920  -44.8972 O.2       9 UNK        -0.5000 
     27 CA         -3.0429  -19.4682  -44.4499 C.3       9 UNK         0.1400 
     28 CB         -3.6002  -19.2617  -43.0346 C.3       9 UNK        -0.1800 
     29 N          -2.3128  -18.2740  -44.8751 N.am      9 UNK        -0.5000 
     30 C          -1.7879  -18.0897  -46.0952 C.2       8 UNK         0.5000 
     31 O          -1.8952  -18.9049  -47.0149 O.2       8 UNK        -0.5000 
     32 CA         -0.9603  -16.8072  -46.2943 C.3       8 UNK         0.1400 
     33 CB         -1.8622  -15.5866  -46.5311 C.3       8 UNK        -0.1800 
     34 N          -0.0800  -16.5524  -45.1548 N.am      8 UNK        -0.5000 
     35 C           1.0536  -17.2267  -44.9209 C.2       7 UNK         0.5000 
     36 O           1.5326  -18.0443  -45.7059 O.2       7 UNK        -0.5000 
     37 CA          1.7791  -16.9412  -43.5947 C.3       7 UNK         0.1400 
     38 CB          2.8307  -15.8342  -43.7771 C.3       7 UNK        -0.1800 
     39 N           0.8519  -16.5740  -42.5229 N.am      7 UNK        -0.5000 
     40 C           0.0132  -17.4357  -41.9283 C.2       6 UNK         0.5000 
     41 O          -0.0447  -18.6317  -42.2100 O.2       6 UNK        -0.5000 
     42 CA         -0.9513  -16.8583  -40.8749 C.3       6 UNK         0.1400 
     43 CB         -0.2767  -16.8133  -39.4960 C.3       6 UNK        -0.1800 
     44 N          -1.4358  -15.5208  -41.2177 N.am      6 UNK        -0.5000 
     45 C          -2.1894  -15.2268  -42.2876 C.2       5 UNK         0.5000 
     46 O          -2.6030  -16.0691  -43.0821 O.2       5 UNK        -0.5000 
     47 CA         -2.4634  -13.7332  -42.5506 C.3       5 UNK         0.1400 
     48 CB         -3.7414  -13.2818  -41.8290 C.3       5 UNK        -0.1800 
     49 N          -1.3429  -12.8799  -42.1426 N.am      5 UNK        -0.5000 
     50 C          -0.1209  -12.9366  -42.6869 C.2       4 UNK         0.5000 
     51 O           0.1679  -13.6554  -43.6489 O.2       4 UNK        -0.5000 
     52 CA          0.9734  -12.1226  -41.9871 C.3       4 UNK         0.1400 
     53 CB          1.3977  -12.8215  -40.6786 C.3       4 UNK        -0.1800 
     54 N           2.1102  -12.0117  -42.8915 N.am      4 UNK        -0.5000 
     55 C           3.1664  -11.2065  -42.7412 C.2       3 UNK         0.5000 
     56 O           3.3120  -10.4312  -41.7951 O.2       3 UNK        -0.5000 
     57 CA          4.2440  -11.2749  -43.8380 C.3       3 UNK         0.1400 
     58 CB          5.2986  -12.3352  -43.4854 C.3       3 UNK        -0.1800 
     59 N           3.7099  -11.5645  -45.1697 N.am      3 UNK        -0.5000 
     60 C           2.9283  -10.7543  -45.8910 C.2       2 UNK         0.5000 
     61 O           2.5139   -9.6699  -45.4797 O.2       2 UNK        -0.5000 
     62 CA          2.5532  -11.2055  -47.3182 C.3       2 UNK         0.1400 
     63 CB          3.6374  -10.7735  -48.3238 C.3       2 UNK        -0.1800 
     64 N           2.2176  -12.6274  -47.4972 N.am      2 UNK        -0.5000 
     65 C           2.9936  -13.7139  -47.3573 C.2       1 UNK         0.5000 
     66 O           4.1250  -13.6824  -46.8674 O.2       1 UNK        -0.5000 
     67 C          -1.0090  -22.2091  -48.6711 C.2       11 UNK         0.5000 
     68 O          -0.9437  -23.1796  -49.4263 O.2       11 UNK        -0.5000 
     69 N          -2.1605  -21.7178  -48.1916 N.am      12 UNK        -0.5000 
     70 CA         -3.4717  -22.3032  -48.4765 C.3       12 UNK         0.1400 
     71 CB         -4.5799  -21.3802  -47.9502 C.3       12 UNK        -0.1800 
     72 C          -3.6140  -23.7302  -47.9122 C.2       12 UNK         0.5000 
     73 O          -4.1075  -24.6127  -48.6147 O.2       12 UNK        -0.5000 
     74 N          -3.1402  -23.9410  -46.6765 N.am      13 UNK        -0.5000 
     75 CA         -3.1017  -25.2378  -46.0022 C.3       13 UNK         0.1400 
     76 CB         -2.7031  -25.0475  -44.5311 C.3       13 UNK        -0.1800 
     77 C          -2.1654  -26.2409  -46.6971 C.2       13 UNK         0.5000 
     78 O          -2.5667  -27.3843  -46.9138 O.2       13 UNK        -0.5000 
     79 N          -0.9585  -25.7930  -47.0748 N.am      14 UNK        -0.5000 
     80 CA          0.0342  -26.5866  -47.8070 C.3       14 UNK         0.1400 
     81 CB          1.3472  -25.7972  -47.9179 C.3       14 UNK        -0.1800 
     82 C          -0.4508  -27.0236  -49.2018 C.2       14 UNK         0.5000 
     83 O          -0.1475  -28.1367  -49.6320 O.2       14 UNK        -0.5000 
     84 N          -1.2277  -26.1557  -49.8617 N.am      15 UNK        -0.5000 
     85 CA         -1.8918  -26.4270  -51.1355 C.3       15 UNK         0.1400 
     86 CB         -2.2136  -25.0870  -51.8118 C.3       15 UNK        -0.1800 
     87 C          -3.1741  -27.2727  -50.9970 C.2       15 UNK         0.5000 
     88 O          -3.7681  -27.6141  -52.0187 O.2       15 UNK        -0.5000 
     89 N          -3.6105  -27.5644  -49.7612 N.am      16 UNK        -0.5000 
     90 CA         -4.8544  -28.2584  -49.4049 C.3       16 UNK         0.1400 
     91 CB         -4.7856  -29.7447  -49.8124 C.3       16 UNK        -0.1800 
     92 C          -6.1056  -27.5346  -49.9492 C.2       16 UNK         0.5000 
     93 O          -7.0240  -28.1746  -50.4634 O.2       16 UNK        -0.5000 
     94 N          -6.0819  -26.1974  -49.8542 N.am      17 UNK        -0.5000 
     95 CA         -7.0596  -25.2203  -50.3422 C.3       17 UNK         0.1400 
     96 CB         -8.4599  -25.4716  -49.7471 C.3       17 UNK        -0.1800 
     97 C          -7.1032  -25.0522  -51.8760 C.2       17 UNK         0.5000 
     98 O          -7.8385  -24.1864  -52.3537 O.2       17 UNK        -0.5000 
     99 N          -6.2994  -25.8124  -52.6346 N.am      18 UNK        -0.5000 
    100 CA        -6.1838  -25.7142  -54.0926 C.3       18 UNK         0.1400 
    101 CB        -5.8180  -27.0931  -54.6704 C.3       18 UNK        -0.1800 
    102 C         -5.1878  -24.6069  -54.4969 C.2       18 UNK         0.5000 
    103 O         -4.2137  -24.8669  -55.2058 O.2       18 UNK        -0.5000 
    104 N         -5.4493  -23.3881  -54.0175 N.am      19 UNK        -0.5000 
    105 CA        -4.6798  -22.1785  -54.2793 C.3       19 UNK         0.1400 
    106 CB        -3.5641  -22.0177  -53.2235 C.3       19 UNK        -0.1800 
    107 C         -5.6613  -20.9989  -54.3649 C.2       19 UNK         0.5000 
    108 O         -6.6000  -21.0551  -55.1620 O.2       19 UNK        -0.5000 
    109 N         -5.4421  -19.9604  -53.5555 N.am      20 UNK        -0.5000 
    110 CA        -6.2364  -18.7410  -53.4886 C.3       20 UNK         0.1400 
    111 CB        -5.8501  -17.8072  -54.6560 C.3       20 UNK        -0.1800 
    112 C         -6.0095  -18.0837  -52.1172 C.2       20 UNK         0.5000 
    113 O         -5.3683  -18.6752  -51.2421 O.2       20 UNK        -0.5000 
    114 N         -6.4964  -16.8443  -51.9681 N.am      21 UNK        -0.5000 
    115 CA        -6.3413  -15.9910  -50.7832 C.3       21 UNK         0.1400 
    116 CB        -7.1647  -14.7097  -50.9906 C.3       21 UNK        -0.1800 
    117 C         -4.8795  -15.6439  -50.4205 C.2       21 UNK         0.5000 
    118 O         -4.6359  -15.1408  -49.3233 O.2       21 UNK        -0.5000 
    119 N         -3.9378  -15.9321  -51.3290 N.am      22 UNK        -0.5000 
    120 CA        -2.4899  -15.8996  -51.0901 C.3       22 UNK         0.1400 
    121 C         -1.9640  -16.9655  -50.0810 C.2       22 UNK         0.5000 
    122 N         -2.7454  -17.9639  -49.6833 N.am      22 UNK        -0.7600 
    123 O         -0.8299  -16.8628  -49.6315 O.2       22 UNK        -0.5000 
    124 C124       -1.6975  -15.9087  -52.4215 C.3       23 UNK        -0.0398 
    125 S125       -1.7608  -17.5037  -53.3219 S.3       23 UNK        -0.2404 
    126 C126       -0.1213  -17.5704  -54.1210 C.3       23 UNK        -0.0205 
    127 H127        5.8107  -17.7080  -46.7340 H         1 UNK         0.0600 
    128 H128        4.1926  -18.4155  -46.6881 H         1 UNK         0.0600 
    129 H129        5.1811  -18.5725  -48.1413 H         1 UNK         0.0600 
    130 H130        2.6504  -16.8934  -46.8452 H         1 UNK         0.3000 
    131 H131        1.4780  -15.1477  -47.1771 H         1 UNK         0.0600 
    132 H132        1.7443  -16.1141  -49.6212 H         1 UNK         0.0800 
    133 H133        0.7877  -14.7451  -49.2597 H         1 UNK         0.0800 
    134 H134        3.8488  -14.6613  -52.5400 H         1 UNK         0.0800 
    135 H135        4.5214  -15.4091  -51.1224 H         1 UNK         0.0800 
    136 H136        1.5182  -15.5189  -53.3800 H         1 UNK         0.1150 
    137 H137        0.7895  -19.6832  -52.6381 H         1 UNK         0.1150 
    138 H138        3.9827  -17.6640  -50.6153 H         1 UNK         0.1150 
    139 H139        2.3211  -20.9559  -51.2303 H         1 UNK         0.0800 
    140 H140        3.8811  -20.2478  -50.8988 H         1 UNK         0.0800 
    141 H141        0.2901  -20.4084  -50.0832 H         1 UNK         0.0800 
    142 H142        0.0817  -19.4054  -48.6787 H         1 UNK         0.0800 
    143 H143        1.0831  -22.2731  -48.3707 H         1 UNK         0.0600 
    144 H144        0.2257  -20.2778  -46.4951 H         1 UNK         0.3000 
    145 H145       -0.2430  -22.5480  -43.7499 H         1 UNK         0.0600 
    146 H146        1.3753  -20.9726  -42.7389 H         1 UNK         0.0600 
    147 H147        2.1994  -22.0277  -43.8758 H         1 UNK         0.0600 
    148 H148        1.8331  -20.3687  -44.3304 H         1 UNK         0.0600 
    149 H149       -0.5592  -19.7561  -43.8157 H         1 UNK         0.3000 
    150 H150       -3.8859  -19.5961  -45.1315 H         1 UNK         0.0600 
    151 H151       -4.1933  -20.1214  -42.7204 H         1 UNK         0.0600 
    152 H152       -4.2470  -18.3854  -42.9879 H         1 UNK         0.0600 
    153 H153       -2.8022  -19.1300  -42.3045 H         1 UNK         0.0600 
    154 H154       -2.2355  -17.5256  -44.1911 H         1 UNK         0.3000 
    155 H155       -0.3371  -16.9501  -47.1771 H         1 UNK         0.0600 
    156 H156       -1.2706  -14.6971  -46.7473 H         1 UNK         0.0600 
    157 H157       -2.4903  -15.3698  -45.6675 H         1 UNK         0.0600 
    158 H158       -2.5251  -15.7509  -47.3813 H         1 UNK         0.0600 
    159 H159       -0.3891  -15.8693  -44.4762 H         1 UNK         0.3000 
    160 H160        2.2985  -17.8548  -43.2972 H         1 UNK         0.0600 
    161 H161        2.3931  -14.9121  -44.1581 H         1 UNK         0.0600 
    162 H162        3.5993  -16.1427  -44.4868 H         1 UNK         0.0600 
    163 H163        3.3328  -15.6046  -42.8372 H         1 UNK         0.0600 
    164 H164        0.8061  -15.5968  -42.2765 H         1 UNK         0.3000 
    165 H165       -1.8148  -17.5229  -40.8111 H         1 UNK         0.0600 
    166 H166        0.5806  -16.1389  -39.4871 H         1 UNK         0.0600 
    167 H167       -0.9737  -16.4810  -38.7265 H         1 UNK         0.0600 
    168 H168        0.0801  -17.8020  -39.2040 H         1 UNK         0.0600 
    169 H169       -1.1489  -14.7661  -40.6129 H         1 UNK         0.3000 
    170 H170       -2.6122  -13.6075  -43.6252 H         1 UNK         0.0600 
    171 H171       -4.5949  -13.8905  -42.1310 H         1 UNK         0.0600 
    172 H172       -3.6452  -13.3654  -40.7458 H         1 UNK         0.0600 
    173 H173       -3.9831  -12.2456  -42.0663 H         1 UNK         0.0600 
    174 H174       -1.5060  -12.2647  -41.3582 H         1 UNK         0.3000 
    175 H175        0.5865  -11.1243  -41.7733 H         1 UNK         0.0600 
    176 H176        2.1491  -12.2437  -40.1408 H         1 UNK         0.0600 
    177 H177        0.5520  -12.9450  -40.0013 H         1 UNK         0.0600 
    178 H178        1.8150  -13.8111  -40.8691 H         1 UNK         0.0600 
    179 H179        2.0382  -12.5918  -43.7179 H         1 UNK         0.3000 
    180 H180        4.7367  -10.3013  -43.8784 H         1 UNK         0.0600 
    181 H181        4.8686  -13.3375  -43.4632 H         1 UNK         0.0600 
    182 H182        5.7359  -12.1424  -42.5049 H         1 UNK         0.0600 
    183 H183        6.1133  -12.3369  -44.2099 H         1 UNK         0.0600 
    184 H184        4.0151  -12.4271  -45.6181 H         1 UNK         0.3000 
    185 H185        1.6425  -10.6627  -47.5763 H         1 UNK         0.0600 
    186 H186        3.3333  -10.9903  -49.3479 H         1 UNK         0.0600 
    187 H187        3.8244   -9.7008  -48.2605 H         1 UNK         0.0600 
    188 H188        4.5854  -11.2809  -48.1422 H         1 UNK         0.0600 
    189 H189        1.2849  -12.7759  -47.8553 H         1 UNK         0.3000 
    190 H190       -2.1328  -20.9116  -47.5772 H         1 UNK         0.3000 
    191 H191       -3.5770  -22.3674  -49.5617 H         1 UNK         0.0600 
    192 H192       -4.5096  -20.3869  -48.3945 H         1 UNK         0.0600 
    193 H193       -5.5655  -21.7774  -48.1960 H         1 UNK         0.0600 
    194 H194       -4.5325  -21.2676  -46.8673 H         1 UNK         0.0600 
    195 H195       -2.8026  -23.1442  -46.1406 H         1 UNK         0.3000 
    196 H196       -4.1108  -25.6543  -46.0273 H         1 UNK         0.0600 
    197 H197       -2.6787  -26.0026  -44.0051 H         1 UNK         0.0600 
    198 H198       -3.4157  -24.4075  -44.0105 H         1 UNK         0.0600 
    199 H199       -1.7163  -24.5936  -44.4361 H         1 UNK         0.0600 
    200 H200       -0.6809  -24.8483  -46.8204 H         1 UNK         0.3000 
    201 H201        0.2288  -27.4912  -47.2275 H         1 UNK         0.0600 
    202 H202        1.7543  -25.5696  -46.9327 H         1 UNK         0.0600 
    203 H203        1.2051  -24.8549  -48.4480 H         1 UNK         0.0600 
    204 H204        2.1039  -26.3682  -48.4574 H         1 UNK         0.0600 
    205 H205       -1.3786  -25.2353  -49.4624 H         1 UNK         0.3000 
    206 H206       -1.2051  -26.9779  -51.7811 H         1 UNK         0.0600 
    207 H207       -1.3139  -24.4868  -51.9483 H         1 UNK         0.0600 
    208 H208       -2.6509  -25.2429  -52.7984 H         1 UNK         0.0600 
    209 H209       -2.9222  -24.5005  -51.2254 H         1 UNK         0.0600 
    210 H210       -3.0624  -27.2385  -48.9741 H         1 UNK         0.3000 
    211 H211       -4.9278  -28.2172  -48.3174 H         1 UNK         0.0600 
    212 H212       -4.7615  -29.8690  -50.8954 H         1 UNK         0.0600 
    213 H213       -5.6522  -30.2920  -49.4399 H         1 UNK         0.0600 
    214 H214       -3.8979  -30.2242  -49.3999 H         1 UNK         0.0600 
    215 H215       -5.2627  -25.7738  -49.4192 H         1 UNK         0.3000 
    216 H216       -6.7152  -24.2600  -49.9554 H         1 UNK         0.0600 
    217 H217       -8.4170  -25.5654  -48.6620 H         1 UNK         0.0600 
    218 H218       -8.9172  -26.3769  -50.1466 H         1 UNK         0.0600 
    219 H219       -9.1332  -24.6440  -49.9734 H         1 UNK         0.0600 
    220 H220       -5.6810  -26.4761  -52.1843 H         1 UNK         0.3000 
    221 H221       -7.1550  -25.4404  -54.5104 H         1 UNK         0.0600 
    222 H222       -4.8199  -27.4097  -54.3692 H         1 UNK         0.0600 
    223 H223       -6.5245  -27.8577  -54.3469 H         1 UNK         0.0600 
    224 H224       -5.8367  -27.0737  -55.7606 H         1 UNK         0.0600 
    225 H225       -6.3026  -23.2639  -53.4830 H         1 UNK         0.3000 
    226 H226       -4.2111  -22.2505  -55.2629 H         1 UNK         0.0600 
    227 H227       -2.8472  -22.8335  -53.2975 H         1 UNK         0.0600 
    228 H228       -2.9987  -21.0968  -53.3733 H         1 UNK         0.0600 
    229 H229       -3.9603  -22.0120  -52.2072 H         1 UNK         0.0600 
    230 H230       -4.7046  -20.0095  -52.8636 H         1 UNK         0.3000 
    231 H231       -7.2955  -18.9968  -53.5590 H         1 UNK         0.0600 
    232 H232       -6.4741  -16.9136  -54.6819 H         1 UNK         0.0600 
    233 H233       -5.9749  -18.3028  -55.6188 H         1 UNK         0.0600 
    234 H234       -4.8105  -17.4847  -54.5832 H         1 UNK         0.0600 
    235 H235       -7.0006  -16.4324  -52.7400 H         1 UNK         0.3000 
    236 H236       -6.7587  -16.5322  -49.9318 H         1 UNK         0.0600 
    237 H237       -7.1110  -14.0621  -50.1144 H         1 UNK         0.0600 
    238 H238       -6.8050  -14.1356  -51.8454 H         1 UNK         0.0600 
    239 H239       -8.2175  -14.9387  -51.1571 H         1 UNK         0.0600 
    240 H240       -4.2287  -16.3559  -52.1964 H         1 UNK         0.3000 
    241 H241       -2.2849  -14.9379  -50.6157 H         1 UNK         0.0600 
    242 H242       -3.6647  -18.1007  -50.0836 H         1 UNK         0.3800 
    243 H243       -2.4086  -18.5750  -48.9513 H         1 UNK         0.3800 
    244 H244       -2.0711  -15.1266  -53.0835 H         1 UNK         0.0800 
    245 H245       -0.6643  -15.6387  -52.2115 H         1 UNK         0.0800 
    246 H246       -0.0761  -18.4603  -54.7501 H         1 UNK         0.0800 
    247 H247       -0.0207  -16.7190  -54.7960 H         1 UNK         0.0800 
@<TRIPOS>BOND
     1    1    2 1    
     2    1  127 1    
     3    1  128 1    
     4    1  129 1    
     5    2    3 2    
     6    2    4 am   BACKBONE|DICT|INTERRES
     7    4    5 1    
     8    4  130 1    
     9    5    6 1    
    10    5   65 1    
    11    5  131 1    
    12    6    7 1    
    13    6  132 1    
    14    6  133 1    
    15    7    8 1    
    16    8    9 1    
    17    8  134 1    
    18    8  135 1    
    19    9   10 ar   
    20    9   14 ar   
    21   10   11 ar   
    22   10  136 1    
    23   11   12 ar   
    24   11  126 1    
    25   12   13 ar   
    26   12  137 1    
    27   13   14 ar   
    28   13   15 1    
    29   14  138 1    
    30   15   16 1    
    31   15  139 1    
    32   15  140 1    
    33   16   17 1    
    34   17   18 1    
    35   17  141 1    
    36   17  142 1    
    37   18   19 1    
    38   18   67 1    
    39   18  143 1    
    40   19   20 am   BACKBONE|DICT|INTERRES
    41   19  144 1    
    42   20   21 2    
    43   20   22 1    
    44   22   23 1    
    45   22   24 1    
    46   22  145 1    
    47   23  146 1    
    48   23  147 1    
    49   23  148 1    
    50   24   25 am   BACKBONE|DICT|INTERRES
    51   24  149 1    
    52   25   26 2    
    53   25   27 1    
    54   27   28 1    
    55   27   29 1    
    56   27  150 1    
    57   28  151 1    
    58   28  152 1    
    59   28  153 1    
    60   29   30 am   BACKBONE|DICT|INTERRES
    61   29  154 1    
    62   30   31 2    
    63   30   32 1    
    64   32   33 1    
    65   32   34 1    
    66   32  155 1    
    67   33  156 1    
    68   33  157 1    
    69   33  158 1    
    70   34   35 am   BACKBONE|DICT|INTERRES
    71   34  159 1    
    72   35   36 2    
    73   35   37 1    
    74   37   38 1    
    75   37   39 1    
    76   37  160 1    
    77   38  161 1    
    78   38  162 1    
    79   38  163 1    
    80   39   40 am   BACKBONE|DICT|INTERRES
    81   39  164 1    
    82   40   41 2    
    83   40   42 1    
    84   42   43 1    
    85   42   44 1    
    86   42  165 1    
    87   43  166 1    
    88   43  167 1    
    89   43  168 1    
    90   44   45 am   BACKBONE|DICT|INTERRES
    91   44  169 1    
    92   45   46 2    
    93   45   47 1    
    94   47   48 1    
    95   47   49 1    
    96   47  170 1    
    97   48  171 1    
    98   48  172 1    
    99   48  173 1    
   100   49   50 am   BACKBONE|DICT|INTERRES
   101   49  174 1    
   102   50   51 2    
   103   50   52 1    
   104   52   53 1    
   105   52   54 1    
   106   52  175 1    
   107   53  176 1    
   108   53  177 1    
   109   53  178 1    
   110   54   55 am   BACKBONE|DICT|INTERRES
   111   54  179 1    
   112   55   56 2    
   113   55   57 1    
   114   57   58 1    
   115   57   59 1    
   116   57  180 1    
   117   58  181 1    
   118   58  182 1    
   119   58  183 1    
   120   59   60 am   BACKBONE|DICT|INTERRES
   121   59  184 1    
   122   60   61 2    
   123   60   62 1    
   124   62   63 1    
   125   62   64 1    
   126   62  185 1    
   127   63  186 1    
   128   63  187 1    
   129   63  188 1    
   130   64   65 am   BACKBONE|DICT|INTERRES
   131   64  189 1    
   132   65   66 2    
   133   67   68 2    
   134   67   69 am   BACKBONE|DICT|INTERRES
   135   69   70 1    
   136   69  190 1    
   137   70   71 1    
   138   70   72 1    
   139   70  191 1    
   140   71  192 1    
   141   71  193 1    
   142   71  194 1    
   143   72   73 2    
   144   72   74 am   BACKBONE|DICT|INTERRES
   145   74   75 1    
   146   74  195 1    
   147   75   76 1    
   148   75   77 1    
   149   75  196 1    
   150   76  197 1    
   151   76  198 1    
   152   76  199 1    
   153   77   78 2    
   154   77   79 am   BACKBONE|DICT|INTERRES
   155   79   80 1    
   156   79  200 1    
   157   80   81 1    
   158   80   82 1    
   159   80  201 1    
   160   81  202 1    
   161   81  203 1    
   162   81  204 1    
   163   82   83 2    
   164   82   84 am   BACKBONE|DICT|INTERRES
   165   84   85 1    
   166   84  205 1    
   167   85   86 1    
   168   85   87 1    
   169   85  206 1    
   170   86  207 1    
   171   86  208 1    
   172   86  209 1    
   173   87   88 2    
   174   87   89 am   BACKBONE|DICT|INTERRES
   175   89   90 1    
   176   89  210 1    
   177   90   91 1    
   178   90   92 1    
   179   90  211 1    
   180   91  212 1    
   181   91  213 1    
   182   91  214 1    
   183   92   93 2    
   184   92   94 am   BACKBONE|DICT|INTERRES
   185   94   95 1    
   186   94  215 1    
   187   95   96 1    
   188   95   97 1    
   189   95  216 1    
   190   96  217 1    
   191   96  218 1    
   192   96  219 1    
   193   97   98 2    
   194   97   99 am   BACKBONE|DICT|INTERRES
   195   99  100 1    
   196   99  220 1    
   197  100  101 1    
   198  100  102 1    
   199  100  221 1    
   200  101  222 1    
   201  101  223 1    
   202  101  224 1    
   203  102  103 2    
   204  102  104 am   BACKBONE|DICT|INTERRES
   205  104  105 1    
   206  104  225 1    
   207  105  106 1    
   208  105  107 1    
   209  105  226 1    
   210  106  227 1    
   211  106  228 1    
   212  106  229 1    
   213  107  108 2    
   214  107  109 am   BACKBONE|DICT|INTERRES
   215  109  110 1    
   216  109  230 1    
   217  110  111 1    
   218  110  112 1    
   219  110  231 1    
   220  111  232 1    
   221  111  233 1    
   222  111  234 1    
   223  112  113 2    
   224  112  114 am   BACKBONE|DICT|INTERRES
   225  114  115 1    
   226  114  235 1    
   227  115  116 1    
   228  115  117 1    
   229  115  236 1    
   230  116  237 1    
   231  116  238 1    
   232  116  239 1    
   233  117  118 2    
   234  117  119 am   BACKBONE|DICT|INTERRES
   235  119  120 1    
   236  119  240 1    
   237  120  121 1    
   238  120  124 1    
   239  120  241 1    
   240  121  122 am   BACKBONE|DICT|INTERRES
   241  121  123 2    
   242  122  242 1    
   243  122  243 1    
   244  124  125 1    
   245  124  244 1    
   246  124  245 1    
   247  125  126 1    
   248  126  246 1    
   249  126  247 1    
@<TRIPOS>SUBSTRUCTURE
     1 UNK         1 GROUP             0       ****    0 ROOT    
