@<TRIPOS>MOLECULE
3R540
247   249    1
SMALL
USER_CHARGES


@<TRIPOS>ATOM
      1 CA         -4.2443  -16.6481  -45.9029 C.3       0 UNK        -0.1800 
      2 C          -2.9455  -16.1328  -46.5051 C.2       0 UNK         0.5000 
      3 O          -1.9062  -16.1845  -45.8492 O.2       0 UNK        -0.5000 
      4 N          -2.9976  -15.6265  -47.7449 N.am      1 UNK        -0.5000 
      5 CA         -1.8655  -15.0589  -48.4866 C.3       1 UNK         0.1400 
      6 C6         -0.8118  -16.1427  -48.8517 C.3       23 UNK        -0.0398 
      7 S7          0.2587  -15.6424  -50.2420 S.3       23 UNK        -0.2404 
      8 C8          1.5719  -16.9145  -50.1864 C.3       23 UNK        -0.0205 
      9 C9          1.1245  -18.3566  -50.4396 C.ar      23 UNK        -0.0193 
     10 C10        -0.0811  -18.6715  -51.0819 C.ar      23 UNK        -0.1150 
     11 C11        -0.4549  -20.0010  -51.2854 C.ar      23 UNK        -0.0193 
     12 C12         0.3895  -21.0234  -50.8526 C.ar      23 UNK        -0.1150 
     13 C13         1.6074  -20.7370  -50.2336 C.ar      23 UNK        -0.0193 
     14 C14         1.9704  -19.3984  -50.0395 C.ar      23 UNK        -0.1150 
     15 C15         2.5146  -21.9018  -49.8360 C.3       23 UNK        -0.0205 
     16 S16         3.4897  -21.6824  -48.3064 S.3       23 UNK        -0.2404 
     17 C17         2.2674  -21.1216  -47.0765 C.3       23 UNK        -0.0398 
     18 CA          1.3093  -22.2227  -46.5482 C.3       11 UNK         0.1400 
     19 N           0.9933  -22.0125  -45.1324 N.am      11 UNK        -0.5000 
     20 C           0.2872  -22.8410  -44.3508 C.2       10 UNK         0.5000 
     21 O          -0.1378  -23.9370  -44.7139 O.2       10 UNK        -0.5000 
     22 CA         -0.0356  -22.3269  -42.9354 C.3       10 UNK         0.1400 
     23 CB          1.1275  -22.6150  -41.9747 C.3       10 UNK        -0.1800 
     24 N          -0.3305  -20.8925  -42.9224 N.am      10 UNK        -0.5000 
     25 C          -1.4196  -20.3384  -43.4764 C.2       9 UNK         0.5000 
     26 O          -2.3203  -20.9856  -44.0072 O.2       9 UNK        -0.5000 
     27 CA         -1.4799  -18.8000  -43.4962 C.3       9 UNK         0.1400 
     28 CB         -2.0630  -18.2567  -42.1839 C.3       9 UNK        -0.1800 
     29 N          -0.1723  -18.1911  -43.7449 N.am      9 UNK        -0.5000 
     30 C           0.5352  -18.3562  -44.8718 C.2       8 UNK         0.5000 
     31 O           0.1367  -19.0083  -45.8355 O.2       8 UNK        -0.5000 
     32 CA          1.9423  -17.7422  -44.9195 C.3       8 UNK         0.1400 
     33 CB          1.9691  -16.4965  -45.8082 C.3       8 UNK        -0.1800 
     34 N           2.4533  -17.3893  -43.5981 N.am      8 UNK        -0.5000 
     35 C           3.0323  -18.2472  -42.7480 C.2       7 UNK         0.5000 
     36 O           3.0832  -19.4613  -42.9525 O.2       7 UNK        -0.5000 
     37 CA          3.6308  -17.6535  -41.4518 C.3       7 UNK         0.1400 
     38 CB          4.9203  -18.3760  -41.0128 C.3       7 UNK        -0.1800 
     39 N           3.8309  -16.1982  -41.5107 N.am      7 UNK        -0.5000 
     40 C           4.6380  -15.5033  -42.3306 C.2       6 UNK         0.5000 
     41 O           5.4492  -16.0264  -43.0950 O.2       6 UNK        -0.5000 
     42 CA          4.4762  -13.9686  -42.3462 C.3       6 UNK         0.1400 
     43 CB          4.1105  -13.4862  -43.7594 C.3       6 UNK        -0.1800 
     44 N           3.4241  -13.5194  -41.4338 N.am      6 UNK        -0.5000 
     45 C           3.6237  -13.0036  -40.2138 C.2       5 UNK         0.5000 
     46 O           4.7364  -12.7769  -39.7378 O.2       5 UNK        -0.5000 
     47 CA          2.3641  -12.7218  -39.3679 C.3       5 UNK         0.1400 
     48 CB          1.9027  -11.2693  -39.5606 C.3       5 UNK        -0.1800 
     49 N           1.2463  -13.6200  -39.6725 N.am      5 UNK        -0.5000 
     50 C           1.2558  -14.9495  -39.5005 C.2       4 UNK         0.5000 
     51 O           2.1986  -15.5657  -39.0059 O.2       4 UNK        -0.5000 
     52 CA          0.0434  -15.7373  -40.0298 C.3       4 UNK         0.1400 
     53 CB         -0.9358  -16.0539  -38.8905 C.3       4 UNK        -0.1800 
     54 N          -0.6812  -15.0633  -41.1101 N.am      4 UNK        -0.5000 
     55 C          -0.1869  -14.7660  -42.3197 C.2       3 UNK         0.5000 
     56 O           0.9748  -15.0127  -42.6578 O.2       3 UNK        -0.5000 
     57 CA         -1.1884  -14.1239  -43.2972 C.3       3 UNK         0.1400 
     58 CB         -1.8678  -12.8686  -42.7074 C.3       3 UNK        -0.1800 
     59 N          -0.6297  -13.8552  -44.6238 N.am      3 UNK        -0.5000 
     60 C           0.2361  -12.8986  -44.9939 C.2       2 UNK         0.5000 
     61 O           0.7403  -12.0920  -44.2114 O.2       2 UNK        -0.5000 
     62 CA          0.5872  -12.8015  -46.4989 C.3       2 UNK         0.1400 
     63 CB          2.1058  -12.8367  -46.7377 C.3       2 UNK        -0.1800 
     64 N          -0.0465  -13.8353  -47.3248 N.am      2 UNK        -0.5000 
     65 C          -1.3181  -13.8111  -47.7481 C.2       1 UNK         0.5000 
     66 O          -2.0779  -12.8621  -47.5442 O.2       1 UNK        -0.5000 
     67 C           0.0168  -22.2978  -47.3867 C.2       11 UNK         0.5000 
     68 O          -0.1865  -23.2627  -48.1246 O.2       11 UNK        -0.5000 
     69 N          -0.8548  -21.2946  -47.2093 N.am      12 UNK        -0.5000 
     70 CA         -2.1621  -21.1997  -47.8507 C.3       12 UNK         0.1400 
     71 CB         -2.7987  -19.8419  -47.5228 C.3       12 UNK        -0.1800 
     72 C          -3.0953  -22.3599  -47.4671 C.2       12 UNK         0.5000 
     73 O          -3.7400  -22.9217  -48.3503 O.2       12 UNK        -0.5000 
     74 N          -3.1207  -22.7306  -46.1785 N.am      13 UNK        -0.5000 
     75 CA         -3.8845  -23.8657  -45.6562 C.3       13 UNK         0.1400 
     76 CB         -3.8131  -23.8855  -44.1225 C.3       13 UNK        -0.1800 
     77 C          -3.4315  -25.2159  -46.2401 C.2       13 UNK         0.5000 
     78 O          -4.2815  -26.0209  -46.6215 O.2       13 UNK        -0.5000 
     79 N          -2.1110  -25.4234  -46.3530 N.am      14 UNK        -0.5000 
     80 CA         -1.5077  -26.6023  -46.9842 C.3       14 UNK         0.1400 
     81 CB          0.0107  -26.5891  -46.7521 C.3       14 UNK        -0.1800 
     82 C          -1.8300  -26.7134  -48.4882 C.2       14 UNK         0.5000 
     83 O          -1.9795  -27.8232  -48.9999 O.2       14 UNK        -0.5000 
     84 N          -1.9759  -25.5610  -49.1530 N.am      15 UNK        -0.5000 
     85 CA         -2.4107  -25.4259  -50.5436 C.3       15 UNK         0.1400 
     86 CB         -1.7806  -24.1504  -51.1211 C.3       15 UNK        -0.1800 
     87 C          -3.9469  -25.4176  -50.7113 C.2       15 UNK         0.5000 
     88 O          -4.4235  -25.1792  -51.8212 O.2       15 UNK        -0.5000 
     89 N          -4.6988  -25.6571  -49.6251 N.am      16 UNK        -0.5000 
     90 CA         -6.1641  -25.7123  -49.5486 C.3       16 UNK         0.1400 
     91 CB         -6.7050  -26.9189  -50.3439 C.3       16 UNK        -0.1800 
     92 C          -6.8580  -24.3841  -49.9243 C.2       16 UNK         0.5000 
     93 O          -7.9722  -24.3981  -50.4505 O.2       16 UNK        -0.5000 
     94 N          -6.1828  -23.2609  -49.6391 N.am      17 UNK        -0.5000 
     95 CA         -6.5943  -21.8748  -49.8794 C.3       17 UNK         0.1400 
     96 CB         -7.8132  -21.5066  -49.0088 C.3       17 UNK        -0.1800 
     97 C          -6.7927  -21.5277  -51.3704 C.2       17 UNK         0.5000 
     98 O          -7.5492  -20.6082  -51.6899 O.2       17 UNK        -0.5000 
     99 N          -6.0914  -22.2389  -52.2648 N.am      18 UNK        -0.5000 
    100 CA        -6.1354  -22.0696  -53.7198 C.3       18 UNK         0.1400 
    101 CB        -5.6341  -23.3654  -54.3814 C.3       18 UNK        -0.1800 
    102 C         -5.3571  -20.8258  -54.2030 C.2       18 UNK         0.5000 
    103 O         -4.5032  -20.9322  -55.0835 O.2       18 UNK        -0.5000 
    104 N         -5.6686  -19.6547  -53.6320 N.am      19 UNK        -0.5000 
    105 CA        -5.0031  -18.3706  -53.8770 C.3       19 UNK         0.1400 
    106 CB        -5.6463  -17.2930  -52.9928 C.3       19 UNK        -0.1800 
    107 C         -4.9882  -17.9291  -55.3538 C.2       19 UNK         0.5000 
    108 O         -4.0244  -17.2978  -55.7885 O.2       19 UNK        -0.5000 
    109 N         -6.0273  -18.3139  -56.1073 N.am      20 UNK        -0.5000 
    110 CA        -6.1398  -18.1008  -57.5511 C.3       20 UNK         0.1400 
    111 CB        -7.5667  -18.4541  -57.9975 C.3       20 UNK        -0.1800 
    112 C         -5.1047  -18.8952  -58.3747 C.2       20 UNK         0.5000 
    113 O         -4.7319  -18.4464  -59.4595 O.2       20 UNK        -0.5000 
    114 N         -4.6554  -20.0456  -57.8528 N.am      21 UNK        -0.5000 
    115 CA        -3.5852  -20.8524  -58.4368 C.3       21 UNK         0.1400 
    116 CB        -3.8104  -22.3353  -58.0995 C.3       21 UNK        -0.1800 
    117 C         -2.2063  -20.3813  -57.9441 C.2       21 UNK         0.5000 
    118 O         -1.2588  -20.3710  -58.7315 O.2       21 UNK        -0.5000 
    119 N         -2.1182  -19.9953  -56.6629 N.am      22 UNK        -0.5000 
    120 CA        -0.9000  -19.4533  -56.0369 C.3       22 UNK         0.1400 
    121 C         -0.4521  -18.0856  -56.6252 C.2       22 UNK         0.5000 
    122 N         -1.3698  -17.1694  -56.9093 N.am      22 UNK        -0.7600 
    123 O          0.7373  -17.8556  -56.8259 O.2       22 UNK        -0.5000 
    124 C124       -1.0158  -19.3447  -54.4961 C.3       23 UNK        -0.0398 
    125 S125       -1.4763  -20.9125  -53.6869 S.3       23 UNK        -0.2404 
    126 C126       -1.7623  -20.3412  -51.9837 C.3       23 UNK        -0.0205 
    127 H127       -5.0812  -16.5432  -46.5934 H         1 UNK         0.0600 
    128 H128       -4.4794  -16.0941  -44.9942 H         1 UNK         0.0600 
    129 H129       -4.1472  -17.7018  -45.6437 H         1 UNK         0.0600 
    130 H130       -3.8896  -15.5742  -48.2163 H         1 UNK         0.3000 
    131 H131       -2.2929  -14.6881  -49.4197 H         1 UNK         0.0600 
    132 H132       -0.2166  -16.4405  -47.9897 H         1 UNK         0.0800 
    133 H133       -1.3319  -17.0487  -49.1632 H         1 UNK         0.0800 
    134 H134        2.3227  -16.6580  -50.9347 H         1 UNK         0.0800 
    135 H135        2.0718  -16.8514  -49.2193 H         1 UNK         0.0800 
    136 H136       -0.7353  -17.8876  -51.4334 H         1 UNK         0.1150 
    137 H137        0.1042  -22.0506  -51.0207 H         1 UNK         0.1150 
    138 H138        2.9167  -19.1645  -49.5728 H         1 UNK         0.1150 
    139 H139        1.9290  -22.8162  -49.7317 H         1 UNK         0.0800 
    140 H140        3.2081  -22.0848  -50.6574 H         1 UNK         0.0800 
    141 H141        2.8672  -20.7386  -46.2499 H         1 UNK         0.0800 
    142 H142        1.7318  -20.2514  -47.4556 H         1 UNK         0.0800 
    143 H143        1.8093  -23.1911  -46.6175 H         1 UNK         0.0600 
    144 H144        1.2705  -21.1252  -44.7408 H         1 UNK         0.3000 
    145 H145       -0.9170  -22.8620  -42.5760 H         1 UNK         0.0600 
    146 H146        0.8804  -22.3158  -40.9560 H         1 UNK         0.0600 
    147 H147        1.3600  -23.6805  -41.9526 H         1 UNK         0.0600 
    148 H148        2.0353  -22.0864  -42.2687 H         1 UNK         0.0600 
    149 H149        0.3729  -20.2874  -42.5249 H         1 UNK         0.3000 
    150 H150       -2.1451  -18.5092  -44.3112 H         1 UNK         0.0600 
    151 H151       -3.0217  -18.7260  -41.9591 H         1 UNK         0.0600 
    152 H152       -2.2402  -17.1841  -42.2490 H         1 UNK         0.0600 
    153 H153       -1.4001  -18.4413  -41.3379 H         1 UNK         0.0600 
    154 H154        0.2282  -17.6272  -43.0113 H         1 UNK         0.3000 
    155 H155        2.6103  -18.4817  -45.3647 H         1 UNK         0.0600 
    156 H156        2.9649  -16.0535  -45.8292 H         1 UNK         0.0600 
    157 H157        1.2670  -15.7428  -45.4551 H         1 UNK         0.0600 
    158 H158        1.7077  -16.7506  -46.8337 H         1 UNK         0.0600 
    159 H159        2.3588  -16.4181  -43.3226 H         1 UNK         0.3000 
    160 H160        2.8832  -17.8213  -40.6756 H         1 UNK         0.0600 
    161 H161        5.6950  -18.3275  -41.7783 H         1 UNK         0.0600 
    162 H162        4.7283  -19.4307  -40.8121 H         1 UNK         0.0600 
    163 H163        5.3232  -17.9415  -40.0980 H         1 UNK         0.0600 
    164 H164        3.2429  -15.6656  -40.8825 H         1 UNK         0.3000 
    165 H165        5.4376  -13.5317  -42.0696 H         1 UNK         0.0600 
    166 H166        3.1718  -13.9264  -44.0969 H         1 UNK         0.0600 
    167 H167        3.9995  -12.4021  -43.7907 H         1 UNK         0.0600 
    168 H168        4.8804  -13.7549  -44.4836 H         1 UNK         0.0600 
    169 H169        2.4743  -13.6834  -41.7467 H         1 UNK         0.3000 
    170 H170        2.6322  -12.8627  -38.3187 H         1 UNK         0.0600 
    171 H171        2.7044  -10.5695  -39.3205 H         1 UNK         0.0600 
    172 H172        1.5970  -11.0779  -40.5902 H         1 UNK         0.0600 
    173 H173        1.0608  -11.0325  -38.9098 H         1 UNK         0.0600 
    174 H174        0.4299  -13.1998  -40.0914 H         1 UNK         0.3000 
    175 H175        0.4211  -16.6822  -40.4254 H         1 UNK         0.0600 
    176 H176       -1.3707  -15.1464  -38.4698 H         1 UNK         0.0600 
    177 H177       -1.7516  -16.6893  -39.2358 H         1 UNK         0.0600 
    178 H178       -0.4346  -16.5843  -38.0796 H         1 UNK         0.0600 
    179 H179       -1.6433  -14.8290  -40.9119 H         1 UNK         0.3000 
    180 H180       -1.9672  -14.8694  -43.4618 H         1 UNK         0.0600 
    181 H181       -1.1401  -12.1275  -42.3753 H         1 UNK         0.0600 
    182 H182       -2.4908  -13.1183  -41.8484 H         1 UNK         0.0600 
    183 H183       -2.5179  -12.3924  -43.4417 H         1 UNK         0.0600 
    184 H184       -0.9426  -14.5089  -45.3340 H         1 UNK         0.3000 
    185 H185        0.2294  -11.8259  -46.8343 H         1 UNK         0.0600 
    186 H186        2.3411  -12.6699  -47.7890 H         1 UNK         0.0600 
    187 H187        2.6129  -12.0570  -46.1679 H         1 UNK         0.0600 
    188 H188        2.5422  -13.7903  -46.4471 H         1 UNK         0.0600 
    189 H189        0.5210  -14.6397  -47.5444 H         1 UNK         0.3000 
    190 H190       -0.5884  -20.5184  -46.6072 H         1 UNK         0.3000 
    191 H191       -2.0021  -21.2471  -48.9289 H         1 UNK         0.0600 
    192 H192       -2.1626  -19.0208  -47.8535 H         1 UNK         0.0600 
    193 H193       -3.7633  -19.7297  -48.0191 H         1 UNK         0.0600 
    194 H194       -2.9614  -19.7251  -46.4513 H         1 UNK         0.0600 
    195 H195       -2.6064  -22.1792  -45.4973 H         1 UNK         0.3000 
    196 H196       -4.9279  -23.7179  -45.9425 H         1 UNK         0.0600 
    197 H197       -4.3872  -24.7185  -43.7149 H         1 UNK         0.0600 
    198 H198       -4.2242  -22.9699  -43.6972 H         1 UNK         0.0600 
    199 H199       -2.7874  -23.9890  -43.7686 H         1 UNK         0.0600 
    200 H200       -1.4686  -24.7297  -45.9817 H         1 UNK         0.3000 
    201 H201       -1.9176  -27.4879  -46.4945 H         1 UNK         0.0600 
    202 H202        0.2461  -26.5958  -45.6878 H         1 UNK         0.0600 
    203 H203        0.4784  -25.7079  -47.1917 H         1 UNK         0.0600 
    204 H204        0.4820  -27.4672  -47.1951 H         1 UNK         0.0600 
    205 H205       -1.7911  -24.6967  -48.6567 H         1 UNK         0.3000 
    206 H206       -2.0354  -26.2742  -51.1193 H         1 UNK         0.0600 
    207 H207       -0.6930  -24.2126  -51.0930 H         1 UNK         0.0600 
    208 H208       -2.0688  -23.9909  -52.1611 H         1 UNK         0.0600 
    209 H209       -2.0819  -23.2707  -50.5537 H         1 UNK         0.0600 
    210 H210       -4.2223  -25.8016  -48.7429 H         1 UNK         0.3000 
    211 H211       -6.4014  -25.8824  -48.4977 H         1 UNK         0.0600 
    212 H212       -6.5664  -26.7914  -51.4179 H         1 UNK         0.0600 
    213 H213       -7.7720  -27.0587  -50.1668 H         1 UNK         0.0600 
    214 H214       -6.2056  -27.8415  -50.0479 H         1 UNK         0.0600 
    215 H215       -5.2640  -23.3546  -49.2070 H         1 UNK         0.3000 
    216 H216       -5.7596  -21.2576  -49.5443 H         1 UNK         0.0600 
    217 H217       -7.6342  -21.7450  -47.9603 H         1 UNK         0.0600 
    218 H218       -8.7121  -22.0362  -49.3255 H         1 UNK         0.0600 
    219 H219       -8.0271  -20.4387  -49.0642 H         1 UNK         0.0600 
    220 H220       -5.4945  -22.9812  -51.9237 H         1 UNK         0.3000 
    221 H221       -7.1761  -21.9293  -54.0185 H         1 UNK         0.0600 
    222 H222       -4.5850  -23.5539  -54.1484 H         1 UNK         0.0600 
    223 H223       -6.2104  -24.2285  -54.0474 H         1 UNK         0.0600 
    224 H224       -5.7265  -23.3143  -55.4670 H         1 UNK         0.0600 
    225 H225       -6.3976  -19.6676  -52.9246 H         1 UNK         0.3000 
    226 H226       -3.9651  -18.4840  -53.5655 H         1 UNK         0.0600 
    227 H227       -5.5644  -17.5493  -51.9363 H         1 UNK         0.0600 
    228 H228       -5.1557  -16.3285  -53.1314 H         1 UNK         0.0600 
    229 H229       -6.7037  -17.1615  -53.2255 H         1 UNK         0.0600 
    230 H230       -6.7710  -18.8331  -55.6644 H         1 UNK         0.3000 
    231 H231       -5.9721  -17.0400  -57.7486 H         1 UNK         0.0600 
    232 H232       -7.6957  -18.2805  -59.0667 H         1 UNK         0.0600 
    233 H233       -8.3056  -17.8426  -57.4792 H         1 UNK         0.0600 
    234 H234       -7.8008  -19.5018  -57.8045 H         1 UNK         0.0600 
    235 H235       -4.9586  -20.3187  -56.9247 H         1 UNK         0.3000 
    236 H236       -3.6075  -20.7533  -59.5243 H         1 UNK         0.0600 
    237 H237       -4.7894  -22.6732  -58.4393 H         1 UNK         0.0600 
    238 H238       -3.0623  -22.9606  -58.5880 H         1 UNK         0.0600 
    239 H239       -3.7427  -22.5260  -57.0284 H         1 UNK         0.0600 
    240 H240       -2.9261  -20.1099  -56.0611 H         1 UNK         0.3000 
    241 H241       -0.0979  -20.1631  -56.2488 H         1 UNK         0.0600 
    242 H242       -1.0830  -16.2844  -57.2955 H         1 UNK         0.3800 
    243 H243       -2.3464  -17.3170  -56.6673 H         1 UNK         0.3800 
    244 H244       -1.7462  -18.5817  -54.2259 H         1 UNK         0.0800 
    245 H245       -0.0639  -19.0193  -54.0724 H         1 UNK         0.0800 
    246 H246       -2.4365  -19.4842  -51.9873 H         1 UNK         0.0800 
    247 H247       -2.2789  -21.1253  -51.4311 H         1 UNK         0.0800 
@<TRIPOS>BOND
     1    1    2 1    
     2    1  127 1    
     3    1  128 1    
     4    1  129 1    
     5    2    3 2    
     6    2    4 am   BACKBONE|DICT|INTERRES
     7    4    5 1    
     8    4  130 1    
     9    5    6 1    
    10    5   65 1    
    11    5  131 1    
    12    6    7 1    
    13    6  132 1    
    14    6  133 1    
    15    7    8 1    
    16    8    9 1    
    17    8  134 1    
    18    8  135 1    
    19    9   10 ar   
    20    9   14 ar   
    21   10   11 ar   
    22   10  136 1    
    23   11   12 ar   
    24   11  126 1    
    25   12   13 ar   
    26   12  137 1    
    27   13   14 ar   
    28   13   15 1    
    29   14  138 1    
    30   15   16 1    
    31   15  139 1    
    32   15  140 1    
    33   16   17 1    
    34   17   18 1    
    35   17  141 1    
    36   17  142 1    
    37   18   19 1    
    38   18   67 1    
    39   18  143 1    
    40   19   20 am   BACKBONE|DICT|INTERRES
    41   19  144 1    
    42   20   21 2    
    43   20   22 1    
    44   22   23 1    
    45   22   24 1    
    46   22  145 1    
    47   23  146 1    
    48   23  147 1    
    49   23  148 1    
    50   24   25 am   BACKBONE|DICT|INTERRES
    51   24  149 1    
    52   25   26 2    
    53   25   27 1    
    54   27   28 1    
    55   27   29 1    
    56   27  150 1    
    57   28  151 1    
    58   28  152 1    
    59   28  153 1    
    60   29   30 am   BACKBONE|DICT|INTERRES
    61   29  154 1    
    62   30   31 2    
    63   30   32 1    
    64   32   33 1    
    65   32   34 1    
    66   32  155 1    
    67   33  156 1    
    68   33  157 1    
    69   33  158 1    
    70   34   35 am   BACKBONE|DICT|INTERRES
    71   34  159 1    
    72   35   36 2    
    73   35   37 1    
    74   37   38 1    
    75   37   39 1    
    76   37  160 1    
    77   38  161 1    
    78   38  162 1    
    79   38  163 1    
    80   39   40 am   BACKBONE|DICT|INTERRES
    81   39  164 1    
    82   40   41 2    
    83   40   42 1    
    84   42   43 1    
    85   42   44 1    
    86   42  165 1    
    87   43  166 1    
    88   43  167 1    
    89   43  168 1    
    90   44   45 am   BACKBONE|DICT|INTERRES
    91   44  169 1    
    92   45   46 2    
    93   45   47 1    
    94   47   48 1    
    95   47   49 1    
    96   47  170 1    
    97   48  171 1    
    98   48  172 1    
    99   48  173 1    
   100   49   50 am   BACKBONE|DICT|INTERRES
   101   49  174 1    
   102   50   51 2    
   103   50   52 1    
   104   52   53 1    
   105   52   54 1    
   106   52  175 1    
   107   53  176 1    
   108   53  177 1    
   109   53  178 1    
   110   54   55 am   BACKBONE|DICT|INTERRES
   111   54  179 1    
   112   55   56 2    
   113   55   57 1    
   114   57   58 1    
   115   57   59 1    
   116   57  180 1    
   117   58  181 1    
   118   58  182 1    
   119   58  183 1    
   120   59   60 am   BACKBONE|DICT|INTERRES
   121   59  184 1    
   122   60   61 2    
   123   60   62 1    
   124   62   63 1    
   125   62   64 1    
   126   62  185 1    
   127   63  186 1    
   128   63  187 1    
   129   63  188 1    
   130   64   65 am   BACKBONE|DICT|INTERRES
   131   64  189 1    
   132   65   66 2    
   133   67   68 2    
   134   67   69 am   BACKBONE|DICT|INTERRES
   135   69   70 1    
   136   69  190 1    
   137   70   71 1    
   138   70   72 1    
   139   70  191 1    
   140   71  192 1    
   141   71  193 1    
   142   71  194 1    
   143   72   73 2    
   144   72   74 am   BACKBONE|DICT|INTERRES
   145   74   75 1    
   146   74  195 1    
   147   75   76 1    
   148   75   77 1    
   149   75  196 1    
   150   76  197 1    
   151   76  198 1    
   152   76  199 1    
   153   77   78 2    
   154   77   79 am   BACKBONE|DICT|INTERRES
   155   79   80 1    
   156   79  200 1    
   157   80   81 1    
   158   80   82 1    
   159   80  201 1    
   160   81  202 1    
   161   81  203 1    
   162   81  204 1    
   163   82   83 2    
   164   82   84 am   BACKBONE|DICT|INTERRES
   165   84   85 1    
   166   84  205 1    
   167   85   86 1    
   168   85   87 1    
   169   85  206 1    
   170   86  207 1    
   171   86  208 1    
   172   86  209 1    
   173   87   88 2    
   174   87   89 am   BACKBONE|DICT|INTERRES
   175   89   90 1    
   176   89  210 1    
   177   90   91 1    
   178   90   92 1    
   179   90  211 1    
   180   91  212 1    
   181   91  213 1    
   182   91  214 1    
   183   92   93 2    
   184   92   94 am   BACKBONE|DICT|INTERRES
   185   94   95 1    
   186   94  215 1    
   187   95   96 1    
   188   95   97 1    
   189   95  216 1    
   190   96  217 1    
   191   96  218 1    
   192   96  219 1    
   193   97   98 2    
   194   97   99 am   BACKBONE|DICT|INTERRES
   195   99  100 1    
   196   99  220 1    
   197  100  101 1    
   198  100  102 1    
   199  100  221 1    
   200  101  222 1    
   201  101  223 1    
   202  101  224 1    
   203  102  103 2    
   204  102  104 am   BACKBONE|DICT|INTERRES
   205  104  105 1    
   206  104  225 1    
   207  105  106 1    
   208  105  107 1    
   209  105  226 1    
   210  106  227 1    
   211  106  228 1    
   212  106  229 1    
   213  107  108 2    
   214  107  109 am   BACKBONE|DICT|INTERRES
   215  109  110 1    
   216  109  230 1    
   217  110  111 1    
   218  110  112 1    
   219  110  231 1    
   220  111  232 1    
   221  111  233 1    
   222  111  234 1    
   223  112  113 2    
   224  112  114 am   BACKBONE|DICT|INTERRES
   225  114  115 1    
   226  114  235 1    
   227  115  116 1    
   228  115  117 1    
   229  115  236 1    
   230  116  237 1    
   231  116  238 1    
   232  116  239 1    
   233  117  118 2    
   234  117  119 am   BACKBONE|DICT|INTERRES
   235  119  120 1    
   236  119  240 1    
   237  120  121 1    
   238  120  124 1    
   239  120  241 1    
   240  121  122 am   BACKBONE|DICT|INTERRES
   241  121  123 2    
   242  122  242 1    
   243  122  243 1    
   244  124  125 1    
   245  124  244 1    
   246  124  245 1    
   247  125  126 1    
   248  126  246 1    
   249  126  247 1    
@<TRIPOS>SUBSTRUCTURE
     1 UNK         1 GROUP             0       ****    0 ROOT    
