@<TRIPOS>MOLECULE
3R540
247   249    1
SMALL
USER_CHARGES


@<TRIPOS>ATOM
      1 CA         -1.5343  -18.7403  -49.9787 C.3       0 UNK        -0.1800 
      2 C          -1.3477  -17.2422  -49.8055 C.2       0 UNK         0.5000 
      3 O          -2.1739  -16.5922  -49.1657 O.2       0 UNK        -0.5000 
      4 N          -0.2667  -16.6973  -50.3801 N.am      1 UNK        -0.5000 
      5 CA          0.0281  -15.2591  -50.4836 C.3       1 UNK         0.1400 
      6 C6          1.3214  -14.9897  -51.2884 C.3       23 UNK        -0.0398 
      7 S7          1.3067  -15.7372  -52.9513 S.3       23 UNK        -0.2404 
      8 C8          2.7993  -16.7774  -52.8913 C.3       23 UNK        -0.0205 
      9 C9          2.5447  -18.1147  -52.2123 C.ar      23 UNK        -0.0193 
     10 C10         1.9204  -19.1360  -52.9291 C.ar      23 UNK        -0.1150 
     11 C11         1.7284  -20.3973  -52.3605 C.ar      23 UNK        -0.0193 
     12 C12         2.1625  -20.6317  -51.0518 C.ar      23 UNK        -0.1150 
     13 C13         2.8095  -19.6242  -50.3268 C.ar      23 UNK        -0.0193 
     14 C14         2.9855  -18.3625  -50.9079 C.ar      23 UNK        -0.1150 
     15 C15         3.4093  -19.9308  -48.9593 C.3       23 UNK        -0.0205 
     16 S16         2.6065  -19.0374  -47.5937 S.3       23 UNK        -0.2404 
     17 C17         1.0005  -19.8881  -47.4724 C.3       23 UNK        -0.0398 
     18 CA          1.0309  -21.3235  -46.8723 C.3       11 UNK         0.1400 
     19 N           1.8649  -21.4357  -45.6689 N.am      11 UNK        -0.5000 
     20 C           2.8465  -22.3266  -45.4833 C.2       10 UNK         0.5000 
     21 O           3.2168  -23.1298  -46.3411 O.2       10 UNK        -0.5000 
     22 CA          3.4904  -22.3254  -44.0812 C.3       10 UNK         0.1400 
     23 CB          4.7552  -23.2041  -43.9794 C.3       10 UNK        -0.1800 
     24 N           3.7330  -20.9688  -43.5816 N.am      10 UNK        -0.5000 
     25 C           4.5980  -20.0617  -44.0594 C.2       9 UNK         0.5000 
     26 O           5.3773  -20.2739  -44.9888 O.2       9 UNK        -0.5000 
     27 CA          4.5938  -18.6711  -43.3913 C.3       9 UNK         0.1400 
     28 CB          3.9660  -17.6310  -44.3289 C.3       9 UNK        -0.1800 
     29 N           3.8862  -18.6287  -42.1089 N.am      9 UNK        -0.5000 
     30 C           4.3548  -19.1272  -40.9562 C.2       8 UNK         0.5000 
     31 O           5.4405  -19.6975  -40.8473 O.2       8 UNK        -0.5000 
     32 CA          3.4491  -18.9742  -39.7234 C.3       8 UNK         0.1400 
     33 CB          3.5988  -17.5720  -39.1120 C.3       8 UNK        -0.1800 
     34 N           2.0455  -19.2048  -40.0649 N.am      8 UNK        -0.5000 
     35 C           1.4359  -20.3974  -40.0129 C.2       7 UNK         0.5000 
     36 O           1.9875  -21.4310  -39.6346 O.2       7 UNK        -0.5000 
     37 CA         -0.0368  -20.4522  -40.4681 C.3       7 UNK         0.1400 
     38 CB         -0.9790  -20.2366  -39.2746 C.3       7 UNK        -0.1800 
     39 N          -0.3523  -19.4726  -41.5085 N.am      7 UNK        -0.5000 
     40 C           0.1107  -19.5312  -42.7629 C.2       6 UNK         0.5000 
     41 O           0.7936  -20.4582  -43.1985 O.2       6 UNK        -0.5000 
     42 CA         -0.1973  -18.3422  -43.6873 C.3       6 UNK         0.1400 
     43 CB         -1.4007  -18.6496  -44.5803 C.3       6 UNK        -0.1800 
     44 N          -0.4158  -17.0601  -43.0123 N.am      6 UNK        -0.5000 
     45 C           0.4755  -16.4335  -42.2295 C.2       5 UNK         0.5000 
     46 O           1.5612  -16.9294  -41.9252 O.2       5 UNK        -0.5000 
     47 CA          0.1144  -15.0324  -41.6983 C.3       5 UNK         0.1400 
     48 CB          1.2064  -14.0108  -42.0565 C.3       5 UNK        -0.1800 
     49 N          -1.1717  -14.5473  -42.2044 N.am      5 UNK        -0.5000 
     50 C          -2.3489  -14.7131  -41.5855 C.2       4 UNK         0.5000 
     51 O          -2.4730  -15.2915  -40.5056 O.2       4 UNK        -0.5000 
     52 CA         -3.6040  -14.1562  -42.2899 C.3       4 UNK         0.1400 
     53 CB         -3.9603  -12.7696  -41.7328 C.3       4 UNK        -0.1800 
     54 N          -3.4749  -14.0633  -43.7462 N.am      4 UNK        -0.5000 
     55 C          -3.3601  -15.1108  -44.5733 C.2       3 UNK         0.5000 
     56 O          -3.3737  -16.2776  -44.1855 O.2       3 UNK        -0.5000 
     57 CA         -3.1682  -14.8167  -46.0765 C.3       3 UNK         0.1400 
     58 CB         -3.6501  -13.4118  -46.4995 C.3       3 UNK        -0.1800 
     59 N          -1.7863  -15.0252  -46.5220 N.am      3 UNK        -0.5000 
     60 C          -0.6727  -14.4809  -46.0028 C.2       2 UNK         0.5000 
     61 O          -0.6638  -13.7599  -45.0041 O.2       2 UNK        -0.5000 
     62 CA          0.6654  -14.7736  -46.7124 C.3       2 UNK         0.1400 
     63 CB          1.4940  -15.7934  -45.9254 C.3       2 UNK        -0.1800 
     64 N           0.5216  -15.2668  -48.0803 N.am      2 UNK        -0.5000 
     65 C           0.1216  -14.5324  -49.1256 C.2       1 UNK         0.5000 
     66 O          -0.1591  -13.3355  -49.0548 O.2       1 UNK        -0.5000 
     67 C          -0.4120  -21.7930  -46.5754 C.2       11 UNK         0.5000 
     68 O          -1.2935  -21.5727  -47.4041 O.2       11 UNK        -0.5000 
     69 N          -0.6516  -22.3616  -45.3823 N.am      12 UNK        -0.5000 
     70 CA         -1.9654  -22.6033  -44.7765 C.3       12 UNK         0.1400 
     71 CB         -1.7751  -23.3263  -43.4353 C.3       12 UNK        -0.1800 
     72 C          -2.9772  -23.3518  -45.6614 C.2       12 UNK         0.5000 
     73 O          -4.1369  -22.9457  -45.7212 O.2       12 UNK        -0.5000 
     74 N          -2.5203  -24.3992  -46.3603 N.am      13 UNK        -0.5000 
     75 CA         -3.3440  -25.1865  -47.2819 C.3       13 UNK         0.1400 
     76 CB         -2.5767  -26.4493  -47.7008 C.3       13 UNK        -0.1800 
     77 C          -3.7870  -24.3831  -48.5189 C.2       13 UNK         0.5000 
     78 O          -4.9387  -24.4911  -48.9402 O.2       13 UNK        -0.5000 
     79 N          -2.8730  -23.5638  -49.0537 N.am      14 UNK        -0.5000 
     80 CA         -3.1237  -22.6694  -50.1811 C.3       14 UNK         0.1400 
     81 CB         -1.7880  -22.1816  -50.7533 C.3       14 UNK        -0.1800 
     82 C          -4.0137  -21.4781  -49.7961 C.2       14 UNK         0.5000 
     83 O          -4.8420  -21.0560  -50.6026 O.2       14 UNK        -0.5000 
     84 N          -3.8378  -20.9674  -48.5710 N.am      15 UNK        -0.5000 
     85 CA         -4.6496  -19.8990  -47.9929 C.3       15 UNK         0.1400 
     86 CB         -3.9653  -19.3558  -46.7324 C.3       15 UNK        -0.1800 
     87 C          -6.0861  -20.3618  -47.6954 C.2       15 UNK         0.5000 
     88 O          -7.0256  -19.6176  -47.9730 O.2       15 UNK        -0.5000 
     89 N          -6.2384  -21.5974  -47.1951 N.am      16 UNK        -0.5000 
     90 CA         -7.5288  -22.2578  -46.9790 C.3       16 UNK         0.1400 
     91 CB         -7.3178  -23.5590  -46.1907 C.3       16 UNK        -0.1800 
     92 C          -8.2820  -22.5346  -48.2940 C.2       16 UNK         0.5000 
     93 O          -9.5020  -22.3746  -48.3412 O.2       16 UNK        -0.5000 
     94 N          -7.5382  -22.9046  -49.3463 N.am      17 UNK        -0.5000 
     95 CA         -8.0445  -23.0582  -50.7129 C.3       17 UNK         0.1400 
     96 CB         -7.0273  -23.8711  -51.5293 C.3       17 UNK        -0.1800 
     97 C          -8.3363  -21.7134  -51.4128 C.2       17 UNK         0.5000 
     98 O          -9.0284  -21.7065  -52.4314 O.2       17 UNK        -0.5000 
     99 N          -7.7920  -20.6154  -50.8664 N.am      18 UNK        -0.5000 
    100 CA        -7.8158  -19.2413  -51.3749 C.3       18 UNK         0.1400 
    101 CB        -9.2476  -18.6679  -51.3413 C.3       18 UNK        -0.1800 
    102 C         -7.1344  -19.1127  -52.7536 C.2       18 UNK         0.5000 
    103 O         -7.6331  -18.4010  -53.6275 O.2       18 UNK        -0.5000 
    104 N         -6.0151  -19.8296  -52.9269 N.am      19 UNK        -0.5000 
    105 CA        -5.2480  -19.8882  -54.1680 C.3       19 UNK         0.1400 
    106 CB        -4.3468  -21.1345  -54.1562 C.3       19 UNK        -0.1800 
    107 C         -4.4465  -18.5959  -54.4010 C.2       19 UNK         0.5000 
    108 O         -4.7526  -17.8542  -55.3349 O.2       19 UNK        -0.5000 
    109 N         -3.4430  -18.3590  -53.5399 N.am      20 UNK        -0.5000 
    110 CA        -2.5359  -17.2006  -53.5305 C.3       20 UNK         0.1400 
    111 CB        -3.2709  -15.9522  -53.0035 C.3       20 UNK        -0.1800 
    112 C         -1.8132  -16.9589  -54.8764 C.2       20 UNK         0.5000 
    113 O         -1.6572  -15.8160  -55.3102 O.2       20 UNK        -0.5000 
    114 N         -1.3905  -18.0564  -55.5096 N.am      21 UNK        -0.5000 
    115 CA        -0.6426  -18.0963  -56.7604 C.3       21 UNK         0.1400 
    116 CB        -1.5783  -17.9085  -57.9709 C.3       21 UNK        -0.1800 
    117 C          0.1013  -19.4337  -56.7716 C.2       21 UNK         0.5000 
    118 O          1.3110  -19.4456  -56.5445 O.2       21 UNK        -0.5000 
    119 N         -0.6773  -20.5206  -56.9094 N.am      22 UNK        -0.5000 
    120 CA        -0.3294  -21.9255  -56.6146 C.3       22 UNK         0.1400 
    121 C          1.0664  -22.4078  -57.1288 C.2       22 UNK         0.5000 
    122 N          1.7768  -23.2769  -56.4205 N.am      22 UNK        -0.7600 
    123 O          1.4823  -22.0554  -58.2305 O.2       22 UNK        -0.5000 
    124 C124       -0.7295  -22.3513  -55.1596 C.3       23 UNK        -0.0398 
    125 S125       -0.5043  -21.0890  -53.8543 S.3       23 UNK        -0.2404 
    126 C126        1.1341  -21.5205  -53.1988 C.3       23 UNK        -0.0205 
    127 H127       -0.7064  -19.1944  -50.5243 H         1 UNK         0.0600 
    128 H128       -1.6131  -19.2231  -49.0060 H         1 UNK         0.0600 
    129 H129       -2.4536  -18.9360  -50.5295 H         1 UNK         0.0600 
    130 H130        0.3780  -17.2954  -50.8788 H         1 UNK         0.3000 
    131 H131       -0.8062  -14.8074  -51.0242 H         1 UNK         0.0600 
    132 H132        1.4688  -13.9160  -51.4201 H         1 UNK         0.0800 
    133 H133        2.1917  -15.3458  -50.7345 H         1 UNK         0.0800 
    134 H134        3.6149  -16.2402  -52.4048 H         1 UNK         0.0800 
    135 H135        3.1327  -16.9581  -53.9145 H         1 UNK         0.0800 
    136 H136        1.6048  -18.9557  -53.9471 H         1 UNK         0.1150 
    137 H137        2.0428  -21.6138  -50.6164 H         1 UNK         0.1150 
    138 H138        3.5013  -17.5889  -50.3564 H         1 UNK         0.1150 
    139 H139        3.3872  -21.0014  -48.7510 H         1 UNK         0.0800 
    140 H140        4.4642  -19.6538  -48.9737 H         1 UNK         0.0800 
    141 H141        0.5670  -19.9191  -48.4716 H         1 UNK         0.0800 
    142 H142        0.3532  -19.2365  -46.8847 H         1 UNK         0.0800 
    143 H143        1.4090  -21.9927  -47.6471 H         1 UNK         0.0600 
    144 H144        1.6044  -20.8494  -44.8812 H         1 UNK         0.3000 
    145 H145        2.7455  -22.7575  -43.4114 H         1 UNK         0.0600 
    146 H146        5.1774  -23.1717  -42.9750 H         1 UNK         0.0600 
    147 H147        4.5223  -24.2464  -44.1998 H         1 UNK         0.0600 
    148 H148        5.5293  -22.8904  -44.6799 H         1 UNK         0.0600 
    149 H149        3.1069  -20.6639  -42.8485 H         1 UNK         0.3000 
    150 H150        5.6342  -18.3883  -43.2181 H         1 UNK         0.0600 
    151 H151        4.5131  -17.5694  -45.2705 H         1 UNK         0.0600 
    152 H152        3.9703  -16.6365  -43.8824 H         1 UNK         0.0600 
    153 H153        2.9357  -17.8885  -44.5680 H         1 UNK         0.0600 
    154 H154        3.0071  -18.1183  -42.0931 H         1 UNK         0.3000 
    155 H155        3.7711  -19.7016  -38.9750 H         1 UNK         0.0600 
    156 H156        3.2995  -16.7892  -39.8099 H         1 UNK         0.0600 
    157 H157        4.6342  -17.3796  -38.8282 H         1 UNK         0.0600 
    158 H158        2.9909  -17.4685  -38.2131 H         1 UNK         0.0600 
    159 H159        1.5434  -18.4139  -40.4489 H         1 UNK         0.3000 
    160 H160       -0.2199  -21.4505  -40.8705 H         1 UNK         0.0600 
    161 H161       -2.0222  -20.3484  -39.5707 H         1 UNK         0.0600 
    162 H162       -0.8572  -19.2439  -38.8393 H         1 UNK         0.0600 
    163 H163       -0.7856  -20.9666  -38.4874 H         1 UNK         0.0600 
    164 H164       -0.9104  -18.6765  -41.2366 H         1 UNK         0.3000 
    165 H165        0.6753  -18.2312  -44.3280 H         1 UNK         0.0600 
    166 H166       -1.5380  -17.8721  -45.3316 H         1 UNK         0.0600 
    167 H167       -1.2694  -19.5870  -45.1124 H         1 UNK         0.0600 
    168 H168       -2.3212  -18.7324  -44.0016 H         1 UNK         0.0600 
    169 H169       -1.2984  -16.6016  -43.2002 H         1 UNK         0.3000 
    170 H170        0.0777  -15.1075  -40.6098 H         1 UNK         0.0600 
    171 H171        2.1773  -14.3166  -41.6646 H         1 UNK         0.0600 
    172 H172        1.3114  -13.8892  -43.1343 H         1 UNK         0.0600 
    173 H173        0.9815  -13.0324  -41.6320 H         1 UNK         0.0600 
    174 H174       -1.1514  -14.0965  -43.1156 H         1 UNK         0.3000 
    175 H175       -4.4302  -14.8353  -42.0690 H         1 UNK         0.0600 
    176 H176       -4.8917  -12.3991  -42.1613 H         1 UNK         0.0600 
    177 H177       -4.0936  -12.8052  -40.6507 H         1 UNK         0.0600 
    178 H178       -3.1783  -12.0389  -41.9435 H         1 UNK         0.0600 
    179 H179       -3.4163  -13.1347  -44.1379 H         1 UNK         0.3000 
    180 H180       -3.7768  -15.5484  -46.6102 H         1 UNK         0.0600 
    181 H181       -3.0381  -12.6169  -46.0719 H         1 UNK         0.0600 
    182 H182       -4.6835  -13.2405  -46.1949 H         1 UNK         0.0600 
    183 H183       -3.6136  -13.3029  -47.5836 H         1 UNK         0.0600 
    184 H184       -1.6911  -15.6032  -47.3499 H         1 UNK         0.3000 
    185 H185        1.2225  -13.8349  -46.7424 H         1 UNK         0.0600 
    186 H186        1.0335  -16.7786  -45.9612 H         1 UNK         0.0600 
    187 H187        2.4992  -15.8823  -46.3378 H         1 UNK         0.0600 
    188 H188        1.5982  -15.5064  -44.8795 H         1 UNK         0.0600 
    189 H189        0.7325  -16.2415  -48.2367 H         1 UNK         0.3000 
    190 H190        0.1389  -22.4886  -44.7679 H         1 UNK         0.3000 
    191 H191       -2.3993  -21.6254  -44.5626 H         1 UNK         0.0600 
    192 H192       -1.2918  -24.2952  -43.5651 H         1 UNK         0.0600 
    193 H193       -2.7333  -23.4989  -42.9433 H         1 UNK         0.0600 
    194 H194       -1.1639  -22.7351  -42.7537 H         1 UNK         0.0600 
    195 H195       -1.5501  -24.6608  -46.2658 H         1 UNK         0.3000 
    196 H196       -4.2456  -25.4976  -46.7498 H         1 UNK         0.0600 
    197 H197       -3.1748  -27.0627  -48.3761 H         1 UNK         0.0600 
    198 H198       -2.3304  -27.0658  -46.8361 H         1 UNK         0.0600 
    199 H199       -1.6466  -26.2052  -48.2156 H         1 UNK         0.0600 
    200 H200       -1.9793  -23.4681  -48.5928 H         1 UNK         0.3000 
    201 H201       -3.6430  -23.2281  -50.9624 H         1 UNK         0.0600 
    202 H202       -1.2429  -22.9938  -51.2339 H         1 UNK         0.0600 
    203 H203       -1.1420  -21.7499  -49.9899 H         1 UNK         0.0600 
    204 H204       -1.9583  -21.4101  -51.5016 H         1 UNK         0.0600 
    205 H205       -3.0763  -21.3296  -48.0038 H         1 UNK         0.3000 
    206 H206       -4.7052  -19.0862  -48.7205 H         1 UNK         0.0600 
    207 H207       -2.9817  -18.9539  -46.9721 H         1 UNK         0.0600 
    208 H208       -4.5453  -18.5470  -46.2860 H         1 UNK         0.0600 
    209 H209       -3.8394  -20.1294  -45.9751 H         1 UNK         0.0600 
    210 H210       -5.4116  -22.1232  -46.9254 H         1 UNK         0.3000 
    211 H211       -8.1490  -21.5917  -46.3756 H         1 UNK         0.0600 
    212 H212       -6.6669  -24.2523  -46.7245 H         1 UNK         0.0600 
    213 H213       -8.2661  -24.0676  -46.0131 H         1 UNK         0.0600 
    214 H214       -6.8684  -23.3608  -45.2176 H         1 UNK         0.0600 
    215 H215       -6.5513  -23.0876  -49.2056 H         1 UNK         0.3000 
    216 H216       -8.9799  -23.6202  -50.6748 H         1 UNK         0.0600 
    217 H217       -7.3902  -24.0490  -52.5423 H         1 UNK         0.0600 
    218 H218       -6.8433  -24.8447  -51.0746 H         1 UNK         0.0600 
    219 H219       -6.0716  -23.3530  -51.6105 H         1 UNK         0.0600 
    220 H220       -7.2250  -20.7502  -50.0404 H         1 UNK         0.3000 
    221 H221       -7.2104  -18.6529  -50.6841 H         1 UNK         0.0600 
    222 H222       -9.9045  -19.1721  -52.0505 H         1 UNK         0.0600 
    223 H223       -9.6863  -18.7668  -50.3483 H         1 UNK         0.0600 
    224 H224       -9.2490  -17.6066  -51.5917 H         1 UNK         0.0600 
    225 H225       -5.6569  -20.3616  -52.1367 H         1 UNK         0.3000 
    226 H226       -5.9478  -19.9977  -54.9996 H         1 UNK         0.0600 
    227 H227       -3.6649  -21.1439  -53.3058 H         1 UNK         0.0600 
    228 H228       -3.7467  -21.1851  -55.0649 H         1 UNK         0.0600 
    229 H229       -4.9425  -22.0463  -54.1093 H         1 UNK         0.0600 
    230 H230       -3.2856  -19.0417  -52.8136 H         1 UNK         0.3000 
    231 H231       -1.7454  -17.4390  -52.8187 H         1 UNK         0.0600 
    232 H232       -3.7094  -16.1393  -52.0231 H         1 UNK         0.0600 
    233 H233       -4.0707  -15.6421  -53.6766 H         1 UNK         0.0600 
    234 H234       -2.5862  -15.1105  -52.8946 H         1 UNK         0.0600 
    235 H235       -1.5170  -18.9518  -55.0559 H         1 UNK         0.3000 
    236 H236        0.1026  -17.2977  -56.7615 H         1 UNK         0.0600 
    237 H237       -1.9942  -16.9011  -57.9888 H         1 UNK         0.0600 
    238 H238       -1.0385  -18.0525  -58.9075 H         1 UNK         0.0600 
    239 H239       -2.4150  -18.6074  -57.9569 H         1 UNK         0.0600 
    240 H240       -1.6478  -20.3665  -57.1376 H         1 UNK         0.3000 
    241 H241       -1.0000  -22.4894  -57.2643 H         1 UNK         0.0600 
    242 H242        2.6592  -23.5944  -56.7910 H         1 UNK         0.3800 
    243 H243        1.4603  -23.6310  -55.5332 H         1 UNK         0.3800 
    244 H244       -1.7959  -22.5767  -55.1608 H         1 UNK         0.0800 
    245 H245       -0.2693  -23.2888  -54.8491 H         1 UNK         0.0800 
    246 H246        1.0570  -22.4435  -52.6224 H         1 UNK         0.0800 
    247 H247        1.8144  -21.7184  -54.0276 H         1 UNK         0.0800 
@<TRIPOS>BOND
     1    1    2 1    
     2    1  127 1    
     3    1  128 1    
     4    1  129 1    
     5    2    3 2    
     6    2    4 am   BACKBONE|DICT|INTERRES
     7    4    5 1    
     8    4  130 1    
     9    5    6 1    
    10    5   65 1    
    11    5  131 1    
    12    6    7 1    
    13    6  132 1    
    14    6  133 1    
    15    7    8 1    
    16    8    9 1    
    17    8  134 1    
    18    8  135 1    
    19    9   10 ar   
    20    9   14 ar   
    21   10   11 ar   
    22   10  136 1    
    23   11   12 ar   
    24   11  126 1    
    25   12   13 ar   
    26   12  137 1    
    27   13   14 ar   
    28   13   15 1    
    29   14  138 1    
    30   15   16 1    
    31   15  139 1    
    32   15  140 1    
    33   16   17 1    
    34   17   18 1    
    35   17  141 1    
    36   17  142 1    
    37   18   19 1    
    38   18   67 1    
    39   18  143 1    
    40   19   20 am   BACKBONE|DICT|INTERRES
    41   19  144 1    
    42   20   21 2    
    43   20   22 1    
    44   22   23 1    
    45   22   24 1    
    46   22  145 1    
    47   23  146 1    
    48   23  147 1    
    49   23  148 1    
    50   24   25 am   BACKBONE|DICT|INTERRES
    51   24  149 1    
    52   25   26 2    
    53   25   27 1    
    54   27   28 1    
    55   27   29 1    
    56   27  150 1    
    57   28  151 1    
    58   28  152 1    
    59   28  153 1    
    60   29   30 am   BACKBONE|DICT|INTERRES
    61   29  154 1    
    62   30   31 2    
    63   30   32 1    
    64   32   33 1    
    65   32   34 1    
    66   32  155 1    
    67   33  156 1    
    68   33  157 1    
    69   33  158 1    
    70   34   35 am   BACKBONE|DICT|INTERRES
    71   34  159 1    
    72   35   36 2    
    73   35   37 1    
    74   37   38 1    
    75   37   39 1    
    76   37  160 1    
    77   38  161 1    
    78   38  162 1    
    79   38  163 1    
    80   39   40 am   BACKBONE|DICT|INTERRES
    81   39  164 1    
    82   40   41 2    
    83   40   42 1    
    84   42   43 1    
    85   42   44 1    
    86   42  165 1    
    87   43  166 1    
    88   43  167 1    
    89   43  168 1    
    90   44   45 am   BACKBONE|DICT|INTERRES
    91   44  169 1    
    92   45   46 2    
    93   45   47 1    
    94   47   48 1    
    95   47   49 1    
    96   47  170 1    
    97   48  171 1    
    98   48  172 1    
    99   48  173 1    
   100   49   50 am   BACKBONE|DICT|INTERRES
   101   49  174 1    
   102   50   51 2    
   103   50   52 1    
   104   52   53 1    
   105   52   54 1    
   106   52  175 1    
   107   53  176 1    
   108   53  177 1    
   109   53  178 1    
   110   54   55 am   BACKBONE|DICT|INTERRES
   111   54  179 1    
   112   55   56 2    
   113   55   57 1    
   114   57   58 1    
   115   57   59 1    
   116   57  180 1    
   117   58  181 1    
   118   58  182 1    
   119   58  183 1    
   120   59   60 am   BACKBONE|DICT|INTERRES
   121   59  184 1    
   122   60   61 2    
   123   60   62 1    
   124   62   63 1    
   125   62   64 1    
   126   62  185 1    
   127   63  186 1    
   128   63  187 1    
   129   63  188 1    
   130   64   65 am   BACKBONE|DICT|INTERRES
   131   64  189 1    
   132   65   66 2    
   133   67   68 2    
   134   67   69 am   BACKBONE|DICT|INTERRES
   135   69   70 1    
   136   69  190 1    
   137   70   71 1    
   138   70   72 1    
   139   70  191 1    
   140   71  192 1    
   141   71  193 1    
   142   71  194 1    
   143   72   73 2    
   144   72   74 am   BACKBONE|DICT|INTERRES
   145   74   75 1    
   146   74  195 1    
   147   75   76 1    
   148   75   77 1    
   149   75  196 1    
   150   76  197 1    
   151   76  198 1    
   152   76  199 1    
   153   77   78 2    
   154   77   79 am   BACKBONE|DICT|INTERRES
   155   79   80 1    
   156   79  200 1    
   157   80   81 1    
   158   80   82 1    
   159   80  201 1    
   160   81  202 1    
   161   81  203 1    
   162   81  204 1    
   163   82   83 2    
   164   82   84 am   BACKBONE|DICT|INTERRES
   165   84   85 1    
   166   84  205 1    
   167   85   86 1    
   168   85   87 1    
   169   85  206 1    
   170   86  207 1    
   171   86  208 1    
   172   86  209 1    
   173   87   88 2    
   174   87   89 am   BACKBONE|DICT|INTERRES
   175   89   90 1    
   176   89  210 1    
   177   90   91 1    
   178   90   92 1    
   179   90  211 1    
   180   91  212 1    
   181   91  213 1    
   182   91  214 1    
   183   92   93 2    
   184   92   94 am   BACKBONE|DICT|INTERRES
   185   94   95 1    
   186   94  215 1    
   187   95   96 1    
   188   95   97 1    
   189   95  216 1    
   190   96  217 1    
   191   96  218 1    
   192   96  219 1    
   193   97   98 2    
   194   97   99 am   BACKBONE|DICT|INTERRES
   195   99  100 1    
   196   99  220 1    
   197  100  101 1    
   198  100  102 1    
   199  100  221 1    
   200  101  222 1    
   201  101  223 1    
   202  101  224 1    
   203  102  103 2    
   204  102  104 am   BACKBONE|DICT|INTERRES
   205  104  105 1    
   206  104  225 1    
   207  105  106 1    
   208  105  107 1    
   209  105  226 1    
   210  106  227 1    
   211  106  228 1    
   212  106  229 1    
   213  107  108 2    
   214  107  109 am   BACKBONE|DICT|INTERRES
   215  109  110 1    
   216  109  230 1    
   217  110  111 1    
   218  110  112 1    
   219  110  231 1    
   220  111  232 1    
   221  111  233 1    
   222  111  234 1    
   223  112  113 2    
   224  112  114 am   BACKBONE|DICT|INTERRES
   225  114  115 1    
   226  114  235 1    
   227  115  116 1    
   228  115  117 1    
   229  115  236 1    
   230  116  237 1    
   231  116  238 1    
   232  116  239 1    
   233  117  118 2    
   234  117  119 am   BACKBONE|DICT|INTERRES
   235  119  120 1    
   236  119  240 1    
   237  120  121 1    
   238  120  124 1    
   239  120  241 1    
   240  121  122 am   BACKBONE|DICT|INTERRES
   241  121  123 2    
   242  122  242 1    
   243  122  243 1    
   244  124  125 1    
   245  124  244 1    
   246  124  245 1    
   247  125  126 1    
   248  126  246 1    
   249  126  247 1    
@<TRIPOS>SUBSTRUCTURE
     1 UNK         1 GROUP             0       ****    0 ROOT    
