@<TRIPOS>MOLECULE
3R540
247   249    1
SMALL
USER_CHARGES


@<TRIPOS>ATOM
      1 CA         -3.6116  -19.1530  -45.9918 C.3       0 UNK        -0.1800 
      2 C          -3.1158  -18.0529  -46.9189 C.2       0 UNK         0.5000 
      3 O          -3.2728  -18.1633  -48.1338 O.2       0 UNK        -0.5000 
      4 N          -2.5133  -17.0057  -46.3457 N.am      1 UNK        -0.5000 
      5 CA         -1.9798  -15.8355  -47.0517 C.3       1 UNK         0.1400 
      6 C6         -0.9435  -15.0635  -46.1896 C.3       23 UNK        -0.0398 
      7 S7          0.3161  -16.1193  -45.3984 S.3       23 UNK        -0.2404 
      8 C8          1.7919  -15.8450  -46.4213 C.3       23 UNK        -0.0205 
      9 C9          1.8711  -16.8319  -47.5747 C.ar      23 UNK        -0.0193 
     10 C10         1.4118  -16.4762  -48.8452 C.ar      23 UNK        -0.1150 
     11 C11         1.5478  -17.3599  -49.9199 C.ar      23 UNK        -0.0193 
     12 C12         2.1315  -18.6141  -49.7125 C.ar      23 UNK        -0.1150 
     13 C13         2.5879  -18.9850  -48.4434 C.ar      23 UNK        -0.0193 
     14 C14         2.4534  -18.0879  -47.3800 C.ar      23 UNK        -0.1150 
     15 C15         3.2910  -20.3204  -48.2315 C.3       23 UNK        -0.0205 
     16 S16         2.2260  -21.7596  -48.5640 S.3       23 UNK        -0.2404 
     17 C17         0.9656  -21.6180  -47.2563 C.3       23 UNK        -0.0398 
     18 CA          0.1596  -22.9321  -47.1146 C.3       11 UNK         0.1400 
     19 N           0.9628  -24.0397  -46.5861 N.am      11 UNK        -0.5000 
     20 C           0.5876  -25.3265  -46.6008 C.2       10 UNK         0.5000 
     21 O          -0.4858  -25.7212  -47.0540 O.2       10 UNK        -0.5000 
     22 CA          1.5601  -26.3378  -45.9682 C.3       10 UNK         0.1400 
     23 CB          2.7130  -26.6588  -46.9311 C.3       10 UNK        -0.1800 
     24 N           2.1049  -25.8687  -44.6942 N.am      10 UNK        -0.5000 
     25 C           1.3788  -25.6909  -43.5817 C.2       9 UNK         0.5000 
     26 O           0.1748  -25.9330  -43.5020 O.2       9 UNK        -0.5000 
     27 CA          2.1121  -25.0813  -42.3714 C.3       9 UNK         0.1400 
     28 CB          2.8630  -26.1688  -41.5886 C.3       9 UNK        -0.1800 
     29 N           3.0415  -24.0000  -42.7214 N.am      9 UNK        -0.5000 
     30 C           2.6959  -22.8906  -43.3868 C.2       8 UNK         0.5000 
     31 O           1.5705  -22.6978  -43.8528 O.2       8 UNK        -0.5000 
     32 CA          3.7906  -21.8334  -43.6127 C.3       8 UNK         0.1400 
     33 CB          4.6168  -22.1850  -44.8596 C.3       8 UNK        -0.1800 
     34 N           3.1690  -20.5243  -43.8086 N.am      8 UNK        -0.5000 
     35 C           2.6102  -19.8102  -42.8249 C.2       7 UNK         0.5000 
     36 O           2.7728  -20.0420  -41.6239 O.2       7 UNK        -0.5000 
     37 CA          1.6502  -18.6953  -43.2674 C.3       7 UNK         0.1400 
     38 CB          0.2010  -19.2099  -43.2695 C.3       7 UNK        -0.1800 
     39 N           1.7476  -17.5260  -42.3981 N.am      7 UNK        -0.5000 
     40 C           2.7496  -16.6430  -42.4533 C.2       6 UNK         0.5000 
     41 O           3.6898  -16.7199  -43.2495 O.2       6 UNK        -0.5000 
     42 CA          2.7054  -15.4913  -41.4370 C.3       6 UNK         0.1400 
     43 CB          3.5464  -15.8348  -40.1975 C.3       6 UNK        -0.1800 
     44 N           3.2391  -14.2792  -42.0532 N.am      6 UNK        -0.5000 
     45 C           2.5076  -13.3822  -42.7240 C.2       5 UNK         0.5000 
     46 O           1.2748  -13.3974  -42.7539 O.2       5 UNK        -0.5000 
     47 CA          3.3092  -12.2737  -43.4411 C.3       5 UNK         0.1400 
     48 CB          4.3101  -12.8574  -44.4633 C.3       5 UNK        -0.1800 
     49 N           2.4713  -11.2384  -44.0613 N.am      5 UNK        -0.5000 
     50 C           1.6468  -11.3627  -45.1113 C.2       4 UNK         0.5000 
     51 O           1.4920  -12.3958  -45.7665 O.2       4 UNK        -0.5000 
     52 CA          0.9097  -10.0798  -45.5340 C.3       4 UNK         0.1400 
     53 CB          1.7905   -9.2402  -46.4735 C.3       4 UNK        -0.1800 
     54 N          -0.3400  -10.3949  -46.2233 N.am      4 UNK        -0.5000 
     55 C          -1.4922  -10.6967  -45.6094 C.2       3 UNK         0.5000 
     56 O          -1.6327  -10.6746  -44.3860 O.2       3 UNK        -0.5000 
     57 CA         -2.6917  -11.0774  -46.5010 C.3       3 UNK         0.1400 
     58 CB         -3.9627  -10.3003  -46.1100 C.3       3 UNK        -0.1800 
     59 N          -2.4037  -10.8537  -47.9230 N.am      3 UNK        -0.5000 
     60 C          -2.7902  -11.5902  -48.9732 C.2       2 UNK         0.5000 
     61 O          -2.4175  -11.3122  -50.1123 O.2       2 UNK        -0.5000 
     62 CA         -3.6762  -12.8312  -48.7554 C.3       2 UNK         0.1400 
     63 CB         -4.5115  -13.1848  -49.9974 C.3       2 UNK        -0.1800 
     64 N          -2.8169  -13.9568  -48.3916 N.am      2 UNK        -0.5000 
     65 C          -3.1155  -14.8699  -47.4600 C.2       1 UNK         0.5000 
     66 O          -4.2029  -14.9119  -46.8778 O.2       1 UNK        -0.5000 
     67 C          -1.1172  -22.7066  -46.2866 C.2       11 UNK         0.5000 
     68 O          -2.1735  -22.4622  -46.8696 O.2       11 UNK        -0.5000 
     69 N          -1.0059  -22.8274  -44.9574 N.am      12 UNK        -0.5000 
     70 CA         -2.1180  -22.7595  -44.0129 C.3       12 UNK         0.1400 
     71 CB         -1.5677  -22.7239  -42.5789 C.3       12 UNK        -0.1800 
     72 C          -3.1072  -23.9253  -44.1875 C.2       12 UNK         0.5000 
     73 O          -4.3162  -23.6939  -44.1900 O.2       12 UNK        -0.5000 
     74 N          -2.5793  -25.1476  -44.3523 N.am      13 UNK        -0.5000 
     75 CA         -3.3617  -26.3642  -44.5778 C.3       13 UNK         0.1400 
     76 CB         -2.4537  -27.5963  -44.4452 C.3       13 UNK        -0.1800 
     77 C          -4.0841  -26.3667  -45.9364 C.2       13 UNK         0.5000 
     78 O          -5.2518  -26.7532  -46.0012 O.2       13 UNK        -0.5000 
     79 N          -3.3849  -25.9267  -46.9914 N.am      14 UNK        -0.5000 
     80 CA         -3.9254  -25.8129  -48.3465 C.3       14 UNK         0.1400 
     81 CB         -2.7631  -25.6600  -49.3407 C.3       14 UNK        -0.1800 
     82 C          -4.9091  -24.6413  -48.5151 C.2       14 UNK         0.5000 
     83 O          -5.7648  -24.7080  -49.3970 O.2       14 UNK        -0.5000 
     84 N          -4.7413  -23.5908  -47.6960 N.am      15 UNK        -0.5000 
     85 CA         -5.3377  -22.2579  -47.8229 C.3       15 UNK         0.1400 
     86 CB         -6.8716  -22.2986  -47.6633 C.3       15 UNK        -0.1800 
     87 C          -4.8709  -21.6064  -49.1380 C.2       15 UNK         0.5000 
     88 O          -5.6839  -21.3481  -50.0249 O.2       15 UNK        -0.5000 
     89 N          -3.5457  -21.4355  -49.2505 N.am      16 UNK        -0.5000 
     90 CA         -2.7889  -21.1204  -50.4672 C.3       16 UNK         0.1400 
     91 CB         -1.3440  -20.7613  -50.0936 C.3       16 UNK        -0.1800 
     92 C          -3.3877  -20.0476  -51.3942 C.2       16 UNK         0.5000 
     93 O          -3.4579  -20.2752  -52.6019 O.2       16 UNK        -0.5000 
     94 N          -3.8297  -18.9166  -50.8334 N.am      17 UNK        -0.5000 
     95 CA         -4.4314  -17.8238  -51.5966 C.3       17 UNK         0.1400 
     96 CB         -4.4854  -16.5621  -50.7307 C.3       17 UNK        -0.1800 
     97 C          -5.8264  -18.1583  -52.1571 C.2       17 UNK         0.5000 
     98 O          -6.1558  -17.7083  -53.2546 O.2       17 UNK        -0.5000 
     99 N          -6.6096  -18.9568  -51.4193 N.am      18 UNK        -0.5000 
    100 CA        -7.9266  -19.4419  -51.8409 C.3       18 UNK         0.1400 
    101 CB        -8.7356  -19.8766  -50.6090 C.3       18 UNK        -0.1800 
    102 C         -7.8075  -20.5929  -52.8559 C.2       18 UNK         0.5000 
    103 O         -8.6161  -20.6803  -53.7803 O.2       18 UNK        -0.5000 
    104 N         -6.7727  -21.4271  -52.6877 N.am      19 UNK        -0.5000 
    105 CA        -6.3807  -22.4975  -53.6069 C.3       19 UNK         0.1400 
    106 CB        -5.4098  -23.4365  -52.8738 C.3       19 UNK        -0.1800 
    107 C         -5.7420  -21.9828  -54.9149 C.2       19 UNK         0.5000 
    108 O         -5.5802  -22.7656  -55.8514 O.2       19 UNK        -0.5000 
    109 N         -5.3758  -20.6924  -54.9435 N.am      20 UNK        -0.5000 
    110 CA        -4.6824  -19.9671  -56.0129 C.3       20 UNK         0.1400 
    111 CB        -5.5009  -19.9662  -57.3205 C.3       20 UNK        -0.1800 
    112 C         -3.2214  -20.4212  -56.2175 C.2       20 UNK         0.5000 
    113 O         -2.6342  -20.1489  -57.2661 O.2       20 UNK        -0.5000 
    114 N         -2.6315  -21.0493  -55.1909 N.am      21 UNK        -0.5000 
    115 CA        -1.2230  -21.4459  -55.1363 C.3       21 UNK         0.1400 
    116 CB        -1.0116  -22.3971  -53.9487 C.3       21 UNK        -0.1800 
    117 C         -0.2798  -20.2313  -55.0404 C.2       21 UNK         0.5000 
    118 O          0.8628  -20.3115  -55.4923 O.2       21 UNK        -0.5000 
    119 N         -0.7927  -19.1204  -54.4949 N.am      22 UNK        -0.5000 
    120 CA        -0.1470  -17.7989  -54.5024 C.3       22 UNK         0.1400 
    121 C         -0.1518  -17.0880  -55.8913 C.2       22 UNK         0.5000 
    122 N         -0.8138  -17.6067  -56.9204 N.am      22 UNK        -0.7600 
    123 O          0.4697  -16.0399  -56.0422 O.2       22 UNK        -0.5000 
    124 C124       -0.7273  -16.8654  -53.4073 C.3       23 UNK        -0.0398 
    125 S125       -0.5490  -17.5359  -51.7202 S.3       23 UNK        -0.2404 
    126 C126        1.1171  -16.9371  -51.3146 C.3       23 UNK        -0.0205 
    127 H127       -4.6838  -19.2982  -46.1221 H         1 UNK         0.0600 
    128 H128       -3.4237  -18.9179  -44.9439 H         1 UNK         0.0600 
    129 H129       -3.1061  -20.0887  -46.2239 H         1 UNK         0.0600 
    130 H130       -2.4286  -16.9730  -45.3408 H         1 UNK         0.3000 
    131 H131       -1.4843  -16.1852  -47.9603 H         1 UNK         0.0600 
    132 H132       -1.4443  -14.5287  -45.3799 H         1 UNK         0.0800 
    133 H133       -0.4457  -14.2952  -46.7832 H         1 UNK         0.0800 
    134 H134        2.6735  -15.9566  -45.7882 H         1 UNK         0.0800 
    135 H135        1.8204  -14.8187  -46.7878 H         1 UNK         0.0800 
    136 H136        0.9739  -15.5009  -49.0034 H         1 UNK         0.1150 
    137 H137        2.2476  -19.2961  -50.5433 H         1 UNK         0.1150 
    138 H138        2.8306  -18.3519  -46.4035 H         1 UNK         0.1150 
    139 H139        3.6900  -20.3944  -47.2197 H         1 UNK         0.0800 
    140 H140        4.1529  -20.3677  -48.8984 H         1 UNK         0.0800 
    141 H141        0.3137  -20.7820  -47.5178 H         1 UNK         0.0800 
    142 H142        1.4425  -21.3530  -46.3118 H         1 UNK         0.0800 
    143 H143       -0.1737  -23.2319  -48.1102 H         1 UNK         0.0600 
    144 H144        1.8380  -23.7939  -46.1500 H         1 UNK         0.3000 
    145 H145        1.0056  -27.2599  -45.7811 H         1 UNK         0.0600 
    146 H146        2.3326  -27.0240  -47.8860 H         1 UNK         0.0600 
    147 H147        3.3623  -27.4339  -46.5235 H         1 UNK         0.0600 
    148 H148        3.3262  -25.7804  -47.1364 H         1 UNK         0.0600 
    149 H149        3.0863  -25.6349  -44.6715 H         1 UNK         0.3000 
    150 H150        1.3515  -24.6551  -41.7139 H         1 UNK         0.0600 
    151 H151        3.6705  -26.6053  -42.1776 H         1 UNK         0.0600 
    152 H152        2.1904  -26.9786  -41.3023 H         1 UNK         0.0600 
    153 H153        3.2945  -25.7680  -40.6713 H         1 UNK         0.0600 
    154 H154        3.9889  -24.0957  -42.3850 H         1 UNK         0.3000 
    155 H155        4.4476  -21.7973  -42.7412 H         1 UNK         0.0600 
    156 H156        3.9884  -22.3035  -45.7430 H         1 UNK         0.0600 
    157 H157        5.1578  -23.1212  -44.7176 H         1 UNK         0.0600 
    158 H158        5.3570  -21.4139  -45.0742 H         1 UNK         0.0600 
    159 H159        2.9583  -20.2774  -44.7620 H         1 UNK         0.3000 
    160 H160        1.9049  -18.3942  -44.2842 H         1 UNK         0.0600 
    161 H161       -0.4934  -18.4445  -43.6151 H         1 UNK         0.0600 
    162 H162       -0.1152  -19.5237  -42.2741 H         1 UNK         0.0600 
    163 H163        0.0929  -20.0677  -43.9351 H         1 UNK         0.0600 
    164 H164        1.0335  -17.4273  -41.6919 H         1 UNK         0.3000 
    165 H165        1.6728  -15.3280  -41.1207 H         1 UNK         0.0600 
    166 H166        3.1674  -16.7317  -39.7058 H         1 UNK         0.0600 
    167 H167        4.5902  -16.0189  -40.4555 H         1 UNK         0.0600 
    168 H168        3.5187  -15.0267  -39.4663 H         1 UNK         0.0600 
    169 H169        4.2458  -14.2232  -42.1060 H         1 UNK         0.3000 
    170 H170        3.8847  -11.7603  -42.6693 H         1 UNK         0.0600 
    171 H171        3.8173  -13.4980  -45.1953 H         1 UNK         0.0600 
    172 H172        5.0737  -13.4604  -43.9715 H         1 UNK         0.0600 
    173 H173        4.8281  -12.0662  -45.0053 H         1 UNK         0.0600 
    174 H174        2.5026  -10.3416  -43.5972 H         1 UNK         0.3000 
    175 H175        0.6894   -9.4874  -44.6431 H         1 UNK         0.0600 
    176 H176        2.7243   -8.9566  -45.9863 H         1 UNK         0.0600 
    177 H177        2.0479   -9.7879  -47.3810 H         1 UNK         0.0600 
    178 H178        1.2869   -8.3193  -46.7683 H         1 UNK         0.0600 
    179 H179       -0.2718  -10.5311  -47.2202 H         1 UNK         0.3000 
    180 H180       -2.8588  -12.1365  -46.3067 H         1 UNK         0.0600 
    181 H181       -3.8254   -9.2254  -46.2330 H         1 UNK         0.0600 
    182 H182       -4.2304  -10.4802  -45.0680 H         1 UNK         0.0600 
    183 H183       -4.8185  -10.5969  -46.7158 H         1 UNK         0.0600 
    184 H184       -1.8575  -10.0259  -48.1124 H         1 UNK         0.3000 
    185 H185       -4.3831  -12.6062  -47.9558 H         1 UNK         0.0600 
    186 H186       -5.0757  -12.3203  -50.3492 H         1 UNK         0.0600 
    187 H187       -3.8868  -13.5300  -50.8219 H         1 UNK         0.0600 
    188 H188       -5.2353  -13.9649  -49.7641 H         1 UNK         0.0600 
    189 H189       -1.9033  -13.9589  -48.8243 H         1 UNK         0.3000 
    190 H190       -0.0807  -22.9753  -44.5582 H         1 UNK         0.3000 
    191 H191       -2.6579  -21.8281  -44.1960 H         1 UNK         0.0600 
    192 H192       -0.9027  -21.8740  -42.4308 H         1 UNK         0.0600 
    193 H193       -2.3760  -22.6365  -41.8521 H         1 UNK         0.0600 
    194 H194       -1.0061  -23.6277  -42.3405 H         1 UNK         0.0600 
    195 H195       -1.5728  -25.2631  -44.2894 H         1 UNK         0.3000 
    196 H196       -4.1236  -26.4220  -43.7976 H         1 UNK         0.0600 
    197 H197       -3.0145  -28.5165  -44.6136 H         1 UNK         0.0600 
    198 H198       -2.0197  -27.6591  -43.4473 H         1 UNK         0.0600 
    199 H199       -1.6349  -27.5726  -45.1652 H         1 UNK         0.0600 
    200 H200       -2.4037  -25.6887  -46.8719 H         1 UNK         0.3000 
    201 H201       -4.4599  -26.7349  -48.5848 H         1 UNK         0.0600 
    202 H202       -3.1295  -25.5980  -50.3663 H         1 UNK         0.0600 
    203 H203       -2.0844  -26.5115  -49.2887 H         1 UNK         0.0600 
    204 H204       -2.1837  -24.7567  -49.1441 H         1 UNK         0.0600 
    205 H205       -3.9717  -23.6422  -47.0400 H         1 UNK         0.3000 
    206 H206       -4.9370  -21.6588  -47.0050 H         1 UNK         0.0600 
    207 H207       -7.1558  -22.7762  -46.7257 H         1 UNK         0.0600 
    208 H208       -7.2839  -21.2891  -47.6540 H         1 UNK         0.0600 
    209 H209       -7.3580  -22.8385  -48.4759 H         1 UNK         0.0600 
    210 H210       -2.9860  -21.6982  -48.4444 H         1 UNK         0.3000 
    211 H211       -2.7569  -22.0452  -51.0453 H         1 UNK         0.0600 
    212 H212       -0.7604  -20.4940  -50.9754 H         1 UNK         0.0600 
    213 H213       -0.8413  -21.6049  -49.6262 H         1 UNK         0.0600 
    214 H214       -1.3033  -19.9154  -49.4059 H         1 UNK         0.0600 
    215 H215       -3.7002  -18.7690  -49.8338 H         1 UNK         0.3000 
    216 H216       -3.7825  -17.6128  -52.4487 H         1 UNK         0.0600 
    217 H217       -3.4864  -16.2552  -50.4199 H         1 UNK         0.0600 
    218 H218       -5.0861  -16.7114  -49.8326 H         1 UNK         0.0600 
    219 H219       -4.9237  -15.7370  -51.2919 H         1 UNK         0.0600 
    220 H220       -6.2236  -19.3732  -50.5804 H         1 UNK         0.3000 
    221 H221       -8.4631  -18.6224  -52.3239 H         1 UNK         0.0600 
    222 H222       -8.2696  -20.7151  -50.0912 H         1 UNK         0.0600 
    223 H223       -8.8398  -19.0583  -49.8965 H         1 UNK         0.0600 
    224 H224       -9.7406  -20.1887  -50.8956 H         1 UNK         0.0600 
    225 H225       -6.2082  -21.3192  -51.8484 H         1 UNK         0.3000 
    226 H226       -7.2736  -23.0649  -53.8765 H         1 UNK         0.0600 
    227 H227       -5.8649  -23.8451  -51.9718 H         1 UNK         0.0600 
    228 H228       -5.1250  -24.2795  -53.5044 H         1 UNK         0.0600 
    229 H229       -4.4950  -22.9207  -52.5818 H         1 UNK         0.0600 
    230 H230       -5.5252  -20.1628  -54.0956 H         1 UNK         0.3000 
    231 H231       -4.6220  -18.9334  -55.6696 H         1 UNK         0.0600 
    232 H232       -5.5295  -20.9524  -57.7841 H         1 UNK         0.0600 
    233 H233       -5.0710  -19.2782  -58.0492 H         1 UNK         0.0600 
    234 H234       -6.5279  -19.6476  -57.1423 H         1 UNK         0.0600 
    235 H235       -3.1515  -21.1209  -54.3216 H         1 UNK         0.3000 
    236 H236       -0.9845  -21.9840  -56.0560 H         1 UNK         0.0600 
    237 H237       -1.2042  -21.9012  -52.9981 H         1 UNK         0.0600 
    238 H238       -1.6681  -23.2649  -54.0145 H         1 UNK         0.0600 
    239 H239        0.0148  -22.7651  -53.9230 H         1 UNK         0.0600 
    240 H240       -1.7277  -19.1634  -54.1154 H         1 UNK         0.3000 
    241 H241        0.9070  -17.9563  -54.2672 H         1 UNK         0.0600 
    242 H242       -1.3145  -18.4821  -56.8452 H         1 UNK         0.3800 
    243 H243       -0.7929  -17.1259  -57.8059 H         1 UNK         0.3800 
    244 H244       -0.2499  -15.8843  -53.4381 H         1 UNK         0.0800 
    245 H245       -1.7873  -16.6854  -53.5911 H         1 UNK         0.0800 
    246 H246        1.8288  -17.3200  -52.0473 H         1 UNK         0.0800 
    247 H247        1.1424  -15.8497  -51.4007 H         1 UNK         0.0800 
@<TRIPOS>BOND
     1    1    2 1    
     2    1  127 1    
     3    1  128 1    
     4    1  129 1    
     5    2    3 2    
     6    2    4 am   BACKBONE|DICT|INTERRES
     7    4    5 1    
     8    4  130 1    
     9    5    6 1    
    10    5   65 1    
    11    5  131 1    
    12    6    7 1    
    13    6  132 1    
    14    6  133 1    
    15    7    8 1    
    16    8    9 1    
    17    8  134 1    
    18    8  135 1    
    19    9   10 ar   
    20    9   14 ar   
    21   10   11 ar   
    22   10  136 1    
    23   11   12 ar   
    24   11  126 1    
    25   12   13 ar   
    26   12  137 1    
    27   13   14 ar   
    28   13   15 1    
    29   14  138 1    
    30   15   16 1    
    31   15  139 1    
    32   15  140 1    
    33   16   17 1    
    34   17   18 1    
    35   17  141 1    
    36   17  142 1    
    37   18   19 1    
    38   18   67 1    
    39   18  143 1    
    40   19   20 am   BACKBONE|DICT|INTERRES
    41   19  144 1    
    42   20   21 2    
    43   20   22 1    
    44   22   23 1    
    45   22   24 1    
    46   22  145 1    
    47   23  146 1    
    48   23  147 1    
    49   23  148 1    
    50   24   25 am   BACKBONE|DICT|INTERRES
    51   24  149 1    
    52   25   26 2    
    53   25   27 1    
    54   27   28 1    
    55   27   29 1    
    56   27  150 1    
    57   28  151 1    
    58   28  152 1    
    59   28  153 1    
    60   29   30 am   BACKBONE|DICT|INTERRES
    61   29  154 1    
    62   30   31 2    
    63   30   32 1    
    64   32   33 1    
    65   32   34 1    
    66   32  155 1    
    67   33  156 1    
    68   33  157 1    
    69   33  158 1    
    70   34   35 am   BACKBONE|DICT|INTERRES
    71   34  159 1    
    72   35   36 2    
    73   35   37 1    
    74   37   38 1    
    75   37   39 1    
    76   37  160 1    
    77   38  161 1    
    78   38  162 1    
    79   38  163 1    
    80   39   40 am   BACKBONE|DICT|INTERRES
    81   39  164 1    
    82   40   41 2    
    83   40   42 1    
    84   42   43 1    
    85   42   44 1    
    86   42  165 1    
    87   43  166 1    
    88   43  167 1    
    89   43  168 1    
    90   44   45 am   BACKBONE|DICT|INTERRES
    91   44  169 1    
    92   45   46 2    
    93   45   47 1    
    94   47   48 1    
    95   47   49 1    
    96   47  170 1    
    97   48  171 1    
    98   48  172 1    
    99   48  173 1    
   100   49   50 am   BACKBONE|DICT|INTERRES
   101   49  174 1    
   102   50   51 2    
   103   50   52 1    
   104   52   53 1    
   105   52   54 1    
   106   52  175 1    
   107   53  176 1    
   108   53  177 1    
   109   53  178 1    
   110   54   55 am   BACKBONE|DICT|INTERRES
   111   54  179 1    
   112   55   56 2    
   113   55   57 1    
   114   57   58 1    
   115   57   59 1    
   116   57  180 1    
   117   58  181 1    
   118   58  182 1    
   119   58  183 1    
   120   59   60 am   BACKBONE|DICT|INTERRES
   121   59  184 1    
   122   60   61 2    
   123   60   62 1    
   124   62   63 1    
   125   62   64 1    
   126   62  185 1    
   127   63  186 1    
   128   63  187 1    
   129   63  188 1    
   130   64   65 am   BACKBONE|DICT|INTERRES
   131   64  189 1    
   132   65   66 2    
   133   67   68 2    
   134   67   69 am   BACKBONE|DICT|INTERRES
   135   69   70 1    
   136   69  190 1    
   137   70   71 1    
   138   70   72 1    
   139   70  191 1    
   140   71  192 1    
   141   71  193 1    
   142   71  194 1    
   143   72   73 2    
   144   72   74 am   BACKBONE|DICT|INTERRES
   145   74   75 1    
   146   74  195 1    
   147   75   76 1    
   148   75   77 1    
   149   75  196 1    
   150   76  197 1    
   151   76  198 1    
   152   76  199 1    
   153   77   78 2    
   154   77   79 am   BACKBONE|DICT|INTERRES
   155   79   80 1    
   156   79  200 1    
   157   80   81 1    
   158   80   82 1    
   159   80  201 1    
   160   81  202 1    
   161   81  203 1    
   162   81  204 1    
   163   82   83 2    
   164   82   84 am   BACKBONE|DICT|INTERRES
   165   84   85 1    
   166   84  205 1    
   167   85   86 1    
   168   85   87 1    
   169   85  206 1    
   170   86  207 1    
   171   86  208 1    
   172   86  209 1    
   173   87   88 2    
   174   87   89 am   BACKBONE|DICT|INTERRES
   175   89   90 1    
   176   89  210 1    
   177   90   91 1    
   178   90   92 1    
   179   90  211 1    
   180   91  212 1    
   181   91  213 1    
   182   91  214 1    
   183   92   93 2    
   184   92   94 am   BACKBONE|DICT|INTERRES
   185   94   95 1    
   186   94  215 1    
   187   95   96 1    
   188   95   97 1    
   189   95  216 1    
   190   96  217 1    
   191   96  218 1    
   192   96  219 1    
   193   97   98 2    
   194   97   99 am   BACKBONE|DICT|INTERRES
   195   99  100 1    
   196   99  220 1    
   197  100  101 1    
   198  100  102 1    
   199  100  221 1    
   200  101  222 1    
   201  101  223 1    
   202  101  224 1    
   203  102  103 2    
   204  102  104 am   BACKBONE|DICT|INTERRES
   205  104  105 1    
   206  104  225 1    
   207  105  106 1    
   208  105  107 1    
   209  105  226 1    
   210  106  227 1    
   211  106  228 1    
   212  106  229 1    
   213  107  108 2    
   214  107  109 am   BACKBONE|DICT|INTERRES
   215  109  110 1    
   216  109  230 1    
   217  110  111 1    
   218  110  112 1    
   219  110  231 1    
   220  111  232 1    
   221  111  233 1    
   222  111  234 1    
   223  112  113 2    
   224  112  114 am   BACKBONE|DICT|INTERRES
   225  114  115 1    
   226  114  235 1    
   227  115  116 1    
   228  115  117 1    
   229  115  236 1    
   230  116  237 1    
   231  116  238 1    
   232  116  239 1    
   233  117  118 2    
   234  117  119 am   BACKBONE|DICT|INTERRES
   235  119  120 1    
   236  119  240 1    
   237  120  121 1    
   238  120  124 1    
   239  120  241 1    
   240  121  122 am   BACKBONE|DICT|INTERRES
   241  121  123 2    
   242  122  242 1    
   243  122  243 1    
   244  124  125 1    
   245  124  244 1    
   246  124  245 1    
   247  125  126 1    
   248  126  246 1    
   249  126  247 1    
@<TRIPOS>SUBSTRUCTURE
     1 UNK         1 GROUP             0       ****    0 ROOT    
