@<TRIPOS>MOLECULE
3R540
247   249    1
SMALL
USER_CHARGES


@<TRIPOS>ATOM
      1 CA         -4.5485  -19.6033  -42.4774 C.3       0 UNK        -0.1800 
      2 C          -4.1767  -18.1492  -42.7298 C.2       0 UNK         0.5000 
      3 O          -4.4112  -17.2973  -41.8719 O.2       0 UNK        -0.5000 
      4 N          -3.5914  -17.8596  -43.8982 N.am      1 UNK        -0.5000 
      5 CA         -3.1013  -16.5427  -44.3202 C.3       1 UNK         0.1400 
      6 C6         -3.0308  -16.4232  -45.8663 C.3       23 UNK        -0.0398 
      7 S7         -2.1562  -17.7996  -46.6894 S.3       23 UNK        -0.2404 
      8 C8         -2.7111  -17.6022  -48.4085 C.3       23 UNK        -0.0205 
      9 C9         -2.4207  -18.8478  -49.2329 C.ar      23 UNK        -0.0193 
     10 C10        -3.4522  -19.7345  -49.5562 C.ar      23 UNK        -0.1150 
     11 C11        -3.2011  -20.8633  -50.3414 C.ar      23 UNK        -0.0193 
     12 C12        -1.9034  -21.1071  -50.7977 C.ar      23 UNK        -0.1150 
     13 C13        -0.8588  -20.2401  -50.4654 C.ar      23 UNK        -0.0193 
     14 C14        -1.1256  -19.1071  -49.6898 C.ar      23 UNK        -0.1150 
     15 C15         0.5565  -20.5215  -50.9510 C.3       23 UNK        -0.0205 
     16 S16         1.2285  -22.0940  -50.3189 S.3       23 UNK        -0.2404 
     17 C17         1.2632  -21.7734  -48.5273 C.3       23 UNK        -0.0398 
     18 CA          0.7107  -22.9356  -47.6667 C.3       11 UNK         0.1400 
     19 N           1.0972  -22.7650  -46.2641 N.am      11 UNK        -0.5000 
     20 C           1.0550  -23.7177  -45.3238 C.2       10 UNK         0.5000 
     21 O           0.7112  -24.8774  -45.5459 O.2       10 UNK        -0.5000 
     22 CA          1.4291  -23.2979  -43.8874 C.3       10 UNK         0.1400 
     23 CB          2.9370  -23.4715  -43.6543 C.3       10 UNK        -0.1800 
     24 N           1.0494  -21.9188  -43.5719 N.am      10 UNK        -0.5000 
     25 C          -0.2142  -21.4798  -43.4878 C.2       9 UNK         0.5000 
     26 O          -1.1961  -22.2104  -43.6099 O.2       9 UNK        -0.5000 
     27 CA         -0.4205  -19.9633  -43.2965 C.3       9 UNK         0.1400 
     28 CB         -0.5349  -19.6197  -41.8047 C.3       9 UNK        -0.1800 
     29 N           0.6073  -19.1204  -43.9227 N.am      9 UNK        -0.5000 
     30 C           0.9284  -19.1496  -45.2250 C.2       8 UNK         0.5000 
     31 O           0.4347  -19.9540  -46.0145 O.2       8 UNK        -0.5000 
     32 CA          1.9801  -18.1429  -45.7208 C.3       8 UNK         0.1400 
     33 CB          1.8749  -17.8727  -47.2344 C.3       8 UNK        -0.1800 
     34 N           1.8804  -16.8763  -45.0010 N.am      8 UNK        -0.5000 
     35 C           2.9159  -16.1076  -44.6422 C.2       7 UNK         0.5000 
     36 O           4.0945  -16.4476  -44.7622 O.2       7 UNK        -0.5000 
     37 CA          2.5572  -14.7141  -44.0823 C.3       7 UNK         0.1400 
     38 CB          3.7810  -13.7889  -43.9089 C.3       7 UNK        -0.1800 
     39 N           1.5062  -14.0642  -44.8769 N.am      7 UNK        -0.5000 
     40 C           1.5820  -13.7220  -46.1729 C.2       6 UNK         0.5000 
     41 O           2.6144  -13.7853  -46.8417 O.2       6 UNK        -0.5000 
     42 CA          0.2855  -13.2688  -46.8698 C.3       6 UNK         0.1400 
     43 CB         -0.2530  -14.4092  -47.7496 C.3       6 UNK        -0.1800 
     44 N          -0.7772  -12.8370  -45.9596 N.am      6 UNK        -0.5000 
     45 C          -0.8184  -11.6555  -45.3296 C.2       5 UNK         0.5000 
     46 O           0.0924  -10.8273  -45.3807 O.2       5 UNK        -0.5000 
     47 CA         -2.0961  -11.3196  -44.5357 C.3       5 UNK         0.1400 
     48 CB         -3.2102  -12.3822  -44.6456 C.3       5 UNK        -0.1800 
     49 N          -1.7450  -11.1585  -43.1318 N.am      5 UNK        -0.5000 
     50 C          -1.9601  -10.0749  -42.3762 C.2       4 UNK         0.5000 
     51 O          -2.5075   -9.0516  -42.7897 O.2       4 UNK        -0.5000 
     52 CA         -1.5091  -10.1412  -40.8995 C.3       4 UNK         0.1400 
     53 CB         -2.7263  -10.2994  -39.9745 C.3       4 UNK        -0.1800 
     54 N          -0.5715  -11.2325  -40.6249 N.am      4 UNK        -0.5000 
     55 C           0.7157  -11.2461  -40.9950 C.2       3 UNK         0.5000 
     56 O           1.2856  -10.2834  -41.5092 O.2       3 UNK        -0.5000 
     57 CA          1.4973  -12.5596  -40.7795 C.3       3 UNK         0.1400 
     58 CB          2.3811  -12.4585  -39.5271 C.3       3 UNK        -0.1800 
     59 N           0.6837  -13.7807  -40.6867 N.am      3 UNK        -0.5000 
     60 C          -0.1727  -14.2329  -41.6135 C.2       2 UNK         0.5000 
     61 O          -0.4415  -13.6038  -42.6375 O.2       2 UNK        -0.5000 
     62 CA         -0.8021  -15.6192  -41.3546 C.3       2 UNK         0.1400 
     63 CB         -1.3545  -15.7431  -39.9229 C.3       2 UNK        -0.1800 
     64 N          -1.8784  -15.9675  -42.2840 N.am      2 UNK        -0.5000 
     65 C          -1.7800  -16.1782  -43.6024 C.2       1 UNK         0.5000 
     66 O          -0.7195  -16.1184  -44.2264 O.2       1 UNK        -0.5000 
     67 C          -0.8190  -23.1012  -47.7923 C.2       11 UNK         0.5000 
     68 O          -1.2826  -23.9737  -48.5306 O.2       11 UNK        -0.5000 
     69 N          -1.5686  -22.3115  -47.0081 N.am      12 UNK        -0.5000 
     70 CA         -3.0196  -22.4263  -46.8667 C.3       12 UNK         0.1400 
     71 CB         -3.5729  -21.2072  -46.1183 C.3       12 UNK        -0.1800 
     72 C          -3.4509  -23.7317  -46.1772 C.2       12 UNK         0.5000 
     73 O          -4.4126  -24.3552  -46.6248 O.2       12 UNK        -0.5000 
     74 N          -2.7224  -24.1380  -45.1269 N.am      13 UNK        -0.5000 
     75 CA         -2.9396  -25.3904  -44.3976 C.3       13 UNK         0.1400 
     76 CB         -2.0745  -25.4089  -43.1290 C.3       13 UNK        -0.1800 
     77 C          -2.6711  -26.6385  -45.2593 C.2       13 UNK         0.5000 
     78 O          -3.4284  -27.6062  -45.1772 O.2       13 UNK        -0.5000 
     79 N          -1.6230  -26.5818  -46.0938 N.am      14 UNK        -0.5000 
     80 CA         -1.3087  -27.5953  -47.1037 C.3       14 UNK         0.1400 
     81 CB          0.1149  -27.3558  -47.6304 C.3       14 UNK        -0.1800 
     82 C          -2.3120  -27.6105  -48.2745 C.2       14 UNK         0.5000 
     83 O          -2.4590  -28.6443  -48.9273 O.2       14 UNK        -0.5000 
     84 N          -2.9695  -26.4656  -48.5126 N.am      15 UNK        -0.5000 
     85 CA         -3.9291  -26.1786  -49.5812 C.3       15 UNK         0.1400 
     86 CB         -5.2209  -27.0008  -49.3960 C.3       15 UNK        -0.1800 
     87 C          -3.2989  -26.3285  -50.9796 C.2       15 UNK         0.5000 
     88 O          -3.9037  -26.9160  -51.8794 O.2       15 UNK        -0.5000 
     89 N          -2.0715  -25.8117  -51.1222 N.am      16 UNK        -0.5000 
     90 CA         -1.3032  -25.8295  -52.3652 C.3       16 UNK         0.1400 
     91 CB          0.1480  -25.4399  -52.0493 C.3       16 UNK        -0.1800 
     92 C          -1.8971  -24.8810  -53.4227 C.2       16 UNK         0.5000 
     93 O          -2.5405  -23.8932  -53.0715 O.2       16 UNK        -0.5000 
     94 N          -1.6240  -25.1696  -54.7003 N.am      17 UNK        -0.5000 
     95 CA         -2.0619  -24.3751  -55.8553 C.3       17 UNK         0.1400 
     96 CB         -2.1783  -25.3110  -57.0710 C.3       17 UNK        -0.1800 
     97 C          -1.1423  -23.1695  -56.1609 C.2       17 UNK         0.5000 
     98 O          -1.2757  -22.5537  -57.2198 O.2       17 UNK        -0.5000 
     99 N          -0.2014  -22.8759  -55.2566 N.am      18 UNK        -0.5000 
    100 CA         0.7185  -21.7452  -55.3255 C.3       18 UNK         0.1400 
    101 CB         1.9367  -22.0703  -54.4441 C.3       18 UNK        -0.1800 
    102 C          0.0536  -20.4277  -54.8799 C.2       18 UNK         0.5000 
    103 O         -1.0056  -20.4467  -54.2480 O.2       18 UNK        -0.5000 
    104 N          0.7380  -19.3141  -55.1832 N.am      19 UNK        -0.5000 
    105 CA         0.4018  -17.9214  -54.8583 C.3       19 UNK         0.1400 
    106 CB         0.3093  -17.7212  -53.3293 C.3       19 UNK        -0.1800 
    107 C         -0.8627  -17.3996  -55.5705 C.2       19 UNK         0.5000 
    108 O         -1.6117  -18.1617  -56.1832 O.2       19 UNK        -0.5000 
    109 N         -1.0961  -16.0852  -55.4651 N.am      20 UNK        -0.5000 
    110 CA        -2.2804  -15.4121  -56.0106 C.3       20 UNK         0.1400 
    111 CB        -2.0698  -13.8920  -55.9323 C.3       20 UNK        -0.1800 
    112 C         -3.5925  -15.8133  -55.3038 C.2       20 UNK         0.5000 
    113 O         -4.6676  -15.6542  -55.8829 O.2       20 UNK        -0.5000 
    114 N         -3.4775  -16.3181  -54.0680 N.am      21 UNK        -0.5000 
    115 CA        -4.5856  -16.7828  -53.2401 C.3       21 UNK         0.1400 
    116 CB        -4.0823  -16.9753  -51.8016 C.3       21 UNK        -0.1800 
    117 C         -5.2371  -18.0778  -53.7593 C.2       21 UNK         0.5000 
    118 O         -6.4647  -18.1788  -53.7221 O.2       21 UNK        -0.5000 
    119 N         -4.4181  -19.0375  -54.2126 N.am      22 UNK        -0.5000 
    120 CA        -4.8563  -20.3982  -54.5726 C.3       22 UNK         0.1400 
    121 C         -4.3608  -20.8949  -55.9595 C.2       22 UNK         0.5000 
    122 N         -3.4896  -20.1966  -56.6735 N.am      22 UNK        -0.7600 
    123 O         -4.8064  -21.9417  -56.4221 O.2       22 UNK        -0.5000 
    124 C124       -4.5114  -21.4241  -53.4606 C.3       23 UNK        -0.0398 
    125 S125       -5.4643  -21.1675  -51.9251 S.3       23 UNK        -0.2404 
    126 C126       -4.3281  -21.8314  -50.6688 C.3       23 UNK        -0.0205 
    127 H127       -3.9683  -19.9985  -41.6436 H         1 UNK         0.0600 
    128 H128       -4.3606  -20.2291  -43.3489 H         1 UNK         0.0600 
    129 H129       -5.6062  -19.6821  -42.2263 H         1 UNK         0.0600 
    130 H130       -3.4175  -18.5976  -44.5655 H         1 UNK         0.3000 
    131 H131       -3.8312  -15.7989  -43.9928 H         1 UNK         0.0600 
    132 H132       -4.0493  -16.3957  -46.2555 H         1 UNK         0.0800 
    133 H133       -2.5803  -15.4772  -46.1654 H         1 UNK         0.0800 
    134 H134       -3.7797  -17.3842  -48.4278 H         1 UNK         0.0800 
    135 H135       -2.2114  -16.7404  -48.8529 H         1 UNK         0.0800 
    136 H136       -4.4559  -19.5445  -49.2033 H         1 UNK         0.1150 
    137 H137       -1.6991  -21.9800  -51.4018 H         1 UNK         0.1150 
    138 H138       -0.3264  -18.4262  -49.4346 H         1 UNK         0.1150 
    139 H139        0.5519  -20.5551  -52.0384 H         1 UNK         0.0800 
    140 H140        1.2318  -19.7107  -50.6736 H         1 UNK         0.0800 
    141 H141        0.7270  -20.8504  -48.3136 H         1 UNK         0.0800 
    142 H142        2.3034  -21.5797  -48.2625 H         1 UNK         0.0800 
    143 H143        1.1694  -23.8623  -48.0187 H         1 UNK         0.0600 
    144 H144        1.2819  -21.8113  -45.9776 H         1 UNK         0.3000 
    145 H145        0.9010  -23.9595  -43.1985 H         1 UNK         0.0600 
    146 H146        3.2041  -23.2528  -42.6202 H         1 UNK         0.0600 
    147 H147        3.2475  -24.4971  -43.8589 H         1 UNK         0.0600 
    148 H148        3.5231  -22.8160  -44.2995 H         1 UNK         0.0600 
    149 H149        1.7981  -21.2512  -43.4610 H         1 UNK         0.3000 
    150 H150       -1.3696  -19.7135  -43.7733 H         1 UNK         0.0600 
    151 H151        0.4146  -19.7542  -41.2856 H         1 UNK         0.0600 
    152 H152       -1.2724  -20.2547  -41.3117 H         1 UNK         0.0600 
    153 H153       -0.8568  -18.5900  -41.6613 H         1 UNK         0.0600 
    154 H154        1.0561  -18.4329  -43.3363 H         1 UNK         0.3000 
    155 H155        2.9495  -18.6040  -45.5229 H         1 UNK         0.0600 
    156 H156        0.8984  -17.4647  -47.4967 H         1 UNK         0.0600 
    157 H157        2.0182  -18.7860  -47.8120 H         1 UNK         0.0600 
    158 H158        2.6325  -17.1610  -47.5630 H         1 UNK         0.0600 
    159 H159        0.9322  -16.5389  -44.8302 H         1 UNK         0.3000 
    160 H160        2.1398  -14.8896  -43.0926 H         1 UNK         0.0600 
    161 H161        4.3422  -13.6763  -44.8368 H         1 UNK         0.0600 
    162 H162        4.4668  -14.1898  -43.1620 H         1 UNK         0.0600 
    163 H163        3.4846  -12.7933  -43.5803 H         1 UNK         0.0600 
    164 H164        0.6050  -13.9847  -44.4166 H         1 UNK         0.3000 
    165 H165        0.5388  -12.4293  -47.5206 H         1 UNK         0.0600 
    166 H166       -1.1780  -14.1272  -48.2525 H         1 UNK         0.0600 
    167 H167        0.4676  -14.6779  -48.5231 H         1 UNK         0.0600 
    168 H168       -0.4432  -15.3080  -47.1631 H         1 UNK         0.0600 
    169 H169       -1.5522  -13.4699  -45.8412 H         1 UNK         0.3000 
    170 H170       -2.4785  -10.3832  -44.9465 H         1 UNK         0.0600 
    171 H171       -3.5084  -12.5432  -45.6824 H         1 UNK         0.0600 
    172 H172       -2.9012  -13.3394  -44.2251 H         1 UNK         0.0600 
    173 H173       -4.1014  -12.0625  -44.1053 H         1 UNK         0.0600 
    174 H174       -1.2378  -11.9450  -42.7332 H         1 UNK         0.3000 
    175 H175       -1.0203   -9.1939  -40.6627 H         1 UNK         0.0600 
    176 H176       -3.2555  -11.2344  -40.1629 H         1 UNK         0.0600 
    177 H177       -2.4297  -10.2855  -38.9256 H         1 UNK         0.0600 
    178 H178       -3.4372   -9.4849  -40.1201 H         1 UNK         0.0600 
    179 H179       -0.9554  -12.0654  -40.2041 H         1 UNK         0.3000 
    180 H180        2.1514  -12.6766  -41.6438 H         1 UNK         0.0600 
    181 H181        1.7821  -12.3811  -38.6189 H         1 UNK         0.0600 
    182 H182        3.0256  -11.5795  -39.5712 H         1 UNK         0.0600 
    183 H183        3.0304  -13.3288  -39.4298 H         1 UNK         0.0600 
    184 H184        0.8418  -14.3468  -39.8657 H         1 UNK         0.3000 
    185 H185       -0.0047  -16.3529  -41.4831 H         1 UNK         0.0600 
    186 H186       -0.5702  -15.6350  -39.1733 H         1 UNK         0.0600 
    187 H187       -2.1144  -14.9872  -39.7203 H         1 UNK         0.0600 
    188 H188       -1.8090  -16.7212  -39.7618 H         1 UNK         0.0600 
    189 H189       -2.7960  -16.0994  -41.8717 H         1 UNK         0.3000 
    190 H190       -1.1048  -21.6037  -46.4525 H         1 UNK         0.3000 
    191 H191       -3.4529  -22.4321  -47.8675 H         1 UNK         0.0600 
    192 H192       -3.4655  -20.3076  -46.7192 H         1 UNK         0.0600 
    193 H193       -4.6361  -21.3228  -45.9041 H         1 UNK         0.0600 
    194 H194       -3.0579  -21.0471  -45.1723 H         1 UNK         0.0600 
    195 H195       -1.9993  -23.5219  -44.7666 H         1 UNK         0.3000 
    196 H196       -3.9875  -25.4178  -44.0920 H         1 UNK         0.0600 
    197 H197       -2.2614  -26.3098  -42.5434 H         1 UNK         0.0600 
    198 H198       -2.2924  -24.5538  -42.4888 H         1 UNK         0.0600 
    199 H199       -1.0116  -25.3886  -43.3675 H         1 UNK         0.0600 
    200 H200       -0.9953  -25.7854  -46.0415 H         1 UNK         0.3000 
    201 H201       -1.3382  -28.5773  -46.6271 H         1 UNK         0.0600 
    202 H202        0.3892  -28.1048  -48.3743 H         1 UNK         0.0600 
    203 H203        0.8479  -27.4134  -46.8255 H         1 UNK         0.0600 
    204 H204        0.2097  -26.3760  -48.1002 H         1 UNK         0.0600 
    205 H205       -2.7283  -25.6708  -47.9351 H         1 UNK         0.3000 
    206 H206       -4.1922  -25.1248  -49.4776 H         1 UNK         0.0600 
    207 H207       -5.6400  -26.8520  -48.4006 H         1 UNK         0.0600 
    208 H208       -5.9816  -26.6989  -50.1167 H         1 UNK         0.0600 
    209 H209       -5.0470  -28.0685  -49.5313 H         1 UNK         0.0600 
    210 H210       -1.6692  -25.3056  -50.3423 H         1 UNK         0.3000 
    211 H211       -1.3153  -26.8472  -52.7610 H         1 UNK         0.0600 
    212 H212        0.2071  -24.4243  -51.6603 H         1 UNK         0.0600 
    213 H213        0.7745  -25.4878  -52.9408 H         1 UNK         0.0600 
    214 H214        0.5855  -26.1085  -51.3076 H         1 UNK         0.0600 
    215 H215       -1.0634  -25.9833  -54.9101 H         1 UNK         0.3000 
    216 H216       -3.0549  -23.9711  -55.6484 H         1 UNK         0.0600 
    217 H217       -2.5783  -24.7827  -57.9374 H         1 UNK         0.0600 
    218 H218       -2.8515  -26.1433  -56.8650 H         1 UNK         0.0600 
    219 H219       -1.2093  -25.7231  -57.3551 H         1 UNK         0.0600 
    220 H220       -0.2069  -23.3950  -54.3928 H         1 UNK         0.3000 
    221 H221        1.0558  -21.6260  -56.3573 H         1 UNK         0.0600 
    222 H222        1.6480  -22.2460  -53.4076 H         1 UNK         0.0600 
    223 H223        2.4510  -22.9631  -54.8003 H         1 UNK         0.0600 
    224 H224        2.6631  -21.2570  -54.4494 H         1 UNK         0.0600 
    225 H225        1.5837  -19.4227  -55.7245 H         1 UNK         0.3000 
    226 H226        1.2366  -17.3223  -55.2250 H         1 UNK         0.0600 
    227 H227        1.1963  -18.1087  -52.8286 H         1 UNK         0.0600 
    228 H228        0.2342  -16.6650  -53.0697 H         1 UNK         0.0600 
    229 H229       -0.5609  -18.2210  -52.9020 H         1 UNK         0.0600 
    230 H230       -0.4397  -15.5047  -54.9630 H         1 UNK         0.3000 
    231 H231       -2.3772  -15.6904  -57.0622 H         1 UNK         0.0600 
    232 H232       -1.9515  -13.5545  -54.9019 H         1 UNK         0.0600 
    233 H233       -2.9205  -13.3572  -56.3570 H         1 UNK         0.0600 
    234 H234       -1.1849  -13.5864  -56.4908 H         1 UNK         0.0600 
    235 H235       -2.5528  -16.4006  -53.6744 H         1 UNK         0.3000 
    236 H236       -5.3518  -16.0045  -53.2306 H         1 UNK         0.0600 
    237 H237       -3.7146  -16.0398  -51.3800 H         1 UNK         0.0600 
    238 H238       -4.8809  -17.3343  -51.1509 H         1 UNK         0.0600 
    239 H239       -3.2727  -17.7048  -51.7582 H         1 UNK         0.0600 
    240 H240       -3.4211  -18.8765  -54.2315 H         1 UNK         0.3000 
    241 H241       -5.9422  -20.4010  -54.6820 H         1 UNK         0.0600 
    242 H242       -3.1855  -20.5800  -57.5537 H         1 UNK         0.3800 
    243 H243       -3.0164  -19.3705  -56.3187 H         1 UNK         0.3800 
    244 H244       -4.7163  -22.4441  -53.7900 H         1 UNK         0.0800 
    245 H245       -3.4432  -21.3836  -53.2430 H         1 UNK         0.0800 
    246 H246       -4.8982  -22.0360  -49.7620 H         1 UNK         0.0800 
    247 H247       -3.9320  -22.7919  -51.0019 H         1 UNK         0.0800 
@<TRIPOS>BOND
     1    1    2 1    
     2    1  127 1    
     3    1  128 1    
     4    1  129 1    
     5    2    3 2    
     6    2    4 am   BACKBONE|DICT|INTERRES
     7    4    5 1    
     8    4  130 1    
     9    5    6 1    
    10    5   65 1    
    11    5  131 1    
    12    6    7 1    
    13    6  132 1    
    14    6  133 1    
    15    7    8 1    
    16    8    9 1    
    17    8  134 1    
    18    8  135 1    
    19    9   10 ar   
    20    9   14 ar   
    21   10   11 ar   
    22   10  136 1    
    23   11   12 ar   
    24   11  126 1    
    25   12   13 ar   
    26   12  137 1    
    27   13   14 ar   
    28   13   15 1    
    29   14  138 1    
    30   15   16 1    
    31   15  139 1    
    32   15  140 1    
    33   16   17 1    
    34   17   18 1    
    35   17  141 1    
    36   17  142 1    
    37   18   19 1    
    38   18   67 1    
    39   18  143 1    
    40   19   20 am   BACKBONE|DICT|INTERRES
    41   19  144 1    
    42   20   21 2    
    43   20   22 1    
    44   22   23 1    
    45   22   24 1    
    46   22  145 1    
    47   23  146 1    
    48   23  147 1    
    49   23  148 1    
    50   24   25 am   BACKBONE|DICT|INTERRES
    51   24  149 1    
    52   25   26 2    
    53   25   27 1    
    54   27   28 1    
    55   27   29 1    
    56   27  150 1    
    57   28  151 1    
    58   28  152 1    
    59   28  153 1    
    60   29   30 am   BACKBONE|DICT|INTERRES
    61   29  154 1    
    62   30   31 2    
    63   30   32 1    
    64   32   33 1    
    65   32   34 1    
    66   32  155 1    
    67   33  156 1    
    68   33  157 1    
    69   33  158 1    
    70   34   35 am   BACKBONE|DICT|INTERRES
    71   34  159 1    
    72   35   36 2    
    73   35   37 1    
    74   37   38 1    
    75   37   39 1    
    76   37  160 1    
    77   38  161 1    
    78   38  162 1    
    79   38  163 1    
    80   39   40 am   BACKBONE|DICT|INTERRES
    81   39  164 1    
    82   40   41 2    
    83   40   42 1    
    84   42   43 1    
    85   42   44 1    
    86   42  165 1    
    87   43  166 1    
    88   43  167 1    
    89   43  168 1    
    90   44   45 am   BACKBONE|DICT|INTERRES
    91   44  169 1    
    92   45   46 2    
    93   45   47 1    
    94   47   48 1    
    95   47   49 1    
    96   47  170 1    
    97   48  171 1    
    98   48  172 1    
    99   48  173 1    
   100   49   50 am   BACKBONE|DICT|INTERRES
   101   49  174 1    
   102   50   51 2    
   103   50   52 1    
   104   52   53 1    
   105   52   54 1    
   106   52  175 1    
   107   53  176 1    
   108   53  177 1    
   109   53  178 1    
   110   54   55 am   BACKBONE|DICT|INTERRES
   111   54  179 1    
   112   55   56 2    
   113   55   57 1    
   114   57   58 1    
   115   57   59 1    
   116   57  180 1    
   117   58  181 1    
   118   58  182 1    
   119   58  183 1    
   120   59   60 am   BACKBONE|DICT|INTERRES
   121   59  184 1    
   122   60   61 2    
   123   60   62 1    
   124   62   63 1    
   125   62   64 1    
   126   62  185 1    
   127   63  186 1    
   128   63  187 1    
   129   63  188 1    
   130   64   65 am   BACKBONE|DICT|INTERRES
   131   64  189 1    
   132   65   66 2    
   133   67   68 2    
   134   67   69 am   BACKBONE|DICT|INTERRES
   135   69   70 1    
   136   69  190 1    
   137   70   71 1    
   138   70   72 1    
   139   70  191 1    
   140   71  192 1    
   141   71  193 1    
   142   71  194 1    
   143   72   73 2    
   144   72   74 am   BACKBONE|DICT|INTERRES
   145   74   75 1    
   146   74  195 1    
   147   75   76 1    
   148   75   77 1    
   149   75  196 1    
   150   76  197 1    
   151   76  198 1    
   152   76  199 1    
   153   77   78 2    
   154   77   79 am   BACKBONE|DICT|INTERRES
   155   79   80 1    
   156   79  200 1    
   157   80   81 1    
   158   80   82 1    
   159   80  201 1    
   160   81  202 1    
   161   81  203 1    
   162   81  204 1    
   163   82   83 2    
   164   82   84 am   BACKBONE|DICT|INTERRES
   165   84   85 1    
   166   84  205 1    
   167   85   86 1    
   168   85   87 1    
   169   85  206 1    
   170   86  207 1    
   171   86  208 1    
   172   86  209 1    
   173   87   88 2    
   174   87   89 am   BACKBONE|DICT|INTERRES
   175   89   90 1    
   176   89  210 1    
   177   90   91 1    
   178   90   92 1    
   179   90  211 1    
   180   91  212 1    
   181   91  213 1    
   182   91  214 1    
   183   92   93 2    
   184   92   94 am   BACKBONE|DICT|INTERRES
   185   94   95 1    
   186   94  215 1    
   187   95   96 1    
   188   95   97 1    
   189   95  216 1    
   190   96  217 1    
   191   96  218 1    
   192   96  219 1    
   193   97   98 2    
   194   97   99 am   BACKBONE|DICT|INTERRES
   195   99  100 1    
   196   99  220 1    
   197  100  101 1    
   198  100  102 1    
   199  100  221 1    
   200  101  222 1    
   201  101  223 1    
   202  101  224 1    
   203  102  103 2    
   204  102  104 am   BACKBONE|DICT|INTERRES
   205  104  105 1    
   206  104  225 1    
   207  105  106 1    
   208  105  107 1    
   209  105  226 1    
   210  106  227 1    
   211  106  228 1    
   212  106  229 1    
   213  107  108 2    
   214  107  109 am   BACKBONE|DICT|INTERRES
   215  109  110 1    
   216  109  230 1    
   217  110  111 1    
   218  110  112 1    
   219  110  231 1    
   220  111  232 1    
   221  111  233 1    
   222  111  234 1    
   223  112  113 2    
   224  112  114 am   BACKBONE|DICT|INTERRES
   225  114  115 1    
   226  114  235 1    
   227  115  116 1    
   228  115  117 1    
   229  115  236 1    
   230  116  237 1    
   231  116  238 1    
   232  116  239 1    
   233  117  118 2    
   234  117  119 am   BACKBONE|DICT|INTERRES
   235  119  120 1    
   236  119  240 1    
   237  120  121 1    
   238  120  124 1    
   239  120  241 1    
   240  121  122 am   BACKBONE|DICT|INTERRES
   241  121  123 2    
   242  122  242 1    
   243  122  243 1    
   244  124  125 1    
   245  124  244 1    
   246  124  245 1    
   247  125  126 1    
   248  126  246 1    
   249  126  247 1    
@<TRIPOS>SUBSTRUCTURE
     1 UNK         1 GROUP             0       ****    0 ROOT    
