@<TRIPOS>MOLECULE
3R540
247   249    1
SMALL
USER_CHARGES


@<TRIPOS>ATOM
      1 CA         -2.3668  -16.8846  -49.3802 C.3       0 UNK        -0.1800 
      2 C          -1.7318  -15.5048  -49.4452 C.2       0 UNK         0.5000 
      3 O          -2.3935  -14.5394  -49.8261 O.2       0 UNK        -0.5000 
      4 N          -0.4596  -15.3994  -49.0463 N.am      1 UNK        -0.5000 
      5 CA          0.3664  -14.1825  -48.9986 C.3       1 UNK         0.1400 
      6 C6          1.8838  -14.5284  -49.0310 C.3       23 UNK        -0.0398 
      7 S7          2.3874  -15.8939  -47.9137 S.3       23 UNK        -0.2404 
      8 C8          3.5078  -16.8664  -48.9758 C.3       23 UNK        -0.0205 
      9 C9          2.7826  -17.9416  -49.7777 C.ar      23 UNK        -0.0193 
     10 C10         2.0693  -17.6079  -50.9318 C.ar      23 UNK        -0.1150 
     11 C11         1.4267  -18.5937  -51.6828 C.ar      23 UNK        -0.0193 
     12 C12         1.5059  -19.9279  -51.2755 C.ar      23 UNK        -0.1150 
     13 C13         2.2283  -20.2890  -50.1324 C.ar      23 UNK        -0.0193 
     14 C14         2.8645  -19.2839  -49.3910 C.ar      23 UNK        -0.1150 
     15 C15         2.3277  -21.7733  -49.7706 C.3       23 UNK        -0.0205 
     16 S16         2.7262  -22.1443  -48.0266 S.3       23 UNK        -0.2404 
     17 C17         2.1148  -23.8679  -47.8811 C.3       23 UNK        -0.0398 
     18 CA          0.8180  -24.0074  -47.0405 C.3       11 UNK         0.1400 
     19 N           0.9946  -23.4525  -45.6906 N.am      11 UNK        -0.5000 
     20 C           0.0684  -23.2899  -44.7336 C.2       10 UNK         0.5000 
     21 O          -1.1020  -23.6550  -44.8410 O.2       10 UNK        -0.5000 
     22 CA          0.5013  -22.5571  -43.4508 C.3       10 UNK         0.1400 
     23 CB          0.6768  -23.5565  -42.2984 C.3       10 UNK        -0.1800 
     24 N           1.7238  -21.7592  -43.5764 N.am      10 UNK        -0.5000 
     25 C           1.9125  -20.7213  -44.4023 C.2       9 UNK         0.5000 
     26 O           1.0928  -20.3605  -45.2491 O.2       9 UNK        -0.5000 
     27 CA          3.2406  -19.9621  -44.2168 C.3       9 UNK         0.1400 
     28 CB          3.4830  -18.9045  -45.3076 C.3       9 UNK        -0.1800 
     29 N           3.2818  -19.3108  -42.9090 N.am      9 UNK        -0.5000 
     30 C           3.5600  -19.9035  -41.7401 C.2       8 UNK         0.5000 
     31 O           3.8611  -21.0935  -41.6357 O.2       8 UNK        -0.5000 
     32 CA          3.4412  -19.0311  -40.4802 C.3       8 UNK         0.1400 
     33 CB          4.6194  -18.0490  -40.3810 C.3       8 UNK        -0.1800 
     34 N           2.1858  -18.2818  -40.4994 N.am      8 UNK        -0.5000 
     35 C           1.0756  -18.6249  -39.8310 C.2       7 UNK         0.5000 
     36 O           1.0139  -19.5719  -39.0459 O.2       7 UNK        -0.5000 
     37 CA         -0.1882  -17.7753  -40.0864 C.3       7 UNK         0.1400 
     38 CB         -0.2723  -16.6228  -39.0743 C.3       7 UNK        -0.1800 
     39 N          -0.2481  -17.2257  -41.4416 N.am      7 UNK        -0.5000 
     40 C          -0.3418  -17.9591  -42.5596 C.2       6 UNK         0.5000 
     41 O          -0.5497  -19.1718  -42.5547 O.2       6 UNK        -0.5000 
     42 CA         -0.1315  -17.2330  -43.9044 C.3       6 UNK         0.1400 
     43 CB         -1.4626  -17.0554  -44.6491 C.3       6 UNK        -0.1800 
     44 N           0.5456  -15.9351  -43.7996 N.am      6 UNK        -0.5000 
     45 C           1.7982  -15.7436  -43.3576 C.2       5 UNK         0.5000 
     46 O           2.5060  -16.6432  -42.9077 O.2       5 UNK        -0.5000 
     47 CA          2.3427  -14.3100  -43.3812 C.3       5 UNK         0.1400 
     48 CB          2.8005  -13.9358  -44.7949 C.3       5 UNK        -0.1800 
     49 N           1.3312  -13.3619  -42.9204 N.am      5 UNK        -0.5000 
     50 C           1.2270  -12.9354  -41.6542 C.2       4 UNK         0.5000 
     51 O           2.0061  -13.2569  -40.7562 O.2       4 UNK        -0.5000 
     52 CA          0.0477  -12.0001  -41.3240 C.3       4 UNK         0.1400 
     53 CB          0.4534  -10.5317  -41.5219 C.3       4 UNK        -0.1800 
     54 N          -1.1530  -12.2741  -42.1135 N.am      4 UNK        -0.5000 
     55 C          -1.8663  -13.4067  -42.0539 C.2       3 UNK         0.5000 
     56 O          -1.5974  -14.3496  -41.3099 O.2       3 UNK        -0.5000 
     57 CA         -3.0648  -13.5175  -43.0145 C.3       3 UNK         0.1400 
     58 CB         -4.3382  -12.9831  -42.3418 C.3       3 UNK        -0.1800 
     59 N          -2.8830  -12.8404  -44.3046 N.am      3 UNK        -0.5000 
     60 C          -1.8918  -13.0699  -45.1772 C.2       2 UNK         0.5000 
     61 O          -0.9370  -13.8133  -44.9408 O.2       2 UNK        -0.5000 
     62 CA         -2.0048  -12.3328  -46.5247 C.3       2 UNK         0.1400 
     63 CB         -1.5361  -10.8688  -46.4071 C.3       2 UNK        -0.1800 
     64 N          -1.3316  -13.0488  -47.6147 N.am      2 UNK        -0.5000 
     65 C          -0.0217  -13.2014  -47.8576 C.2       1 UNK         0.5000 
     66 O           0.8565  -12.5914  -47.2474 O.2       1 UNK        -0.5000 
     67 C          -0.4011  -23.4346  -47.7980 C.2       11 UNK         0.5000 
     68 O          -1.0807  -24.1768  -48.5102 O.2       11 UNK        -0.5000 
     69 N          -0.6816  -22.1423  -47.5742 N.am      12 UNK        -0.5000 
     70 CA         -1.8371  -21.3990  -48.0719 C.3       12 UNK         0.1400 
     71 CB         -1.7977  -19.9893  -47.4636 C.3       12 UNK        -0.1800 
     72 C          -3.1880  -22.0778  -47.7733 C.2       12 UNK         0.5000 
     73 O          -4.0693  -22.0675  -48.6333 O.2       12 UNK        -0.5000 
     74 N          -3.3034  -22.6800  -46.5828 N.am      13 UNK        -0.5000 
     75 CA         -4.4799  -23.4148  -46.1286 C.3       13 UNK         0.1400 
     76 CB         -4.8206  -22.9749  -44.6963 C.3       13 UNK        -0.1800 
     77 C          -4.2480  -24.9333  -46.1807 C.2       13 UNK         0.5000 
     78 O          -5.1314  -25.6601  -46.6334 O.2       13 UNK        -0.5000 
     79 N          -3.0714  -25.3902  -45.7276 N.am      14 UNK        -0.5000 
     80 CA         -2.7264  -26.8034  -45.5498 C.3       14 UNK         0.1400 
     81 CB         -1.4096  -26.9131  -44.7658 C.3       14 UNK        -0.1800 
     82 C          -2.6392  -27.5952  -46.8653 C.2       14 UNK         0.5000 
     83 O          -3.0635  -28.7507  -46.9021 O.2       14 UNK        -0.5000 
     84 N          -2.1181  -26.9557  -47.9200 N.am      15 UNK        -0.5000 
     85 CA         -2.0799  -27.4971  -49.2810 C.3       15 UNK         0.1400 
     86 CB         -0.6716  -27.2788  -49.8617 C.3       15 UNK        -0.1800 
     87 C          -3.1544  -26.8465  -50.1748 C.2       15 UNK         0.5000 
     88 O          -3.2106  -27.1525  -51.3662 O.2       15 UNK        -0.5000 
     89 N          -3.9631  -25.9433  -49.5947 N.am      16 UNK        -0.5000 
     90 CA         -4.9692  -25.0879  -50.2350 C.3       16 UNK         0.1400 
     91 CB         -6.1517  -25.9297  -50.7557 C.3       16 UNK        -0.1800 
     92 C          -4.3725  -24.1611  -51.3162 C.2       16 UNK         0.5000 
     93 O          -5.0655  -23.7898  -52.2647 O.2       16 UNK        -0.5000 
     94 N          -3.0907  -23.7999  -51.1564 N.am      17 UNK        -0.5000 
     95 CA         -2.2958  -23.0626  -52.1381 C.3       17 UNK         0.1400 
     96 CB         -0.8235  -23.1055  -51.7133 C.3       17 UNK        -0.1800 
     97 C          -2.7551  -21.6123  -52.3810 C.2       17 UNK         0.5000 
     98 O          -2.3410  -21.0242  -53.3774 O.2       17 UNK        -0.5000 
     99 N          -3.6068  -21.0698  -51.4974 N.am      18 UNK        -0.5000 
    100 CA        -4.2552  -19.7666  -51.6533 C.3       18 UNK         0.1400 
    101 CB        -4.9233  -19.3786  -50.3263 C.3       18 UNK        -0.1800 
    102 C         -5.2867  -19.7150  -52.7992 C.2       18 UNK         0.5000 
    103 O         -5.6109  -18.6184  -53.2602 O.2       18 UNK        -0.5000 
    104 N         -5.7926  -20.8798  -53.2346 N.am      19 UNK        -0.5000 
    105 CA        -6.7576  -21.0223  -54.3269 C.3       19 UNK         0.1400 
    106 CB        -7.1316  -22.5044  -54.4774 C.3       19 UNK        -0.1800 
    107 C         -6.2358  -20.4611  -55.6642 C.2       19 UNK         0.5000 
    108 O         -5.0347  -20.5311  -55.9336 O.2       19 UNK        -0.5000 
    109 N         -7.1602  -19.9176  -56.4697 N.am      20 UNK        -0.5000 
    110 CA        -6.9205  -19.2519  -57.7567 C.3       20 UNK         0.1400 
    111 CB        -6.4392  -20.2636  -58.8187 C.3       20 UNK        -0.1800 
    112 C         -5.9920  -18.0258  -57.6183 C.2       20 UNK         0.5000 
    113 O         -5.0450  -17.8717  -58.3923 O.2       20 UNK        -0.5000 
    114 N         -6.2708  -17.1941  -56.6010 N.am      21 UNK        -0.5000 
    115 CA        -5.5478  -15.9681  -56.2330 C.3       21 UNK         0.1400 
    116 CB        -5.7913  -14.8649  -57.2840 C.3       21 UNK        -0.1800 
    117 C         -4.0487  -16.2143  -55.9544 C.2       21 UNK         0.5000 
    118 O         -3.1964  -15.4295  -56.3745 O.2       21 UNK        -0.5000 
    119 N         -3.7629  -17.3249  -55.2652 N.am      22 UNK        -0.5000 
    120 CA        -2.4221  -17.8589  -54.9806 C.3       22 UNK         0.1400 
    121 C         -1.6555  -18.4170  -56.2218 C.2       22 UNK         0.5000 
    122 N         -2.2769  -18.5704  -57.3859 N.am      22 UNK        -0.7600 
    123 O         -0.4732  -18.7358  -56.1320 O.2       22 UNK        -0.5000 
    124 C124       -1.5577  -16.8977  -54.1051 C.3       23 UNK        -0.0398 
    125 S125       -1.0145  -17.6547  -52.5377 S.3       23 UNK        -0.2404 
    126 C126        0.6661  -18.2088  -52.9423 C.3       23 UNK        -0.0205 
    127 H127       -1.6117  -17.6707  -49.3964 H         1 UNK         0.0600 
    128 H128       -3.0259  -17.0344  -50.2350 H         1 UNK         0.0600 
    129 H129       -2.9574  -16.9852  -48.4699 H         1 UNK         0.0600 
    130 H130        0.0194  -16.2275  -48.7199 H         1 UNK         0.3000 
    131 H131        0.1604  -13.6266  -49.9157 H         1 UNK         0.0600 
    132 H132        2.5036  -13.6569  -48.8149 H         1 UNK         0.0800 
    133 H133        2.1501  -14.7923  -50.0520 H         1 UNK         0.0800 
    134 H134        4.0569  -16.2055  -49.6478 H         1 UNK         0.0800 
    135 H135        4.2609  -17.3284  -48.3357 H         1 UNK         0.0800 
    136 H136        2.0144  -16.5822  -51.2613 H         1 UNK         0.1150 
    137 H137        1.0149  -20.6893  -51.8639 H         1 UNK         0.1150 
    138 H138        3.4460  -19.5431  -48.5205 H         1 UNK         0.1150 
    139 H139        1.3818  -22.2538  -50.0096 H         1 UNK         0.0800 
    140 H140        3.0804  -22.2391  -50.4078 H         1 UNK         0.0800 
    141 H141        2.9068  -24.4552  -47.4145 H         1 UNK         0.0800 
    142 H142        1.9826  -24.3063  -48.8722 H         1 UNK         0.0800 
    143 H143        0.6237  -25.0733  -46.9110 H         1 UNK         0.0600 
    144 H144        1.9126  -23.0798  -45.4987 H         1 UNK         0.3000 
    145 H145       -0.3078  -21.8725  -43.1894 H         1 UNK         0.0600 
    146 H146        0.8813  -23.0423  -41.3589 H         1 UNK         0.0600 
    147 H147       -0.2271  -24.1499  -42.1523 H         1 UNK         0.0600 
    148 H148        1.4976  -24.2490  -42.4890 H         1 UNK         0.0600 
    149 H149        2.4490  -21.9379  -42.8902 H         1 UNK         0.3000 
    150 H150        4.0505  -20.6920  -44.2780 H         1 UNK         0.0600 
    151 H151        3.4946  -19.3674  -46.2929 H         1 UNK         0.0600 
    152 H152        4.4432  -18.4075  -45.1705 H         1 UNK         0.0600 
    153 H153        2.7094  -18.1368  -45.3164 H         1 UNK         0.0600 
    154 H154        3.0240  -18.3254  -42.9023 H         1 UNK         0.3000 
    155 H155        3.4791  -19.6892  -39.6096 H         1 UNK         0.0600 
    156 H156        4.6414  -17.3521  -41.2198 H         1 UNK         0.0600 
    157 H157        5.5712  -18.5817  -40.3708 H         1 UNK         0.0600 
    158 H158        4.5646  -17.4635  -39.4632 H         1 UNK         0.0600 
    159 H159        2.1358  -17.5174  -41.1641 H         1 UNK         0.3000 
    160 H160       -1.0567  -18.4218  -39.9448 H         1 UNK         0.0600 
    161 H161        0.5413  -15.9086  -39.2092 H         1 UNK         0.0600 
    162 H162       -0.2189  -16.9949  -38.0503 H         1 UNK         0.0600 
    163 H163       -1.2130  -16.0808  -39.1726 H         1 UNK         0.0600 
    164 H164       -0.1551  -16.2224  -41.5308 H         1 UNK         0.3000 
    165 H165        0.5026  -17.8757  -44.5150 H         1 UNK         0.0600 
    166 H166       -1.3082  -16.6165  -45.6354 H         1 UNK         0.0600 
    167 H167       -1.9594  -18.0152  -44.7952 H         1 UNK         0.0600 
    168 H168       -2.1461  -16.4127  -44.0967 H         1 UNK         0.0600 
    169 H169        0.0322  -15.1369  -44.1686 H         1 UNK         0.3000 
    170 H170        3.2186  -14.2697  -42.7301 H         1 UNK         0.0600 
    171 H171        3.6143  -14.5824  -45.1254 H         1 UNK         0.0600 
    172 H172        1.9885  -14.0448  -45.5116 H         1 UNK         0.0600 
    173 H173        3.1571  -12.9069  -44.8416 H         1 UNK         0.0600 
    174 H174        0.6170  -13.1011  -43.5893 H         1 UNK         0.3000 
    175 H175       -0.2039  -12.1468  -40.2714 H         1 UNK         0.0600 
    176 H176        0.6900  -10.3166  -42.5648 H         1 UNK         0.0600 
    177 H177       -0.3439   -9.8562  -41.2113 H         1 UNK         0.0600 
    178 H178        1.3350  -10.2866  -40.9279 H         1 UNK         0.0600 
    179 H179       -1.4457  -11.5589  -42.7626 H         1 UNK         0.3000 
    180 H180       -3.2168  -14.5774  -43.2211 H         1 UNK         0.0600 
    181 H181       -4.2703  -11.9125  -42.1447 H         1 UNK         0.0600 
    182 H182       -4.5156  -13.4820  -41.3879 H         1 UNK         0.0600 
    183 H183       -5.2164  -13.1559  -42.9641 H         1 UNK         0.0600 
    184 H184       -3.6180  -12.2008  -44.5702 H         1 UNK         0.3000 
    185 H185       -3.0602  -12.3222  -46.8009 H         1 UNK         0.0600 
    186 H186       -2.1854  -10.3061  -45.7357 H         1 UNK         0.0600 
    187 H187       -0.5234  -10.7920  -46.0105 H         1 UNK         0.0600 
    188 H188       -1.5582  -10.3671  -47.3746 H         1 UNK         0.0600 
    189 H189       -1.9495  -13.5713  -48.2286 H         1 UNK         0.3000 
    190 H190       -0.0551  -21.6290  -46.9657 H         1 UNK         0.3000 
    191 H191       -1.7409  -21.3086  -49.1542 H         1 UNK         0.0600 
    192 H192       -0.9046  -19.4496  -47.7801 H         1 UNK         0.0600 
    193 H193       -2.6629  -19.4008  -47.7663 H         1 UNK         0.0600 
    194 H194       -1.7935  -20.0245  -46.3733 H         1 UNK         0.0600 
    195 H195       -2.4965  -22.6991  -45.9693 H         1 UNK         0.3000 
    196 H196       -5.3394  -23.1866  -46.7627 H         1 UNK         0.0600 
    197 H197       -5.6938  -23.5094  -44.3198 H         1 UNK         0.0600 
    198 H198       -5.0499  -21.9099  -44.6578 H         1 UNK         0.0600 
    199 H199       -3.9958  -23.1636  -44.0075 H         1 UNK         0.0600 
    200 H200       -2.3862  -24.7213  -45.3795 H         1 UNK         0.3000 
    201 H201       -3.5147  -27.2587  -44.9466 H         1 UNK         0.0600 
    202 H202       -1.4836  -26.4154  -43.7986 H         1 UNK         0.0600 
    203 H203       -0.5780  -26.4646  -45.3092 H         1 UNK         0.0600 
    204 H204       -1.1531  -27.9561  -44.5759 H         1 UNK         0.0600 
    205 H205       -1.7977  -25.9990  -47.8168 H         1 UNK         0.3000 
    206 H206       -2.2759  -28.5710  -49.2743 H         1 UNK         0.0600 
    207 H207        0.0926  -27.7123  -49.2164 H         1 UNK         0.0600 
    208 H208       -0.5752  -27.7521  -50.8395 H         1 UNK         0.0600 
    209 H209       -0.4421  -26.2214  -49.9897 H         1 UNK         0.0600 
    210 H210       -3.8636  -25.8136  -48.5976 H         1 UNK         0.3000 
    211 H211       -5.3522  -24.4311  -49.4528 H         1 UNK         0.0600 
    212 H212       -5.8584  -26.5684  -51.5893 H         1 UNK         0.0600 
    213 H213       -6.9637  -25.2905  -51.1042 H         1 UNK         0.0600 
    214 H214       -6.5568  -26.5670  -49.9697 H         1 UNK         0.0600 
    215 H215       -2.6010  -24.1189  -50.3305 H         1 UNK         0.3000 
    216 H216       -2.3863  -23.5888  -53.0906 H         1 UNK         0.0600 
    217 H217       -0.1835  -22.6597  -52.4753 H         1 UNK         0.0600 
    218 H218       -0.4810  -24.1289  -51.5586 H         1 UNK         0.0600 
    219 H219       -0.6725  -22.5549  -50.7878 H         1 UNK         0.0600 
    220 H220       -3.8819  -21.6168  -50.6892 H         1 UNK         0.3000 
    221 H221       -3.4850  -19.0280  -51.8757 H         1 UNK         0.0600 
    222 H222       -5.6934  -20.0958  -50.0394 H         1 UNK         0.0600 
    223 H223       -4.1950  -19.3299  -49.5189 H         1 UNK         0.0600 
    224 H224       -5.3949  -18.3975  -50.3958 H         1 UNK         0.0600 
    225 H225       -5.4490  -21.7418  -52.8274 H         1 UNK         0.3000 
    226 H226       -7.6530  -20.4660  -54.0426 H         1 UNK         0.0600 
    227 H227       -7.5467  -22.9038  -53.5518 H         1 UNK         0.0600 
    228 H228       -7.8815  -22.6438  -55.2570 H         1 UNK         0.0600 
    229 H229       -6.2642  -23.1101  -54.7436 H         1 UNK         0.0600 
    230 H230       -8.1221  -19.9181  -56.1591 H         1 UNK         0.3000 
    231 H231       -7.8849  -18.8650  -58.0893 H         1 UNK         0.0600 
    232 H232       -7.1271  -21.1050  -58.9015 H         1 UNK         0.0600 
    233 H233       -5.4507  -20.6604  -58.5858 H         1 UNK         0.0600 
    234 H234       -6.3788  -19.7965  -59.8023 H         1 UNK         0.0600 
    235 H235       -7.0443  -17.4367  -55.9978 H         1 UNK         0.3000 
    236 H236       -5.9783  -15.6269  -55.2904 H         1 UNK         0.0600 
    237 H237       -5.3587  -13.9164  -56.9636 H         1 UNK         0.0600 
    238 H238       -5.3472  -15.1185  -58.2472 H         1 UNK         0.0600 
    239 H239       -6.8569  -14.6974  -57.4400 H         1 UNK         0.0600 
    240 H240       -4.5320  -17.8990  -54.9384 H         1 UNK         0.3000 
    241 H241       -2.6391  -18.7488  -54.3950 H         1 UNK         0.0600 
    242 H242       -3.2502  -18.3136  -57.5047 H         1 UNK         0.3800 
    243 H243       -1.7640  -18.9400  -58.1699 H         1 UNK         0.3800 
    244 H244       -2.1311  -16.0144  -53.8216 H         1 UNK         0.0800 
    245 H245       -0.6978  -16.5041  -54.6497 H         1 UNK         0.0800 
    246 H246        1.2023  -17.4163  -53.4662 H         1 UNK         0.0800 
    247 H247        0.6105  -19.0547  -53.6291 H         1 UNK         0.0800 
@<TRIPOS>BOND
     1    1    2 1    
     2    1  127 1    
     3    1  128 1    
     4    1  129 1    
     5    2    3 2    
     6    2    4 am   BACKBONE|DICT|INTERRES
     7    4    5 1    
     8    4  130 1    
     9    5    6 1    
    10    5   65 1    
    11    5  131 1    
    12    6    7 1    
    13    6  132 1    
    14    6  133 1    
    15    7    8 1    
    16    8    9 1    
    17    8  134 1    
    18    8  135 1    
    19    9   10 ar   
    20    9   14 ar   
    21   10   11 ar   
    22   10  136 1    
    23   11   12 ar   
    24   11  126 1    
    25   12   13 ar   
    26   12  137 1    
    27   13   14 ar   
    28   13   15 1    
    29   14  138 1    
    30   15   16 1    
    31   15  139 1    
    32   15  140 1    
    33   16   17 1    
    34   17   18 1    
    35   17  141 1    
    36   17  142 1    
    37   18   19 1    
    38   18   67 1    
    39   18  143 1    
    40   19   20 am   BACKBONE|DICT|INTERRES
    41   19  144 1    
    42   20   21 2    
    43   20   22 1    
    44   22   23 1    
    45   22   24 1    
    46   22  145 1    
    47   23  146 1    
    48   23  147 1    
    49   23  148 1    
    50   24   25 am   BACKBONE|DICT|INTERRES
    51   24  149 1    
    52   25   26 2    
    53   25   27 1    
    54   27   28 1    
    55   27   29 1    
    56   27  150 1    
    57   28  151 1    
    58   28  152 1    
    59   28  153 1    
    60   29   30 am   BACKBONE|DICT|INTERRES
    61   29  154 1    
    62   30   31 2    
    63   30   32 1    
    64   32   33 1    
    65   32   34 1    
    66   32  155 1    
    67   33  156 1    
    68   33  157 1    
    69   33  158 1    
    70   34   35 am   BACKBONE|DICT|INTERRES
    71   34  159 1    
    72   35   36 2    
    73   35   37 1    
    74   37   38 1    
    75   37   39 1    
    76   37  160 1    
    77   38  161 1    
    78   38  162 1    
    79   38  163 1    
    80   39   40 am   BACKBONE|DICT|INTERRES
    81   39  164 1    
    82   40   41 2    
    83   40   42 1    
    84   42   43 1    
    85   42   44 1    
    86   42  165 1    
    87   43  166 1    
    88   43  167 1    
    89   43  168 1    
    90   44   45 am   BACKBONE|DICT|INTERRES
    91   44  169 1    
    92   45   46 2    
    93   45   47 1    
    94   47   48 1    
    95   47   49 1    
    96   47  170 1    
    97   48  171 1    
    98   48  172 1    
    99   48  173 1    
   100   49   50 am   BACKBONE|DICT|INTERRES
   101   49  174 1    
   102   50   51 2    
   103   50   52 1    
   104   52   53 1    
   105   52   54 1    
   106   52  175 1    
   107   53  176 1    
   108   53  177 1    
   109   53  178 1    
   110   54   55 am   BACKBONE|DICT|INTERRES
   111   54  179 1    
   112   55   56 2    
   113   55   57 1    
   114   57   58 1    
   115   57   59 1    
   116   57  180 1    
   117   58  181 1    
   118   58  182 1    
   119   58  183 1    
   120   59   60 am   BACKBONE|DICT|INTERRES
   121   59  184 1    
   122   60   61 2    
   123   60   62 1    
   124   62   63 1    
   125   62   64 1    
   126   62  185 1    
   127   63  186 1    
   128   63  187 1    
   129   63  188 1    
   130   64   65 am   BACKBONE|DICT|INTERRES
   131   64  189 1    
   132   65   66 2    
   133   67   68 2    
   134   67   69 am   BACKBONE|DICT|INTERRES
   135   69   70 1    
   136   69  190 1    
   137   70   71 1    
   138   70   72 1    
   139   70  191 1    
   140   71  192 1    
   141   71  193 1    
   142   71  194 1    
   143   72   73 2    
   144   72   74 am   BACKBONE|DICT|INTERRES
   145   74   75 1    
   146   74  195 1    
   147   75   76 1    
   148   75   77 1    
   149   75  196 1    
   150   76  197 1    
   151   76  198 1    
   152   76  199 1    
   153   77   78 2    
   154   77   79 am   BACKBONE|DICT|INTERRES
   155   79   80 1    
   156   79  200 1    
   157   80   81 1    
   158   80   82 1    
   159   80  201 1    
   160   81  202 1    
   161   81  203 1    
   162   81  204 1    
   163   82   83 2    
   164   82   84 am   BACKBONE|DICT|INTERRES
   165   84   85 1    
   166   84  205 1    
   167   85   86 1    
   168   85   87 1    
   169   85  206 1    
   170   86  207 1    
   171   86  208 1    
   172   86  209 1    
   173   87   88 2    
   174   87   89 am   BACKBONE|DICT|INTERRES
   175   89   90 1    
   176   89  210 1    
   177   90   91 1    
   178   90   92 1    
   179   90  211 1    
   180   91  212 1    
   181   91  213 1    
   182   91  214 1    
   183   92   93 2    
   184   92   94 am   BACKBONE|DICT|INTERRES
   185   94   95 1    
   186   94  215 1    
   187   95   96 1    
   188   95   97 1    
   189   95  216 1    
   190   96  217 1    
   191   96  218 1    
   192   96  219 1    
   193   97   98 2    
   194   97   99 am   BACKBONE|DICT|INTERRES
   195   99  100 1    
   196   99  220 1    
   197  100  101 1    
   198  100  102 1    
   199  100  221 1    
   200  101  222 1    
   201  101  223 1    
   202  101  224 1    
   203  102  103 2    
   204  102  104 am   BACKBONE|DICT|INTERRES
   205  104  105 1    
   206  104  225 1    
   207  105  106 1    
   208  105  107 1    
   209  105  226 1    
   210  106  227 1    
   211  106  228 1    
   212  106  229 1    
   213  107  108 2    
   214  107  109 am   BACKBONE|DICT|INTERRES
   215  109  110 1    
   216  109  230 1    
   217  110  111 1    
   218  110  112 1    
   219  110  231 1    
   220  111  232 1    
   221  111  233 1    
   222  111  234 1    
   223  112  113 2    
   224  112  114 am   BACKBONE|DICT|INTERRES
   225  114  115 1    
   226  114  235 1    
   227  115  116 1    
   228  115  117 1    
   229  115  236 1    
   230  116  237 1    
   231  116  238 1    
   232  116  239 1    
   233  117  118 2    
   234  117  119 am   BACKBONE|DICT|INTERRES
   235  119  120 1    
   236  119  240 1    
   237  120  121 1    
   238  120  124 1    
   239  120  241 1    
   240  121  122 am   BACKBONE|DICT|INTERRES
   241  121  123 2    
   242  122  242 1    
   243  122  243 1    
   244  124  125 1    
   245  124  244 1    
   246  124  245 1    
   247  125  126 1    
   248  126  246 1    
   249  126  247 1    
@<TRIPOS>SUBSTRUCTURE
     1 UNK         1 GROUP             0       ****    0 ROOT    
