@<TRIPOS>MOLECULE
3R540
247   249    1
SMALL
USER_CHARGES


@<TRIPOS>ATOM
      1 CA          3.4184  -10.6070  -54.8912 C.3       0 UNK        -0.1800 
      2 C           4.0755  -10.6761  -53.5197 C.2       0 UNK         0.5000 
      3 O           5.1702  -10.1432  -53.3358 O.2       0 UNK        -0.5000 
      4 N           3.4126  -11.3242  -52.5590 N.am      1 UNK        -0.5000 
      5 CA          3.8572  -11.4950  -51.1776 C.3       1 UNK         0.1400 
      6 C6          5.0231  -12.5186  -51.0291 C.3       23 UNK        -0.0398 
      7 S7          4.6313  -14.2145  -51.5948 S.3       23 UNK        -0.2404 
      8 C8          4.3141  -15.0681  -50.0143 C.3       23 UNK        -0.0205 
      9 C9          3.2310  -16.1248  -50.1639 C.ar      23 UNK        -0.0193 
     10 C10         1.9178  -15.7407  -50.4489 C.ar      23 UNK        -0.1150 
     11 C11         0.9118  -16.6964  -50.6032 C.ar      23 UNK        -0.0193 
     12 C12         1.2266  -18.0507  -50.4612 C.ar      23 UNK        -0.1150 
     13 C13         2.5289  -18.4488  -50.1400 C.ar      23 UNK        -0.0193 
     14 C14         3.5289  -17.4805  -50.0017 C.ar      23 UNK        -0.1150 
     15 C15         2.8615  -19.9205  -49.9373 C.3       23 UNK        -0.0205 
     16 S16         2.4474  -20.4782  -48.2509 S.3       23 UNK        -0.2404 
     17 C17         0.6476  -20.7381  -48.3885 C.3       23 UNK        -0.0398 
     18 CA          0.1748  -22.0030  -47.6353 C.3       11 UNK         0.1400 
     19 N           0.1621  -21.8256  -46.1805 N.am      11 UNK        -0.5000 
     20 C          -0.0776  -22.8064  -45.2983 C.2       10 UNK         0.5000 
     21 O          -0.2492  -23.9837  -45.6130 O.2       10 UNK        -0.5000 
     22 CA         -0.2069  -22.4013  -43.8201 C.3       10 UNK         0.1400 
     23 CB          1.1749  -22.2177  -43.1756 C.3       10 UNK        -0.1800 
     24 N          -1.0158  -21.1949  -43.6380 N.am      10 UNK        -0.5000 
     25 C          -2.3147  -21.1024  -43.9592 C.2       9 UNK         0.5000 
     26 O          -2.9758  -22.0421  -44.3992 O.2       9 UNK        -0.5000 
     27 CA         -2.9863  -19.7275  -43.7980 C.3       9 UNK         0.1400 
     28 CB         -3.3997  -19.4940  -42.3377 C.3       9 UNK        -0.1800 
     29 N          -2.1472  -18.6223  -44.2610 N.am      9 UNK        -0.5000 
     30 C          -1.7342  -18.4579  -45.5271 C.2       8 UNK         0.5000 
     31 O          -2.0441  -19.2109  -46.4509 O.2       8 UNK        -0.5000 
     32 CA         -0.7589  -17.2944  -45.7883 C.3       8 UNK         0.1400 
     33 CB         -1.4916  -15.9452  -45.8010 C.3       8 UNK        -0.1800 
     34 N           0.3213  -17.2399  -44.8057 N.am      8 UNK        -0.5000 
     35 C           1.2059  -18.2206  -44.5821 C.2       7 UNK         0.5000 
     36 O           1.2399  -19.2754  -45.2147 O.2       7 UNK        -0.5000 
     37 CA          2.1702  -18.0110  -43.4034 C.3       7 UNK         0.1400 
     38 CB          3.3147  -17.0581  -43.7839 C.3       7 UNK        -0.1800 
     39 N           1.4721  -17.5077  -42.2186 N.am      7 UNK        -0.5000 
     40 C           0.5913  -18.2211  -41.5014 C.2       6 UNK         0.5000 
     41 O           0.3009  -19.3910  -41.7450 O.2       6 UNK        -0.5000 
     42 CA         -0.1070  -17.4994  -40.3346 C.3       6 UNK         0.1400 
     43 CB          0.7727  -17.5298  -39.0759 C.3       6 UNK        -0.1800 
     44 N          -0.4492  -16.1136  -40.6523 N.am      6 UNK        -0.5000 
     45 C          -1.3612  -15.7443  -41.5632 C.2       5 UNK         0.5000 
     46 O          -2.0467  -16.5369  -42.2072 O.2       5 UNK        -0.5000 
     47 CA         -1.4801  -14.2331  -41.8396 C.3       5 UNK         0.1400 
     48 CB         -2.4378  -13.5712  -40.8379 C.3       5 UNK        -0.1800 
     49 N          -0.1835  -13.5483  -41.8045 N.am      5 UNK        -0.5000 
     50 C           0.8288  -13.8231  -42.6365 C.2       4 UNK         0.5000 
     51 O           0.7620  -14.6653  -43.5345 O.2       4 UNK        -0.5000 
     52 CA          2.1509  -13.0930  -42.3793 C.3       4 UNK         0.1400 
     53 CB          2.9391  -13.7984  -41.2578 C.3       4 UNK        -0.1800 
     54 N           2.9219  -13.0880  -43.6164 N.am      4 UNK        -0.5000 
     55 C           3.9975  -12.3413  -43.8759 C.2       3 UNK         0.5000 
     56 O           4.4863  -11.5451  -43.0733 O.2       3 UNK        -0.5000 
     57 CA          4.6252  -12.4821  -45.2751 C.3       3 UNK         0.1400 
     58 CB          5.3432  -13.8359  -45.4488 C.3       3 UNK        -0.1800 
     59 N           3.6887  -12.2103  -46.3740 N.am      3 UNK        -0.5000 
     60 C           2.6386  -12.9401  -46.7857 C.2       2 UNK         0.5000 
     61 O           2.2878  -14.0004  -46.2716 O.2       2 UNK        -0.5000 
     62 CA          1.8815  -12.4054  -48.0091 C.3       2 UNK         0.1400 
     63 CB          0.8657  -11.3208  -47.6110 C.3       2 UNK        -0.1800 
     64 N           2.8367  -11.8929  -48.9920 N.am      2 UNK        -0.5000 
     65 C           2.6310  -11.8462  -50.3115 C.2       1 UNK         0.5000 
     66 O           1.5453  -12.0918  -50.8466 O.2       1 UNK        -0.5000 
     67 C          -1.1941  -22.4755  -48.1650 C.2       11 UNK         0.5000 
     68 O          -1.2354  -23.4353  -48.9341 O.2       11 UNK        -0.5000 
     69 N          -2.2838  -21.8285  -47.7254 N.am      12 UNK        -0.5000 
     70 CA         -3.6584  -22.1904  -48.0817 C.3       12 UNK         0.1400 
     71 CB         -4.6336  -21.1545  -47.5062 C.3       12 UNK        -0.1800 
     72 C          -4.0391  -23.6132  -47.6351 C.2       12 UNK         0.5000 
     73 O          -4.6484  -24.3478  -48.4133 O.2       12 UNK        -0.5000 
     74 N          -3.6407  -23.9873  -46.4111 N.am      13 UNK        -0.5000 
     75 CA         -3.8214  -25.3234  -45.8466 C.3       13 UNK         0.1400 
     76 CB         -3.4554  -25.3114  -44.3549 C.3       13 UNK        -0.1800 
     77 C          -3.0183  -26.3974  -46.6006 C.2       13 UNK         0.5000 
     78 O          -3.5774  -27.4433  -46.9306 O.2       13 UNK        -0.5000 
     79 N          -1.7416  -26.1115  -46.8964 N.am      14 UNK        -0.5000 
     80 CA         -0.8459  -26.9869  -47.6590 C.3       14 UNK         0.1400 
     81 CB          0.5784  -26.4121  -47.6372 C.3       14 UNK        -0.1800 
     82 C          -1.3165  -27.2145  -49.1075 C.2       14 UNK         0.5000 
     83 O          -1.2079  -28.3303  -49.6170 O.2       14 UNK        -0.5000 
     84 N          -1.8662  -26.1627  -49.7268 N.am      15 UNK        -0.5000 
     85 CA         -2.4819  -26.1940  -51.0527 C.3       15 UNK         0.1400 
     86 CB         -2.5052  -24.7641  -51.6112 C.3       15 UNK        -0.1800 
     87 C          -3.9046  -26.7899  -51.0611 C.2       15 UNK         0.5000 
     88 O          -4.4804  -26.9321  -52.1398 O.2       15 UNK        -0.5000 
     89 N          -4.4704  -27.0829  -49.8792 N.am      16 UNK        -0.5000 
     90 CA         -5.8315  -27.5809  -49.6405 C.3       16 UNK         0.1400 
     91 CB         -5.9589  -29.0402  -50.1229 C.3       16 UNK        -0.1800 
     92 C          -6.9248  -26.6577  -50.2247 C.2       16 UNK         0.5000 
     93 O          -7.9554  -27.1385  -50.6987 O.2       16 UNK        -0.5000 
     94 N          -6.6491  -25.3450  -50.2109 N.am      17 UNK        -0.5000 
     95 CA         -7.4271  -24.2443  -50.7882 C.3       17 UNK         0.1400 
     96 CB         -8.7818  -24.0975  -50.0656 C.3       17 UNK        -0.1800 
     97 C          -7.5856  -24.2880  -52.3272 C.2       17 UNK         0.5000 
     98 O          -8.3566  -23.4945  -52.8694 O.2       17 UNK        -0.5000 
     99 N          -6.8503  -25.1719  -53.0208 N.am      18 UNK        -0.5000 
    100 CA        -6.8330  -25.2642  -54.4861 C.3       18 UNK         0.1400 
    101 CB        -6.3999  -26.6794  -54.8983 C.3       18 UNK        -0.1800 
    102 C         -5.9153  -24.2059  -55.1318 C.2       18 UNK         0.5000 
    103 O         -6.0272  -23.9464  -56.3306 O.2       18 UNK        -0.5000 
    104 N         -5.0369  -23.6113  -54.3214 N.am      19 UNK        -0.5000 
    105 CA        -4.1483  -22.5015  -54.6328 C.3       19 UNK         0.1400 
    106 CB        -2.8496  -23.0309  -55.2714 C.3       19 UNK        -0.1800 
    107 C         -3.8971  -21.7340  -53.3225 C.2       19 UNK         0.5000 
    108 O         -4.4774  -22.0896  -52.2914 O.2       19 UNK        -0.5000 
    109 N         -3.0434  -20.7012  -53.3855 N.am      20 UNK        -0.5000 
    110 CA        -2.6791  -19.8035  -52.2820 C.3       20 UNK         0.1400 
    111 CB        -1.8684  -20.5454  -51.2018 C.3       20 UNK        -0.1800 
    112 C         -3.9054  -19.0526  -51.7262 C.2       20 UNK         0.5000 
    113 O         -4.2403  -19.1601  -50.5446 O.2       20 UNK        -0.5000 
    114 N         -4.5527  -18.2937  -52.6225 N.am      21 UNK        -0.5000 
    115 CA        -5.7787  -17.5198  -52.3917 C.3       21 UNK         0.1400 
    116 CB        -6.2267  -16.9048  -53.7272 C.3       21 UNK        -0.1800 
    117 C         -5.6798  -16.4328  -51.2992 C.2       21 UNK         0.5000 
    118 O         -6.7124  -15.9115  -50.8754 O.2       21 UNK        -0.5000 
    119 N         -4.4568  -16.1235  -50.8503 N.am      22 UNK        -0.5000 
    120 CA        -4.1766  -15.3285  -49.6481 C.3       22 UNK         0.1400 
    121 C         -4.6730  -15.9716  -48.3160 C.2       22 UNK         0.5000 
    122 N         -4.8771  -17.2831  -48.2479 N.am      22 UNK        -0.7600 
    123 O         -4.8893  -15.2629  -47.3371 O.2       22 UNK        -0.5000 
    124 C124       -2.6792  -14.9312  -49.5712 C.3       23 UNK        -0.0398 
    125 S125       -1.5338  -16.3516  -49.4023 S.3       23 UNK        -0.2404 
    126 C126       -0.5132  -16.2583  -50.9043 C.3       23 UNK        -0.0205 
    127 H127        4.0608  -11.0724  -55.6387 H         1 UNK         0.0600 
    128 H128        2.4554  -11.1182  -54.9049 H         1 UNK         0.0600 
    129 H129        3.2561   -9.5680  -55.1781 H         1 UNK         0.0600 
    130 H130        2.4945  -11.7157  -52.7330 H         1 UNK         0.3000 
    131 H131        4.2102  -10.5234  -50.8251 H         1 UNK         0.0600 
    132 H132        5.8791  -12.1741  -51.6103 H         1 UNK         0.0800 
    133 H133        5.3836  -12.5502  -50.0002 H         1 UNK         0.0800 
    134 H134        5.2460  -15.5096  -49.6580 H         1 UNK         0.0800 
    135 H135        4.0001  -14.3632  -49.2463 H         1 UNK         0.0800 
    136 H136        1.6805  -14.6930  -50.5592 H         1 UNK         0.1150 
    137 H137        0.4490  -18.7894  -50.5779 H         1 UNK         0.1150 
    138 H138        4.5384  -17.7835  -49.7617 H         1 UNK         0.1150 
    139 H139        2.3484  -20.5327  -50.6803 H         1 UNK         0.0800 
    140 H140        3.9274  -20.0849  -50.1020 H         1 UNK         0.0800 
    141 H141        0.4076  -20.8299  -49.4474 H         1 UNK         0.0800 
    142 H142        0.1283  -19.8472  -48.0311 H         1 UNK         0.0800 
    143 H143        0.8812  -22.8072  -47.8528 H         1 UNK         0.0600 
    144 H144        0.3443  -20.8865  -45.8356 H         1 UNK         0.3000 
    145 H145       -0.7122  -23.2172  -43.2993 H         1 UNK         0.0600 
    146 H146        1.0879  -22.0283  -42.1058 H         1 UNK         0.0600 
    147 H147        1.7843  -23.1139  -43.2980 H         1 UNK         0.0600 
    148 H148        1.7219  -21.3862  -43.6194 H         1 UNK         0.0600 
    149 H149       -0.5477  -20.3915  -43.2305 H         1 UNK         0.3000 
    150 H150       -3.8917  -19.7297  -44.4081 H         1 UNK         0.0600 
    151 H151       -4.0332  -20.3049  -41.9761 H         1 UNK         0.0600 
    152 H152       -3.9656  -18.5683  -42.2320 H         1 UNK         0.0600 
    153 H153       -2.5333  -19.4341  -41.6787 H         1 UNK         0.0600 
    154 H154       -1.8808  -17.9338  -43.5632 H         1 UNK         0.3000 
    155 H155       -0.3076  -17.4511  -46.7702 H         1 UNK         0.0600 
    156 H156       -0.8217  -15.1375  -46.0977 H         1 UNK         0.0600 
    157 H157       -1.9026  -15.6978  -44.8226 H         1 UNK         0.0600 
    158 H158       -2.3200  -15.9592  -46.5076 H         1 UNK         0.0600 
    159 H159        0.3977  -16.3830  -44.2637 H         1 UNK         0.3000 
    160 H160        2.6079  -18.9796  -43.1526 H         1 UNK         0.0600 
    161 H161        2.9478  -16.0692  -44.0574 H         1 UNK         0.0600 
    162 H162        3.8715  -17.4442  -44.6386 H         1 UNK         0.0600 
    163 H163        4.0211  -16.9392  -42.9624 H         1 UNK         0.0600 
    164 H164        1.6093  -16.5356  -41.9897 H         1 UNK         0.3000 
    165 H165       -1.0328  -18.0361  -40.1170 H         1 UNK         0.0600 
    166 H166        1.7058  -16.9839  -39.2212 H         1 UNK         0.0600 
    167 H167        0.2555  -17.0903  -38.2228 H         1 UNK         0.0600 
    168 H168        1.0305  -18.5547  -38.8055 H         1 UNK         0.0600 
    169 H169        0.0654  -15.3934  -40.1681 H         1 UNK         0.3000 
    170 H170       -1.8967  -14.1117  -42.8417 H         1 UNK         0.0600 
    171 H171       -3.4162  -14.0532  -40.8578 H         1 UNK         0.0600 
    172 H172       -2.0613  -13.6344  -39.8162 H         1 UNK         0.0600 
    173 H173       -2.5910  -12.5184  -41.0754 H         1 UNK         0.0600 
    174 H174       -0.0586  -12.8503  -41.0852 H         1 UNK         0.3000 
    175 H175        1.9322  -12.0629  -42.0911 H         1 UNK         0.0600 
    176 H176        3.8585  -13.2642  -41.0191 H         1 UNK         0.0600 
    177 H177        2.3554  -13.8530  -40.3382 H         1 UNK         0.0600 
    178 H178        3.2105  -14.8169  -41.5372 H         1 UNK         0.0600 
    179 H179        2.5447  -13.6780  -44.3570 H         1 UNK         0.3000 
    180 H180        5.3903  -11.7074  -45.3490 H         1 UNK         0.0600 
    181 H181        4.6593  -14.6810  -45.3712 H         1 UNK         0.0600 
    182 H182        6.1075  -13.9690  -44.6824 H         1 UNK         0.0600 
    183 H183        5.8398  -13.8963  -46.4172 H         1 UNK         0.0600 
    184 H184        3.8236  -11.3097  -46.8101 H         1 UNK         0.3000 
    185 H185        1.3397  -13.2483  -48.4448 H         1 UNK         0.0600 
    186 H186        0.2709  -11.0043  -48.4678 H         1 UNK         0.0600 
    187 H187        0.1730  -11.6950  -46.8560 H         1 UNK         0.0600 
    188 H188        1.3573  -10.4383  -47.2004 H         1 UNK         0.0600 
    189 H189        3.7640  -11.7067  -48.6388 H         1 UNK         0.3000 
    190 H190       -2.1698  -21.0181  -47.1217 H         1 UNK         0.3000 
    191 H191       -3.7443  -22.1591  -49.1687 H         1 UNK         0.0600 
    192 H192       -4.4037  -20.1560  -47.8773 H         1 UNK         0.0600 
    193 H193       -5.6601  -21.3814  -47.7966 H         1 UNK         0.0600 
    194 H194       -4.5963  -21.1238  -46.4175 H         1 UNK         0.0600 
    195 H195       -3.1919  -23.2987  -45.8123 H         1 UNK         0.3000 
    196 H196       -4.8795  -25.5795  -45.9323 H         1 UNK         0.0600 
    197 H197       -3.5931  -26.2977  -43.9101 H         1 UNK         0.0600 
    198 H198       -4.0847  -24.6142  -43.8016 H         1 UNK         0.0600 
    199 H199       -2.4167  -25.0204  -44.1963 H         1 UNK         0.0600 
    200 H200       -1.3409  -25.2395  -46.5593 H         1 UNK         0.3000 
    201 H201       -0.8279  -27.9585  -47.1611 H         1 UNK         0.0600 
    202 H202        0.9558  -26.3340  -46.6176 H         1 UNK         0.0600 
    203 H203        0.6175  -25.4186  -48.0852 H         1 UNK         0.0600 
    204 H204        1.2675  -27.0509  -48.1910 H         1 UNK         0.0600 
    205 H205       -1.8520  -25.2596  -49.2599 H         1 UNK         0.3000 
    206 H206       -1.8673  -26.8088  -51.7131 H         1 UNK         0.0600 
    207 H207       -1.5006  -24.3465  -51.6796 H         1 UNK         0.0600 
    208 H208       -2.9347  -24.7446  -52.6120 H         1 UNK         0.0600 
    209 H209       -3.1011  -24.1001  -50.9837 H         1 UNK         0.0600 
    210 H210       -3.9270  -26.9101  -49.0427 H         1 UNK         0.3000 
    211 H211       -5.9740  -27.5737  -48.5591 H         1 UNK         0.0600 
    212 H212       -5.8793  -29.1158  -51.2079 H         1 UNK         0.0600 
    213 H213       -6.9202  -29.4665  -49.8341 H         1 UNK         0.0600 
    214 H214       -5.1825  -29.6678  -49.6850 H         1 UNK         0.0600 
    215 H215       -5.7923  -25.0595  -49.7402 H         1 UNK         0.3000 
    216 H216       -6.8481  -23.3429  -50.5811 H         1 UNK         0.0600 
    217 H217       -8.6476  -24.0396  -48.9854 H         1 UNK         0.0600 
    218 H218       -9.4473  -24.9346  -50.2777 H         1 UNK         0.0600 
    219 H219       -9.2955  -23.1868  -50.3753 H         1 UNK         0.0600 
    220 H220       -6.2246  -25.7968  -52.5238 H         1 UNK         0.3000 
    221 H221       -7.8446  -25.0998  -54.8629 H         1 UNK         0.0600 
    222 H222       -5.3636  -26.8802  -54.6258 H         1 UNK         0.0600 
    223 H223       -7.0251  -27.4383  -54.4274 H         1 UNK         0.0600 
    224 H224       -6.4834  -26.8120  -55.9777 H         1 UNK         0.0600 
    225 H225       -5.0747  -23.8286  -53.3333 H         1 UNK         0.3000 
    226 H226       -4.6493  -21.8237  -55.3268 H         1 UNK         0.0600 
    227 H227       -3.0616  -23.6345  -56.1540 H         1 UNK         0.0600 
    228 H228       -2.2038  -22.2136  -55.5929 H         1 UNK         0.0600 
    229 H229       -2.2776  -23.6468  -54.5776 H         1 UNK         0.0600 
    230 H230       -2.6207  -20.4859  -54.2776 H         1 UNK         0.3000 
    231 H231       -2.0229  -19.0397  -52.7019 H         1 UNK         0.0600 
    232 H232       -1.6593  -19.8936  -50.3528 H         1 UNK         0.0600 
    233 H233       -0.9135  -20.8898  -51.5981 H         1 UNK         0.0600 
    234 H234       -2.3974  -21.4158  -50.8200 H         1 UNK         0.0600 
    235 H235       -4.1992  -18.2756  -53.5679 H         1 UNK         0.3000 
    236 H236       -6.5474  -18.2231  -52.0653 H         1 UNK         0.0600 
    237 H237       -7.1608  -16.3531  -53.6126 H         1 UNK         0.0600 
    238 H238       -5.4820  -16.2107  -54.1187 H         1 UNK         0.0600 
    239 H239       -6.3988  -17.6748  -54.4796 H         1 UNK         0.0600 
    240 H240       -3.6705  -16.6172  -51.2423 H         1 UNK         0.3000 
    241 H241       -4.7430  -14.4013  -49.7545 H         1 UNK         0.0600 
    242 H242       -4.6679  -17.8833  -49.0395 H         1 UNK         0.3800 
    243 H243       -5.1998  -17.6880  -47.3854 H         1 UNK         0.3800 
    244 H244       -2.4166  -14.3448  -50.4519 H         1 UNK         0.0800 
    245 H245       -2.5126  -14.2649  -48.7230 H         1 UNK         0.0800 
    246 H246       -0.9449  -16.8926  -51.6791 H         1 UNK         0.0800 
    247 H247       -0.5101  -15.2422  -51.3011 H         1 UNK         0.0800 
@<TRIPOS>BOND
     1    1    2 1    
     2    1  127 1    
     3    1  128 1    
     4    1  129 1    
     5    2    3 2    
     6    2    4 am   BACKBONE|DICT|INTERRES
     7    4    5 1    
     8    4  130 1    
     9    5    6 1    
    10    5   65 1    
    11    5  131 1    
    12    6    7 1    
    13    6  132 1    
    14    6  133 1    
    15    7    8 1    
    16    8    9 1    
    17    8  134 1    
    18    8  135 1    
    19    9   10 ar   
    20    9   14 ar   
    21   10   11 ar   
    22   10  136 1    
    23   11   12 ar   
    24   11  126 1    
    25   12   13 ar   
    26   12  137 1    
    27   13   14 ar   
    28   13   15 1    
    29   14  138 1    
    30   15   16 1    
    31   15  139 1    
    32   15  140 1    
    33   16   17 1    
    34   17   18 1    
    35   17  141 1    
    36   17  142 1    
    37   18   19 1    
    38   18   67 1    
    39   18  143 1    
    40   19   20 am   BACKBONE|DICT|INTERRES
    41   19  144 1    
    42   20   21 2    
    43   20   22 1    
    44   22   23 1    
    45   22   24 1    
    46   22  145 1    
    47   23  146 1    
    48   23  147 1    
    49   23  148 1    
    50   24   25 am   BACKBONE|DICT|INTERRES
    51   24  149 1    
    52   25   26 2    
    53   25   27 1    
    54   27   28 1    
    55   27   29 1    
    56   27  150 1    
    57   28  151 1    
    58   28  152 1    
    59   28  153 1    
    60   29   30 am   BACKBONE|DICT|INTERRES
    61   29  154 1    
    62   30   31 2    
    63   30   32 1    
    64   32   33 1    
    65   32   34 1    
    66   32  155 1    
    67   33  156 1    
    68   33  157 1    
    69   33  158 1    
    70   34   35 am   BACKBONE|DICT|INTERRES
    71   34  159 1    
    72   35   36 2    
    73   35   37 1    
    74   37   38 1    
    75   37   39 1    
    76   37  160 1    
    77   38  161 1    
    78   38  162 1    
    79   38  163 1    
    80   39   40 am   BACKBONE|DICT|INTERRES
    81   39  164 1    
    82   40   41 2    
    83   40   42 1    
    84   42   43 1    
    85   42   44 1    
    86   42  165 1    
    87   43  166 1    
    88   43  167 1    
    89   43  168 1    
    90   44   45 am   BACKBONE|DICT|INTERRES
    91   44  169 1    
    92   45   46 2    
    93   45   47 1    
    94   47   48 1    
    95   47   49 1    
    96   47  170 1    
    97   48  171 1    
    98   48  172 1    
    99   48  173 1    
   100   49   50 am   BACKBONE|DICT|INTERRES
   101   49  174 1    
   102   50   51 2    
   103   50   52 1    
   104   52   53 1    
   105   52   54 1    
   106   52  175 1    
   107   53  176 1    
   108   53  177 1    
   109   53  178 1    
   110   54   55 am   BACKBONE|DICT|INTERRES
   111   54  179 1    
   112   55   56 2    
   113   55   57 1    
   114   57   58 1    
   115   57   59 1    
   116   57  180 1    
   117   58  181 1    
   118   58  182 1    
   119   58  183 1    
   120   59   60 am   BACKBONE|DICT|INTERRES
   121   59  184 1    
   122   60   61 2    
   123   60   62 1    
   124   62   63 1    
   125   62   64 1    
   126   62  185 1    
   127   63  186 1    
   128   63  187 1    
   129   63  188 1    
   130   64   65 am   BACKBONE|DICT|INTERRES
   131   64  189 1    
   132   65   66 2    
   133   67   68 2    
   134   67   69 am   BACKBONE|DICT|INTERRES
   135   69   70 1    
   136   69  190 1    
   137   70   71 1    
   138   70   72 1    
   139   70  191 1    
   140   71  192 1    
   141   71  193 1    
   142   71  194 1    
   143   72   73 2    
   144   72   74 am   BACKBONE|DICT|INTERRES
   145   74   75 1    
   146   74  195 1    
   147   75   76 1    
   148   75   77 1    
   149   75  196 1    
   150   76  197 1    
   151   76  198 1    
   152   76  199 1    
   153   77   78 2    
   154   77   79 am   BACKBONE|DICT|INTERRES
   155   79   80 1    
   156   79  200 1    
   157   80   81 1    
   158   80   82 1    
   159   80  201 1    
   160   81  202 1    
   161   81  203 1    
   162   81  204 1    
   163   82   83 2    
   164   82   84 am   BACKBONE|DICT|INTERRES
   165   84   85 1    
   166   84  205 1    
   167   85   86 1    
   168   85   87 1    
   169   85  206 1    
   170   86  207 1    
   171   86  208 1    
   172   86  209 1    
   173   87   88 2    
   174   87   89 am   BACKBONE|DICT|INTERRES
   175   89   90 1    
   176   89  210 1    
   177   90   91 1    
   178   90   92 1    
   179   90  211 1    
   180   91  212 1    
   181   91  213 1    
   182   91  214 1    
   183   92   93 2    
   184   92   94 am   BACKBONE|DICT|INTERRES
   185   94   95 1    
   186   94  215 1    
   187   95   96 1    
   188   95   97 1    
   189   95  216 1    
   190   96  217 1    
   191   96  218 1    
   192   96  219 1    
   193   97   98 2    
   194   97   99 am   BACKBONE|DICT|INTERRES
   195   99  100 1    
   196   99  220 1    
   197  100  101 1    
   198  100  102 1    
   199  100  221 1    
   200  101  222 1    
   201  101  223 1    
   202  101  224 1    
   203  102  103 2    
   204  102  104 am   BACKBONE|DICT|INTERRES
   205  104  105 1    
   206  104  225 1    
   207  105  106 1    
   208  105  107 1    
   209  105  226 1    
   210  106  227 1    
   211  106  228 1    
   212  106  229 1    
   213  107  108 2    
   214  107  109 am   BACKBONE|DICT|INTERRES
   215  109  110 1    
   216  109  230 1    
   217  110  111 1    
   218  110  112 1    
   219  110  231 1    
   220  111  232 1    
   221  111  233 1    
   222  111  234 1    
   223  112  113 2    
   224  112  114 am   BACKBONE|DICT|INTERRES
   225  114  115 1    
   226  114  235 1    
   227  115  116 1    
   228  115  117 1    
   229  115  236 1    
   230  116  237 1    
   231  116  238 1    
   232  116  239 1    
   233  117  118 2    
   234  117  119 am   BACKBONE|DICT|INTERRES
   235  119  120 1    
   236  119  240 1    
   237  120  121 1    
   238  120  124 1    
   239  120  241 1    
   240  121  122 am   BACKBONE|DICT|INTERRES
   241  121  123 2    
   242  122  242 1    
   243  122  243 1    
   244  124  125 1    
   245  124  244 1    
   246  124  245 1    
   247  125  126 1    
   248  126  246 1    
   249  126  247 1    
@<TRIPOS>SUBSTRUCTURE
     1 UNK         1 GROUP             0       ****    0 ROOT    
