@<TRIPOS>MOLECULE
3R540
247   249    1
SMALL
USER_CHARGES


@<TRIPOS>ATOM
      1 CA          7.0055  -13.5850  -46.4409 C.3       0 UNK        -0.1800 
      2 C           5.8649  -14.4507  -46.9552 C.2       0 UNK         0.5000 
      3 O           4.8363  -14.5628  -46.2864 O.2       0 UNK        -0.5000 
      4 N           6.0426  -15.0642  -48.1352 N.am      1 UNK        -0.5000 
      5 CA          5.0786  -15.9528  -48.7990 C.3       1 UNK         0.1400 
      6 C6          3.8199  -15.1698  -49.2774 C.3       23 UNK        -0.0398 
      7 S7          2.8443  -16.0378  -50.5551 S.3       23 UNK        -0.2404 
      8 C8          1.1658  -15.9708  -49.8302 C.3       23 UNK        -0.0205 
      9 C9          0.1634  -16.9560  -50.4335 C.ar      23 UNK        -0.0193 
     10 C10         0.2713  -17.4263  -51.7488 C.ar      23 UNK        -0.1150 
     11 C11        -0.6710  -18.3095  -52.2847 C.ar      23 UNK        -0.0193 
     12 C12        -1.7448  -18.7162  -51.4809 C.ar      23 UNK        -0.1150 
     13 C13        -1.8858  -18.2372  -50.1761 C.ar      23 UNK        -0.0193 
     14 C14        -0.9250  -17.3660  -49.6578 C.ar      23 UNK        -0.1150 
     15 C15        -3.1206  -18.6024  -49.3648 C.3       23 UNK        -0.0205 
     16 S16        -3.1682  -20.3588  -48.8945 S.3       23 UNK        -0.2404 
     17 C17        -2.2809  -20.3613  -47.2960 C.3       23 UNK        -0.0398 
     18 CA         -1.3192  -21.5549  -47.0727 C.3       11 UNK         0.1400 
     19 N          -0.5685  -21.3965  -45.8148 N.am      11 UNK        -0.5000 
     20 C           0.3875  -22.2243  -45.3599 C.2       10 UNK         0.5000 
     21 O           0.7090  -23.2612  -45.9392 O.2       10 UNK        -0.5000 
     22 CA          1.1048  -21.8700  -44.0461 C.3       10 UNK         0.1400 
     23 CB          2.6142  -21.6983  -44.2772 C.3       10 UNK        -0.1800 
     24 N           0.5643  -20.6666  -43.4109 N.am      10 UNK        -0.5000 
     25 C          -0.3571  -20.6930  -42.4377 C.2       9 UNK         0.5000 
     26 O          -0.8546  -21.7322  -42.0022 O.2       9 UNK        -0.5000 
     27 CA         -0.8102  -19.3479  -41.8380 C.3       9 UNK         0.1400 
     28 CB         -0.0293  -19.0545  -40.5485 C.3       9 UNK        -0.1800 
     29 N          -0.7096  -18.1963  -42.7366 N.am      9 UNK        -0.5000 
     30 C          -1.3743  -18.0606  -43.8918 C.2       8 UNK         0.5000 
     31 O          -2.0586  -18.9533  -44.3951 O.2       8 UNK        -0.5000 
     32 CA         -1.2473  -16.6883  -44.5793 C.3       8 UNK         0.1400 
     33 CB         -2.1741  -16.5179  -45.7994 C.3       8 UNK        -0.1800 
     34 N          -1.4051  -15.5800  -43.6312 N.am      8 UNK        -0.5000 
     35 C          -2.5118  -15.2237  -42.9622 C.2       7 UNK         0.5000 
     36 O          -3.5911  -15.8118  -43.0464 O.2       7 UNK        -0.5000 
     37 CA         -2.3762  -13.9747  -42.0667 C.3       7 UNK         0.1400 
     38 CB         -3.5767  -13.7602  -41.1198 C.3       7 UNK        -0.1800 
     39 N          -1.1029  -13.9313  -41.3399 N.am      7 UNK        -0.5000 
     40 C          -0.6906  -14.7552  -40.3632 C.2       6 UNK         0.5000 
     41 O          -1.3728  -15.6789  -39.9201 O.2       6 UNK        -0.5000 
     42 CA          0.7217  -14.5105  -39.7883 C.3       6 UNK         0.1400 
     43 CB          1.4360  -15.8271  -39.4372 C.3       6 UNK        -0.1800 
     44 N           1.5581  -13.7673  -40.7301 N.am      6 UNK        -0.5000 
     45 C           1.8737  -12.4679  -40.6454 C.2       5 UNK         0.5000 
     46 O           1.5395  -11.7432  -39.7080 O.2       5 UNK        -0.5000 
     47 CA          2.6776  -11.8642  -41.8176 C.3       5 UNK         0.1400 
     48 CB          4.1637  -11.7496  -41.4454 C.3       5 UNK        -0.1800 
     49 N           2.5624  -12.6230  -43.0665 N.am      5 UNK        -0.5000 
     50 C           1.4355  -12.7866  -43.7737 C.2       4 UNK         0.5000 
     51 O           0.3575  -12.2749  -43.4720 O.2       4 UNK        -0.5000 
     52 CA          1.5086  -13.7512  -44.9719 C.3       4 UNK         0.1400 
     53 CB          1.8629  -12.9916  -46.2576 C.3       4 UNK        -0.1800 
     54 N           2.4500  -14.8599  -44.7725 N.am      4 UNK        -0.5000 
     55 C           2.3667  -15.7808  -43.8005 C.2       3 UNK         0.5000 
     56 O           1.4695  -15.7904  -42.9538 O.2       3 UNK        -0.5000 
     57 CA          3.4636  -16.8630  -43.7887 C.3       3 UNK         0.1400 
     58 CB          3.2931  -17.8876  -42.6483 C.3       3 UNK        -0.1800 
     59 N           3.5772  -17.5376  -45.0834 N.am      3 UNK        -0.5000 
     60 C           2.6451  -18.2629  -45.7168 C.2       2 UNK         0.5000 
     61 O           1.5395  -18.5241  -45.2391 O.2       2 UNK        -0.5000 
     62 CA          3.0213  -18.7801  -47.1241 C.3       2 UNK         0.1400 
     63 CB          1.8333  -19.4330  -47.8511 C.3       2 UNK        -0.1800 
     64 N           3.5477  -17.7103  -47.9700 N.am      2 UNK        -0.5000 
     65 C           4.7823  -17.1988  -47.9230 C.2       1 UNK         0.5000 
     66 O           5.6643  -17.6589  -47.1926 O.2       1 UNK        -0.5000 
     67 C          -2.0412  -22.9186  -47.1741 C.2       11 UNK         0.5000 
     68 O          -2.1145  -23.4887  -48.2635 O.2       11 UNK        -0.5000 
     69 N          -2.4964  -23.4524  -46.0321 N.am      12 UNK        -0.5000 
     70 CA         -3.1136  -24.7741  -45.9053 C.3       12 UNK         0.1400 
     71 CB         -3.6468  -24.9375  -44.4746 C.3       12 UNK        -0.1800 
     72 C          -2.1885  -25.9513  -46.2765 C.2       12 UNK         0.5000 
     73 O          -2.6951  -27.0087  -46.6509 O.2       12 UNK        -0.5000 
     74 N          -0.8679  -25.7525  -46.1797 N.am      13 UNK        -0.5000 
     75 CA          0.1504  -26.7322  -46.5521 C.3       13 UNK         0.1400 
     76 CB          1.1856  -26.8349  -45.4202 C.3       13 UNK        -0.1800 
     77 C           0.8339  -26.3418  -47.8720 C.2       13 UNK         0.5000 
     78 O           1.0224  -27.1992  -48.7349 O.2       13 UNK        -0.5000 
     79 N           1.1980  -25.0593  -48.0036 N.am      14 UNK        -0.5000 
     80 CA          1.9792  -24.5191  -49.1157 C.3       14 UNK         0.1400 
     81 CB          2.5086  -23.1310  -48.7222 C.3       14 UNK        -0.1800 
     82 C           1.2013  -24.4330  -50.4395 C.2       14 UNK         0.5000 
     83 O           1.8021  -24.6118  -51.4998 O.2       14 UNK        -0.5000 
     84 N          -0.1035  -24.1471  -50.3582 N.am      15 UNK        -0.5000 
     85 CA         -0.9759  -23.9136  -51.5100 C.3       15 UNK         0.1400 
     86 CB         -1.2499  -22.4046  -51.6125 C.3       15 UNK        -0.1800 
     87 C          -2.2864  -24.7151  -51.4268 C.2       15 UNK         0.5000 
     88 O          -3.1768  -24.4899  -52.2452 O.2       15 UNK        -0.5000 
     89 N          -2.4042  -25.6122  -50.4355 N.am      16 UNK        -0.5000 
     90 CA         -3.5804  -26.4369  -50.1280 C.3       16 UNK         0.1400 
     91 CB         -3.7897  -27.5038  -51.2229 C.3       16 UNK        -0.1800 
     92 C          -4.8589  -25.6127  -49.8432 C.2       16 UNK         0.5000 
     93 O          -5.9634  -26.0753  -50.1338 O.2       16 UNK        -0.5000 
     94 N          -4.6796  -24.4039  -49.2864 N.am      17 UNK        -0.5000 
     95 CA         -5.7083  -23.4028  -48.9822 C.3       17 UNK         0.1400 
     96 CB         -6.6546  -23.8963  -47.8658 C.3       17 UNK        -0.1800 
     97 C          -6.4658  -22.9025  -50.2333 C.2       17 UNK         0.5000 
     98 O          -7.6757  -22.6773  -50.1680 O.2       17 UNK        -0.5000 
     99 N          -5.7442  -22.7334  -51.3532 N.am      18 UNK        -0.5000 
    100 CA        -6.2823  -22.2680  -52.6376 C.3       18 UNK         0.1400 
    101 CB        -5.1855  -22.3442  -53.7111 C.3       18 UNK        -0.1800 
    102 C         -6.8961  -20.8542  -52.6003 C.2       18 UNK         0.5000 
    103 O         -7.8359  -20.5895  -53.3518 O.2       18 UNK        -0.5000 
    104 N         -6.3682  -19.9820  -51.7267 N.am      19 UNK        -0.5000 
    105 CA        -6.8276  -18.6116  -51.4757 C.3       19 UNK         0.1400 
    106 CB        -8.1669  -18.6356  -50.7053 C.3       19 UNK        -0.1800 
    107 C         -6.8554  -17.7709  -52.7699 C.2       19 UNK         0.5000 
    108 O         -5.8010  -17.5673  -53.3727 O.2       19 UNK        -0.5000 
    109 N         -8.0471  -17.3331  -53.1984 N.am      20 UNK        -0.5000 
    110 CA        -8.2772  -16.5561  -54.4187 C.3       20 UNK         0.1400 
    111 CB        -9.7537  -16.1360  -54.4723 C.3       20 UNK        -0.1800 
    112 C         -7.8775  -17.2854  -55.7175 C.2       20 UNK         0.5000 
    113 O         -7.5076  -16.6230  -56.6879 O.2       20 UNK        -0.5000 
    114 N         -7.9168  -18.6269  -55.7134 N.am      21 UNK        -0.5000 
    115 CA        -7.4842  -19.4633  -56.8371 C.3       21 UNK         0.1400 
    116 CB        -8.0797  -20.8722  -56.6873 C.3       21 UNK        -0.1800 
    117 C         -5.9501  -19.5295  -56.9880 C.2       21 UNK         0.5000 
    118 O         -5.4694  -19.9725  -58.0317 O.2       21 UNK        -0.5000 
    119 N         -5.2106  -19.0866  -55.9618 N.am      22 UNK        -0.5000 
    120 CA        -3.7445  -18.9806  -55.9606 C.3       22 UNK         0.1400 
    121 C         -3.1915  -17.7497  -56.7421 C.2       22 UNK         0.5000 
    122 N         -4.0211  -16.8112  -57.1856 N.am      22 UNK        -0.7600 
    123 O         -1.9886  -17.6472  -56.9637 O.2       22 UNK        -0.5000 
    124 C124       -3.1941  -19.0408  -54.5109 C.3       23 UNK        -0.0398 
    125 S125       -1.6545  -20.0089  -54.3706 S.3       23 UNK        -0.2404 
    126 C126       -0.4820  -18.7595  -53.7379 C.3       23 UNK        -0.0205 
    127 H127        7.8471  -13.5686  -47.1337 H         1 UNK         0.0600 
    128 H128        7.3597  -13.9643  -45.4825 H         1 UNK         0.0600 
    129 H129        6.6618  -12.5606  -46.2976 H         1 UNK         0.0600 
    130 H130        6.9268  -14.9570  -48.6123 H         1 UNK         0.3000 
    131 H131        5.5922  -16.3300  -49.6845 H         1 UNK         0.0600 
    132 H132        3.1908  -14.9019  -48.4291 H         1 UNK         0.0800 
    133 H133        4.1294  -14.2210  -49.7180 H         1 UNK         0.0800 
    134 H134        1.2312  -16.1483  -48.7557 H         1 UNK         0.0800 
    135 H135        0.7746  -14.9597  -49.9509 H         1 UNK         0.0800 
    136 H136        1.0894  -17.0992  -52.3740 H         1 UNK         0.1150 
    137 H137       -2.4958  -19.3917  -51.8602 H         1 UNK         0.1150 
    138 H138       -1.0364  -16.9831  -48.6543 H         1 UNK         0.1150 
    139 H139       -3.2160  -17.9752  -48.4779 H         1 UNK         0.0800 
    140 H140       -3.9977  -18.3880  -49.9727 H         1 UNK         0.0800 
    141 H141       -1.7046  -19.4394  -47.2250 H         1 UNK         0.0800 
    142 H142       -3.0248  -20.3168  -46.4989 H         1 UNK         0.0800 
    143 H143       -0.5840  -21.5370  -47.8794 H         1 UNK         0.0600 
    144 H144       -0.7959  -20.5795  -45.2602 H         1 UNK         0.3000 
    145 H145        0.9814  -22.7266  -43.3802 H         1 UNK         0.0600 
    146 H146        3.1214  -21.3674  -43.3707 H         1 UNK         0.0600 
    147 H147        3.0684  -22.6436  -44.5769 H         1 UNK         0.0600 
    148 H148        2.8266  -20.9799  -45.0651 H         1 UNK         0.0600 
    149 H149        0.8874  -19.7752  -43.7754 H         1 UNK         0.3000 
    150 H150       -1.8641  -19.4567  -41.5743 H         1 UNK         0.0600 
    151 H151       -0.0984  -19.8892  -39.8497 H         1 UNK         0.0600 
    152 H152       -0.4274  -18.1784  -40.0386 H         1 UNK         0.0600 
    153 H153        1.0284  -18.8808  -40.7458 H         1 UNK         0.0600 
    154 H154       -0.1428  -17.4194  -42.4228 H         1 UNK         0.3000 
    155 H155       -0.2262  -16.6282  -44.9527 H         1 UNK         0.0600 
    156 H156       -2.0471  -15.5382  -46.2598 H         1 UNK         0.0600 
    157 H157       -3.2257  -16.6356  -45.5374 H         1 UNK         0.0600 
    158 H158       -1.9452  -17.2637  -46.5568 H         1 UNK         0.0600 
    159 H159       -0.5472  -15.0976  -43.3977 H         1 UNK         0.3000 
    160 H160       -2.3541  -13.1247  -42.7502 H         1 UNK         0.0600 
    161 H161       -3.7253  -14.6067  -40.4491 H         1 UNK         0.0600 
    162 H162       -4.4996  -13.6304  -41.6861 H         1 UNK         0.0600 
    163 H163       -3.4435  -12.8668  -40.5099 H         1 UNK         0.0600 
    164 H164       -0.4582  -13.2175  -41.6570 H         1 UNK         0.3000 
    165 H165        0.5934  -13.9422  -38.8651 H         1 UNK         0.0600 
    166 H166        1.5371  -16.4710  -40.3102 H         1 UNK         0.0600 
    167 H167        2.4345  -15.6405  -39.0419 H         1 UNK         0.0600 
    168 H168        0.8873  -16.3844  -38.6772 H         1 UNK         0.0600 
    169 H169        1.8333  -14.2840  -41.5570 H         1 UNK         0.3000 
    170 H170        2.2890  -10.8598  -41.9977 H         1 UNK         0.0600 
    171 H171        4.2949  -11.1629  -40.5351 H         1 UNK         0.0600 
    172 H172        4.6115  -12.7290  -41.2721 H         1 UNK         0.0600 
    173 H173        4.7313  -11.2543  -42.2334 H         1 UNK         0.0600 
    174 H174        3.3976  -13.0879  -43.3919 H         1 UNK         0.3000 
    175 H175        0.5146  -14.1790  -45.1070 H         1 UNK         0.0600 
    176 H176        2.8823  -12.6050  -46.2315 H         1 UNK         0.0600 
    177 H177        1.7655  -13.6350  -47.1307 H         1 UNK         0.0600 
    178 H178        1.1936  -12.1436  -46.4091 H         1 UNK         0.0600 
    179 H179        3.2534  -14.8838  -45.3987 H         1 UNK         0.3000 
    180 H180        4.4086  -16.3427  -43.6271 H         1 UNK         0.0600 
    181 H181        2.3404  -18.4116  -42.7103 H         1 UNK         0.0600 
    182 H182        3.3344  -17.3975  -41.6754 H         1 UNK         0.0600 
    183 H183        4.0860  -18.6350  -42.6682 H         1 UNK         0.0600 
    184 H184        4.4500  -17.3888  -45.5793 H         1 UNK         0.3000 
    185 H185        3.7939  -19.5410  -46.9965 H         1 UNK         0.0600 
    186 H186        2.1052  -19.7489  -48.8585 H         1 UNK         0.0600 
    187 H187        1.5007  -20.3196  -47.3159 H         1 UNK         0.0600 
    188 H188        0.9823  -18.7561  -47.9291 H         1 UNK         0.0600 
    189 H189        2.8955  -17.2992  -48.6237 H         1 UNK         0.3000 
    190 H190       -2.3766  -22.9270  -45.1783 H         1 UNK         0.3000 
    191 H191       -3.9593  -24.8125  -46.5906 H         1 UNK         0.0600 
    192 H192       -4.3816  -24.1679  -44.2372 H         1 UNK         0.0600 
    193 H193       -4.1380  -25.9032  -44.3473 H         1 UNK         0.0600 
    194 H194       -2.8448  -24.8766  -43.7377 H         1 UNK         0.0600 
    195 H195       -0.5292  -24.8382  -45.9027 H         1 UNK         0.3000 
    196 H196       -0.2948  -27.7201  -46.6875 H         1 UNK         0.0600 
    197 H197        1.9673  -27.5536  -45.6693 H         1 UNK         0.0600 
    198 H198        0.7200  -27.1695  -44.4931 H         1 UNK         0.0600 
    199 H199        1.6694  -25.8772  -45.2233 H         1 UNK         0.0600 
    200 H200        1.0171  -24.4163  -47.2349 H         1 UNK         0.3000 
    201 H201        2.8363  -25.1765  -49.2765 H         1 UNK         0.0600 
    202 H202        3.1073  -23.1777  -47.8123 H         1 UNK         0.0600 
    203 H203        1.6931  -22.4287  -48.5500 H         1 UNK         0.0600 
    204 H204        3.1403  -22.7142  -49.5077 H         1 UNK         0.0600 
    205 H205       -0.5284  -23.9997  -49.4490 H         1 UNK         0.3000 
    206 H206       -0.4907  -24.2354  -52.4334 H         1 UNK         0.0600 
    207 H207       -0.3309  -21.8446  -51.7867 H         1 UNK         0.0600 
    208 H208       -1.9273  -22.1798  -52.4356 H         1 UNK         0.0600 
    209 H209       -1.7047  -22.0224  -50.7007 H         1 UNK         0.0600 
    210 H210       -1.6192  -25.7179  -49.8100 H         1 UNK         0.3000 
    211 H211       -3.3502  -26.9638  -49.2027 H         1 UNK         0.0600 
    212 H212       -4.0898  -27.0570  -52.1712 H         1 UNK         0.0600 
    213 H213       -4.5660  -28.2138  -50.9356 H         1 UNK         0.0600 
    214 H214       -2.8779  -28.0757  -51.3950 H         1 UNK         0.0600 
    215 H215       -3.7243  -24.1180  -49.0857 H         1 UNK         0.3000 
    216 H216       -5.1762  -22.5363  -48.5898 H         1 UNK         0.0600 
    217 H217       -6.1055  -24.1945  -46.9746 H         1 UNK         0.0600 
    218 H218       -7.2563  -24.7461  -48.1888 H         1 UNK         0.0600 
    219 H219       -7.3440  -23.1076  -47.5623 H         1 UNK         0.0600 
    220 H220       -4.7719  -23.0130  -51.3499 H         1 UNK         0.3000 
    221 H221       -7.0829  -22.9522  -52.9256 H         1 UNK         0.0600 
    222 H222       -4.2769  -21.8311  -53.3962 H         1 UNK         0.0600 
    223 H223       -4.9244  -23.3795  -53.9286 H         1 UNK         0.0600 
    224 H224       -5.5106  -21.8936  -54.6496 H         1 UNK         0.0600 
    225 H225       -5.5839  -20.2933  -51.1727 H         1 UNK         0.3000 
    226 H226       -6.0894  -18.1404  -50.8282 H         1 UNK         0.0600 
    227 H227       -8.0617  -19.1811  -49.7672 H         1 UNK         0.0600 
    228 H228       -8.4963  -17.6271  -50.4519 H         1 UNK         0.0600 
    229 H229       -8.9635  -19.1175  -51.2733 H         1 UNK         0.0600 
    230 H230       -8.8655  -17.5755  -52.6593 H         1 UNK         0.3000 
    231 H231       -7.6672  -15.6528  -54.3536 H         1 UNK         0.0600 
    232 H232       -9.9562  -15.5301  -55.3567 H         1 UNK         0.0600 
    233 H233      -10.0267  -15.5386  -53.6022 H         1 UNK         0.0600 
    234 H234      -10.4167  -17.0014  -54.5084 H         1 UNK         0.0600 
    235 H235       -8.1796  -19.1135  -54.8628 H         1 UNK         0.3000 
    236 H236       -7.8819  -19.0307  -57.7576 H         1 UNK         0.0600 
    237 H237       -9.1627  -20.8346  -56.5692 H         1 UNK         0.0600 
    238 H238       -7.8704  -21.4775  -57.5701 H         1 UNK         0.0600 
    239 H239       -7.6654  -21.3995  -55.8288 H         1 UNK         0.0600 
    240 H240       -5.6782  -18.6969  -55.1518 H         1 UNK         0.3000 
    241 H241       -3.3746  -19.8572  -56.4960 H         1 UNK         0.0600 
    242 H242       -5.0143  -16.8759  -57.0186 H         1 UNK         0.3800 
    243 H243       -3.6502  -16.0246  -57.6951 H         1 UNK         0.3800 
    244 H244       -3.9139  -19.5283  -53.8532 H         1 UNK         0.0800 
    245 H245       -3.0632  -18.0412  -54.0919 H         1 UNK         0.0800 
    246 H246        0.5225  -19.1728  -53.8393 H         1 UNK         0.0800 
    247 H247       -0.5198  -17.8848  -54.3890 H         1 UNK         0.0800 
@<TRIPOS>BOND
     1    1    2 1    
     2    1  127 1    
     3    1  128 1    
     4    1  129 1    
     5    2    3 2    
     6    2    4 am   BACKBONE|DICT|INTERRES
     7    4    5 1    
     8    4  130 1    
     9    5    6 1    
    10    5   65 1    
    11    5  131 1    
    12    6    7 1    
    13    6  132 1    
    14    6  133 1    
    15    7    8 1    
    16    8    9 1    
    17    8  134 1    
    18    8  135 1    
    19    9   10 ar   
    20    9   14 ar   
    21   10   11 ar   
    22   10  136 1    
    23   11   12 ar   
    24   11  126 1    
    25   12   13 ar   
    26   12  137 1    
    27   13   14 ar   
    28   13   15 1    
    29   14  138 1    
    30   15   16 1    
    31   15  139 1    
    32   15  140 1    
    33   16   17 1    
    34   17   18 1    
    35   17  141 1    
    36   17  142 1    
    37   18   19 1    
    38   18   67 1    
    39   18  143 1    
    40   19   20 am   BACKBONE|DICT|INTERRES
    41   19  144 1    
    42   20   21 2    
    43   20   22 1    
    44   22   23 1    
    45   22   24 1    
    46   22  145 1    
    47   23  146 1    
    48   23  147 1    
    49   23  148 1    
    50   24   25 am   BACKBONE|DICT|INTERRES
    51   24  149 1    
    52   25   26 2    
    53   25   27 1    
    54   27   28 1    
    55   27   29 1    
    56   27  150 1    
    57   28  151 1    
    58   28  152 1    
    59   28  153 1    
    60   29   30 am   BACKBONE|DICT|INTERRES
    61   29  154 1    
    62   30   31 2    
    63   30   32 1    
    64   32   33 1    
    65   32   34 1    
    66   32  155 1    
    67   33  156 1    
    68   33  157 1    
    69   33  158 1    
    70   34   35 am   BACKBONE|DICT|INTERRES
    71   34  159 1    
    72   35   36 2    
    73   35   37 1    
    74   37   38 1    
    75   37   39 1    
    76   37  160 1    
    77   38  161 1    
    78   38  162 1    
    79   38  163 1    
    80   39   40 am   BACKBONE|DICT|INTERRES
    81   39  164 1    
    82   40   41 2    
    83   40   42 1    
    84   42   43 1    
    85   42   44 1    
    86   42  165 1    
    87   43  166 1    
    88   43  167 1    
    89   43  168 1    
    90   44   45 am   BACKBONE|DICT|INTERRES
    91   44  169 1    
    92   45   46 2    
    93   45   47 1    
    94   47   48 1    
    95   47   49 1    
    96   47  170 1    
    97   48  171 1    
    98   48  172 1    
    99   48  173 1    
   100   49   50 am   BACKBONE|DICT|INTERRES
   101   49  174 1    
   102   50   51 2    
   103   50   52 1    
   104   52   53 1    
   105   52   54 1    
   106   52  175 1    
   107   53  176 1    
   108   53  177 1    
   109   53  178 1    
   110   54   55 am   BACKBONE|DICT|INTERRES
   111   54  179 1    
   112   55   56 2    
   113   55   57 1    
   114   57   58 1    
   115   57   59 1    
   116   57  180 1    
   117   58  181 1    
   118   58  182 1    
   119   58  183 1    
   120   59   60 am   BACKBONE|DICT|INTERRES
   121   59  184 1    
   122   60   61 2    
   123   60   62 1    
   124   62   63 1    
   125   62   64 1    
   126   62  185 1    
   127   63  186 1    
   128   63  187 1    
   129   63  188 1    
   130   64   65 am   BACKBONE|DICT|INTERRES
   131   64  189 1    
   132   65   66 2    
   133   67   68 2    
   134   67   69 am   BACKBONE|DICT|INTERRES
   135   69   70 1    
   136   69  190 1    
   137   70   71 1    
   138   70   72 1    
   139   70  191 1    
   140   71  192 1    
   141   71  193 1    
   142   71  194 1    
   143   72   73 2    
   144   72   74 am   BACKBONE|DICT|INTERRES
   145   74   75 1    
   146   74  195 1    
   147   75   76 1    
   148   75   77 1    
   149   75  196 1    
   150   76  197 1    
   151   76  198 1    
   152   76  199 1    
   153   77   78 2    
   154   77   79 am   BACKBONE|DICT|INTERRES
   155   79   80 1    
   156   79  200 1    
   157   80   81 1    
   158   80   82 1    
   159   80  201 1    
   160   81  202 1    
   161   81  203 1    
   162   81  204 1    
   163   82   83 2    
   164   82   84 am   BACKBONE|DICT|INTERRES
   165   84   85 1    
   166   84  205 1    
   167   85   86 1    
   168   85   87 1    
   169   85  206 1    
   170   86  207 1    
   171   86  208 1    
   172   86  209 1    
   173   87   88 2    
   174   87   89 am   BACKBONE|DICT|INTERRES
   175   89   90 1    
   176   89  210 1    
   177   90   91 1    
   178   90   92 1    
   179   90  211 1    
   180   91  212 1    
   181   91  213 1    
   182   91  214 1    
   183   92   93 2    
   184   92   94 am   BACKBONE|DICT|INTERRES
   185   94   95 1    
   186   94  215 1    
   187   95   96 1    
   188   95   97 1    
   189   95  216 1    
   190   96  217 1    
   191   96  218 1    
   192   96  219 1    
   193   97   98 2    
   194   97   99 am   BACKBONE|DICT|INTERRES
   195   99  100 1    
   196   99  220 1    
   197  100  101 1    
   198  100  102 1    
   199  100  221 1    
   200  101  222 1    
   201  101  223 1    
   202  101  224 1    
   203  102  103 2    
   204  102  104 am   BACKBONE|DICT|INTERRES
   205  104  105 1    
   206  104  225 1    
   207  105  106 1    
   208  105  107 1    
   209  105  226 1    
   210  106  227 1    
   211  106  228 1    
   212  106  229 1    
   213  107  108 2    
   214  107  109 am   BACKBONE|DICT|INTERRES
   215  109  110 1    
   216  109  230 1    
   217  110  111 1    
   218  110  112 1    
   219  110  231 1    
   220  111  232 1    
   221  111  233 1    
   222  111  234 1    
   223  112  113 2    
   224  112  114 am   BACKBONE|DICT|INTERRES
   225  114  115 1    
   226  114  235 1    
   227  115  116 1    
   228  115  117 1    
   229  115  236 1    
   230  116  237 1    
   231  116  238 1    
   232  116  239 1    
   233  117  118 2    
   234  117  119 am   BACKBONE|DICT|INTERRES
   235  119  120 1    
   236  119  240 1    
   237  120  121 1    
   238  120  124 1    
   239  120  241 1    
   240  121  122 am   BACKBONE|DICT|INTERRES
   241  121  123 2    
   242  122  242 1    
   243  122  243 1    
   244  124  125 1    
   245  124  244 1    
   246  124  245 1    
   247  125  126 1    
   248  126  246 1    
   249  126  247 1    
@<TRIPOS>SUBSTRUCTURE
     1 UNK         1 GROUP             0       ****    0 ROOT    
