@<TRIPOS>MOLECULE
3R540
247   249    1
SMALL
USER_CHARGES


@<TRIPOS>ATOM
      1 CA          3.5559  -10.3784  -47.3673 C.3       0 UNK        -0.1800 
      2 C           3.8652  -11.8547  -47.1709 C.2       0 UNK         0.5000 
      3 O           2.9418  -12.6663  -47.1110 O.2       0 UNK        -0.5000 
      4 N           5.1546  -12.2032  -47.0458 N.am      1 UNK        -0.5000 
      5 CA          5.7117  -13.5516  -46.8516 C.3       1 UNK         0.1400 
      6 C6          5.3636  -14.5228  -48.0128 C.3       23 UNK        -0.0398 
      7 S7          6.2766  -16.1041  -47.9441 S.3       23 UNK        -0.2404 
      8 C8          4.9200  -17.2931  -47.6942 C.3       23 UNK        -0.0205 
      9 C9          4.3289  -17.7505  -49.0202 C.ar      23 UNK        -0.0193 
     10 C10         3.2948  -17.0322  -49.6297 C.ar      23 UNK        -0.1150 
     11 C11         2.7762  -17.4387  -50.8638 C.ar      23 UNK        -0.0193 
     12 C12         3.2828  -18.5920  -51.4726 C.ar      23 UNK        -0.1150 
     13 C13         4.2874  -19.3408  -50.8552 C.ar      23 UNK        -0.0193 
     14 C14         4.8186  -18.9047  -49.6378 C.ar      23 UNK        -0.1150 
     15 C15         4.7839  -20.6330  -51.4920 C.3       23 UNK        -0.0205 
     16 S16         3.6160  -22.0161  -51.2490 S.3       23 UNK        -0.2404 
     17 C17         3.4597  -22.0163  -49.4305 C.3       23 UNK        -0.0398 
     18 CA          2.5601  -23.1143  -48.8109 C.3       11 UNK         0.1400 
     19 N           2.5963  -22.9766  -47.3535 N.am      11 UNK        -0.5000 
     20 C           1.9408  -23.7037  -46.4395 C.2       10 UNK         0.5000 
     21 O           1.2528  -24.6920  -46.6954 O.2       10 UNK        -0.5000 
     22 CA          2.0297  -23.1693  -44.9951 C.3       10 UNK         0.1400 
     23 CB          3.2491  -23.7633  -44.2749 C.3       10 UNK        -0.1800 
     24 N           2.0926  -21.7018  -44.9311 N.am      10 UNK        -0.5000 
     25 C           1.1338  -20.8762  -45.3762 C.2       9 UNK         0.5000 
     26 O           0.0824  -21.2644  -45.8875 O.2       9 UNK        -0.5000 
     27 CA          1.4308  -19.3685  -45.3206 C.3       9 UNK         0.1400 
     28 CB          1.6938  -18.8341  -46.7381 C.3       9 UNK        -0.1800 
     29 N           0.3385  -18.6034  -44.7203 N.am      9 UNK        -0.5000 
     30 C          -0.0537  -18.7090  -43.4437 C.2       8 UNK         0.5000 
     31 O           0.4577  -19.4918  -42.6412 O.2       8 UNK        -0.5000 
     32 CA         -1.1759  -17.7791  -42.9523 C.3       8 UNK         0.1400 
     33 CB         -0.5837  -16.5063  -42.3279 C.3       8 UNK        -0.1800 
     34 N          -2.1268  -17.3919  -43.9989 N.am      8 UNK        -0.5000 
     35 C          -3.4591  -17.5017  -43.8814 C.2       7 UNK         0.5000 
     36 O          -4.0151  -18.0263  -42.9151 O.2       7 UNK        -0.5000 
     37 CA         -4.3420  -16.9089  -44.9993 C.3       7 UNK         0.1400 
     38 CB         -5.0337  -15.6247  -44.5184 C.3       7 UNK        -0.1800 
     39 N          -3.6083  -16.6101  -46.2263 N.am      7 UNK        -0.5000 
     40 C          -3.2804  -17.5274  -47.1439 C.2       6 UNK         0.5000 
     41 O          -3.6100  -18.7104  -47.0711 O.2       6 UNK        -0.5000 
     42 CA         -2.4487  -17.0538  -48.3513 C.3       6 UNK         0.1400 
     43 CB         -3.3645  -16.8609  -49.5673 C.3       6 UNK        -0.1800 
     44 N          -1.6666  -15.8330  -48.1469 N.am      6 UNK        -0.5000 
     45 C          -0.7471  -15.6341  -47.1936 C.2       5 UNK         0.5000 
     46 O          -0.5066  -16.4446  -46.2975 O.2       5 UNK        -0.5000 
     47 CA          0.0139  -14.2947  -47.2103 C.3       5 UNK         0.1400 
     48 CB         -0.2452  -13.4304  -48.4638 C.3       5 UNK        -0.1800 
     49 N          -0.2327  -13.5129  -45.9961 N.am      5 UNK        -0.5000 
     50 C          -1.4174  -13.1419  -45.4831 C.2       4 UNK         0.5000 
     51 O          -2.5036  -13.4418  -45.9826 O.2       4 UNK        -0.5000 
     52 CA         -1.3917  -12.3033  -44.1871 C.3       4 UNK         0.1400 
     53 CB         -2.2643  -12.9427  -43.0956 C.3       4 UNK        -0.1800 
     54 N          -0.0363  -12.1323  -43.6597 N.am      4 UNK        -0.5000 
     55 C           0.7749  -11.1001  -43.9143 C.2       3 UNK         0.5000 
     56 O           0.4552  -10.1322  -44.6043 O.2       3 UNK        -0.5000 
     57 CA          2.1995  -11.1796  -43.3328 C.3       3 UNK         0.1400 
     58 CB          2.2094  -10.9109  -41.8157 C.3       3 UNK        -0.1800 
     59 N           2.9037  -12.4236  -43.6750 N.am      3 UNK        -0.5000 
     60 C           2.6567  -13.6833  -43.2818 C.2       2 UNK         0.5000 
     61 O           1.7627  -13.9854  -42.4911 O.2       2 UNK        -0.5000 
     62 CA          3.5211  -14.7894  -43.9214 C.3       2 UNK         0.1400 
     63 CB          2.7120  -16.0715  -44.1823 C.3       2 UNK        -0.1800 
     64 N           4.0874  -14.3336  -45.1912 N.am      2 UNK        -0.5000 
     65 C           5.3806  -14.1235  -45.4536 C.2       1 UNK         0.5000 
     66 O           6.2868  -14.3236  -44.6441 O.2       1 UNK        -0.5000 
     67 C           1.1156  -23.0601  -49.3608 C.2       11 UNK         0.5000 
     68 O           0.7515  -23.8783  -50.2060 O.2       11 UNK        -0.5000 
     69 N           0.3156  -22.1172  -48.8437 N.am      12 UNK        -0.5000 
     70 CA         -1.0899  -21.9554  -49.1964 C.3       12 UNK         0.1400 
     71 CB         -1.5058  -20.4995  -48.9661 C.3       12 UNK        -0.1800 
     72 C          -1.9879  -22.9088  -48.3968 C.2       12 UNK         0.5000 
     73 O          -2.9260  -23.4609  -48.9665 O.2       12 UNK        -0.5000 
     74 N          -1.6959  -23.1086  -47.1020 N.am      13 UNK        -0.5000 
     75 CA         -2.4484  -23.9830  -46.1921 C.3       13 UNK         0.1400 
     76 CB         -1.8415  -23.9236  -44.7842 C.3       13 UNK        -0.1800 
     77 C          -2.5380  -25.4429  -46.6775 C.2       13 UNK         0.5000 
     78 O          -3.5823  -26.0738  -46.5129 O.2       13 UNK        -0.5000 
     79 N          -1.4759  -25.9205  -47.3418 N.am      14 UNK        -0.5000 
     80 CA         -1.4156  -27.2076  -48.0413 C.3       14 UNK         0.1400 
     81 CB          0.0160  -27.4164  -48.5581 C.3       14 UNK        -0.1800 
     82 C          -2.4307  -27.3504  -49.1991 C.2       14 UNK         0.5000 
     83 O          -2.7680  -28.4765  -49.5664 O.2       14 UNK        -0.5000 
     84 N          -2.9106  -26.2205  -49.7357 N.am      15 UNK        -0.5000 
     85 CA         -3.9360  -26.1180  -50.7739 C.3       15 UNK         0.1400 
     86 CB         -3.3896  -25.2355  -51.9111 C.3       15 UNK        -0.1800 
     87 C          -5.2615  -25.5654  -50.2016 C.2       15 UNK         0.5000 
     88 O          -6.0857  -25.0589  -50.9623 O.2       15 UNK        -0.5000 
     89 N          -5.4505  -25.6785  -48.8769 N.am      16 UNK        -0.5000 
     90 CA         -6.6094  -25.2267  -48.0985 C.3       16 UNK         0.1400 
     91 CB         -7.9106  -25.9243  -48.5506 C.3       16 UNK        -0.1800 
     92 C          -6.7298  -23.6904  -47.9991 C.2       16 UNK         0.5000 
     93 O          -7.8398  -23.1566  -47.9441 O.2       16 UNK        -0.5000 
     94 N          -5.5765  -23.0115  -47.9254 N.am      17 UNK        -0.5000 
     95 CA         -5.4045  -21.5772  -47.6863 C.3       17 UNK         0.1400 
     96 CB         -5.9070  -21.1932  -46.2746 C.3       17 UNK        -0.1800 
     97 C          -5.9963  -20.7413  -48.8349 C.2       17 UNK         0.5000 
     98 O          -5.6248  -20.9589  -49.9886 O.2       17 UNK        -0.5000 
     99 N          -6.9052  -19.8110  -48.5141 N.am      18 UNK        -0.5000 
    100 CA        -7.5418  -18.8817  -49.4495 C.3       18 UNK         0.1400 
    101 CB        -8.3547  -17.8534  -48.6460 C.3       18 UNK        -0.1800 
    102 C         -8.4190  -19.5472  -50.5327 C.2       18 UNK         0.5000 
    103 O         -8.7266  -18.8934  -51.5298 O.2       18 UNK        -0.5000 
    104 N         -8.7907  -20.8239  -50.3428 N.am      19 UNK        -0.5000 
    105 CA        -9.5470  -21.6347  -51.3051 C.3       19 UNK         0.1400 
    106 CB        -9.9072  -22.9789  -50.6564 C.3       19 UNK        -0.1800 
    107 C         -8.8020  -21.8682  -52.6372 C.2       19 UNK         0.5000 
    108 O         -9.4492  -22.0158  -53.6759 O.2       19 UNK        -0.5000 
    109 N         -7.4648  -21.8662  -52.5868 N.am      20 UNK        -0.5000 
    110 CA        -6.5691  -21.9106  -53.7368 C.3       20 UNK         0.1400 
    111 CB        -6.2937  -23.3672  -54.1509 C.3       20 UNK        -0.1800 
    112 C         -5.3106  -21.1255  -53.3466 C.2       20 UNK         0.5000 
    113 O         -4.2301  -21.7041  -53.2125 O.2       20 UNK        -0.5000 
    114 N         -5.5202  -19.8228  -53.1023 N.am      21 UNK        -0.5000 
    115 CA        -4.5835  -18.8544  -52.5303 C.3       21 UNK         0.1400 
    116 CB        -5.1945  -17.4477  -52.6576 C.3       21 UNK        -0.1800 
    117 C         -3.1695  -18.9039  -53.1391 C.2       21 UNK         0.5000 
    118 O         -2.9761  -18.4486  -54.2685 O.2       21 UNK        -0.5000 
    119 N         -2.2277  -19.4764  -52.3761 N.am      22 UNK        -0.5000 
    120 CA        -0.8154  -19.6834  -52.7470 C.3       22 UNK         0.1400 
    121 C         -0.5932  -20.6944  -53.9165 C.2       22 UNK         0.5000 
    122 N         -1.5579  -21.5418  -54.2572 N.am      22 UNK        -0.7600 
    123 O          0.4824  -20.7401  -54.5079 O.2       22 UNK        -0.5000 
    124 C124       -0.0488  -18.3438  -52.9440 C.3       23 UNK        -0.0398 
    125 S125        0.0412  -17.3583  -51.4063 S.3       23 UNK        -0.2404 
    126 C126        1.6958  -16.6084  -51.5460 C.3       23 UNK        -0.0205 
    127 H127        2.8900  -10.0276  -46.5787 H         1 UNK         0.0600 
    128 H128        3.0594  -10.2259  -48.3254 H         1 UNK         0.0600 
    129 H129        4.4587   -9.7676  -47.3489 H         1 UNK         0.0600 
    130 H130        5.8496  -11.4696  -47.0787 H         1 UNK         0.3000 
    131 H131        6.7940  -13.4118  -46.8726 H         1 UNK         0.0600 
    132 H132        4.2917  -14.7112  -48.0493 H         1 UNK         0.0800 
    133 H133        5.6088  -14.0509  -48.9649 H         1 UNK         0.0800 
    134 H134        4.1490  -16.8576  -47.0580 H         1 UNK         0.0800 
    135 H135        5.3076  -18.1536  -47.1468 H         1 UNK         0.0800 
    136 H136        2.9023  -16.1460  -49.1531 H         1 UNK         0.1150 
    137 H137        2.8957  -18.9236  -52.4235 H         1 UNK         0.1150 
    138 H138        5.6072  -19.4717  -49.1628 H         1 UNK         0.1150 
    139 H139        4.9333  -20.4784  -52.5616 H         1 UNK         0.0800 
    140 H140        5.7577  -20.9108  -51.0855 H         1 UNK         0.0800 
    141 H141        3.0836  -21.0385  -49.1264 H         1 UNK         0.0800 
    142 H142        4.4668  -22.0956  -49.0179 H         1 UNK         0.0800 
    143 H143        2.9763  -24.0922  -49.0607 H         1 UNK         0.0600 
    144 H144        3.1371  -22.2001  -47.0042 H         1 UNK         0.3000 
    145 H145        1.1350  -23.4855  -44.4597 H         1 UNK         0.0600 
    146 H146        3.2792  -23.4541  -43.2299 H         1 UNK         0.0600 
    147 H147        3.2168  -24.8537  -44.2885 H         1 UNK         0.0600 
    148 H148        4.1851  -23.4567  -44.7436 H         1 UNK         0.0600 
    149 H149        2.9244  -21.3077  -44.5154 H         1 UNK         0.3000 
    150 H150        2.3260  -19.2038  -44.7177 H         1 UNK         0.0600 
    151 H151        2.5264  -19.3575  -47.2092 H         1 UNK         0.0600 
    152 H152        1.9442  -17.7741  -46.7194 H         1 UNK         0.0600 
    153 H153        0.8221  -18.9524  -47.3833 H         1 UNK         0.0600 
    154 H154       -0.0942  -17.9058  -45.3195 H         1 UNK         0.3000 
    155 H155       -1.6856  -18.3287  -42.1585 H         1 UNK         0.0600 
    156 H156       -0.1662  -15.8459  -43.0885 H         1 UNK         0.0600 
    157 H157        0.2131  -16.7410  -41.6207 H         1 UNK         0.0600 
    158 H158       -1.3447  -15.9512  -41.7802 H         1 UNK         0.0600 
    159 H159       -1.7377  -16.9757  -44.8384 H         1 UNK         0.3000 
    160 H160       -5.1193  -17.6430  -45.2223 H         1 UNK         0.0600 
    161 H161       -4.3087  -14.8453  -44.2878 H         1 UNK         0.0600 
    162 H162       -5.6202  -15.8065  -43.6169 H         1 UNK         0.0600 
    163 H163       -5.7145  -15.2357  -45.2758 H         1 UNK         0.0600 
    164 H164       -3.2919  -15.6564  -46.3516 H         1 UNK         0.3000 
    165 H165       -1.7338  -17.8426  -48.5784 H         1 UNK         0.0600 
    166 H166       -2.7865  -16.7090  -50.4784 H         1 UNK         0.0600 
    167 H167       -3.9941  -17.7370  -49.7195 H         1 UNK         0.0600 
    168 H168       -4.0268  -16.0038  -49.4398 H         1 UNK         0.0600 
    169 H169       -1.8193  -15.0922  -48.8152 H         1 UNK         0.3000 
    170 H170        1.0720  -14.5588  -47.2033 H         1 UNK         0.0600 
    171 H171       -0.0057  -13.9760  -49.3777 H         1 UNK         0.0600 
    172 H172       -1.2818  -13.0975  -48.5291 H         1 UNK         0.0600 
    173 H173        0.3842  -12.5402  -48.4529 H         1 UNK         0.0600 
    174 H174        0.5933  -13.2112  -45.5024 H         1 UNK         0.3000 
    175 H175       -1.8165  -11.3262  -44.4257 H         1 UNK         0.0600 
    176 H176       -1.9840  -13.9793  -42.9126 H         1 UNK         0.0600 
    177 H177       -2.1832  -12.4000  -42.1536 H         1 UNK         0.0600 
    178 H178       -3.3158  -12.9293  -43.3825 H         1 UNK         0.0600 
    179 H179        0.3406  -12.8937  -43.0997 H         1 UNK         0.3000 
    180 H180        2.7736  -10.3803  -43.8045 H         1 UNK         0.0600 
    181 H181        1.6316  -11.6505  -41.2611 H         1 UNK         0.0600 
    182 H182        1.7803   -9.9332  -41.5935 H         1 UNK         0.0600 
    183 H183        3.2259  -10.9164  -41.4221 H         1 UNK         0.0600 
    184 H184        3.6550  -12.3094  -44.3394 H         1 UNK         0.3000 
    185 H185        4.3141  -15.0240  -43.2089 H         1 UNK         0.0600 
    186 H186        1.8578  -15.8848  -44.8342 H         1 UNK         0.0600 
    187 H187        3.3307  -16.8364  -44.6506 H         1 UNK         0.0600 
    188 H188        2.3324  -16.4938  -43.2516 H         1 UNK         0.0600 
    189 H189        3.4242  -14.0323  -45.9010 H         1 UNK         0.3000 
    190 H190        0.6585  -21.5370  -48.0916 H         1 UNK         0.3000 
    191 H191       -1.2228  -22.1783  -50.2578 H         1 UNK         0.0600 
    192 H192       -2.5401  -20.3343  -49.2711 H         1 UNK         0.0600 
    193 H193       -0.8781  -19.8174  -49.5391 H         1 UNK         0.0600 
    194 H194       -1.4268  -20.2215  -47.9144 H         1 UNK         0.0600 
    195 H195       -0.9466  -22.5603  -46.6852 H         1 UNK         0.3000 
    196 H196       -3.4639  -23.5885  -46.1336 H         1 UNK         0.0600 
    197 H197       -2.4890  -24.4249  -44.0637 H         1 UNK         0.0600 
    198 H198       -1.7112  -22.8953  -44.4453 H         1 UNK         0.0600 
    199 H199       -0.8741  -24.4224  -44.7483 H         1 UNK         0.0600 
    200 H200       -0.6410  -25.3453  -47.3835 H         1 UNK         0.3000 
    201 H201       -1.6376  -27.9914  -47.3140 H         1 UNK         0.0600 
    202 H202        0.7360  -27.4062  -47.7395 H         1 UNK         0.0600 
    203 H203        0.3033  -26.6369  -49.2655 H         1 UNK         0.0600 
    204 H204        0.1151  -28.3767  -49.0664 H         1 UNK         0.0600 
    205 H205       -2.6128  -25.3285  -49.3520 H         1 UNK         0.3000 
    206 H206       -4.1540  -27.1046  -51.1869 H         1 UNK         0.0600 
    207 H207       -2.4079  -25.5765  -52.2405 H         1 UNK         0.0600 
    208 H208       -4.0468  -25.2667  -52.7803 H         1 UNK         0.0600 
    209 H209       -3.2971  -24.1919  -51.6049 H         1 UNK         0.0600 
    210 H210       -4.7033  -26.0859  -48.3264 H         1 UNK         0.3000 
    211 H211       -6.4155  -25.5603  -47.0779 H         1 UNK         0.0600 
    212 H212       -8.2132  -25.6213  -49.5528 H         1 UNK         0.0600 
    213 H213       -8.7353  -25.6868  -47.8772 H         1 UNK         0.0600 
    214 H214       -7.7954  -27.0087  -48.5498 H         1 UNK         0.0600 
    215 H215       -4.7194  -23.5077  -48.1456 H         1 UNK         0.3000 
    216 H216       -4.3329  -21.3823  -47.7043 H         1 UNK         0.0600 
    217 H217       -5.6882  -20.1492  -46.0472 H         1 UNK         0.0600 
    218 H218       -5.4087  -21.7918  -45.5117 H         1 UNK         0.0600 
    219 H219       -6.9811  -21.3418  -46.1593 H         1 UNK         0.0600 
    220 H220       -7.1678  -19.7184  -47.5437 H         1 UNK         0.3000 
    221 H221       -6.7425  -18.3491  -49.9691 H         1 UNK         0.0600 
    222 H222       -9.1551  -18.3302  -48.0774 H         1 UNK         0.0600 
    223 H223       -7.7203  -17.3083  -47.9454 H         1 UNK         0.0600 
    224 H224       -8.8150  -17.1153  -49.3046 H         1 UNK         0.0600 
    225 H225       -8.4845  -21.2937  -49.5007 H         1 UNK         0.3000 
    226 H226      -10.4741  -21.1030  -51.5317 H         1 UNK         0.0600 
    227 H227       -9.0125  -23.5616  -50.4328 H         1 UNK         0.0600 
    228 H228      -10.4590  -22.8375  -49.7262 H         1 UNK         0.0600 
    229 H229      -10.5323  -23.5794  -51.3200 H         1 UNK         0.0600 
    230 H230       -7.0091  -21.7221  -51.6911 H         1 UNK         0.3000 
    231 H231       -7.0263  -21.3916  -54.5824 H         1 UNK         0.0600 
    232 H232       -5.5918  -23.4123  -54.9850 H         1 UNK         0.0600 
    233 H233       -7.2095  -23.8686  -54.4654 H         1 UNK         0.0600 
    234 H234       -5.8667  -23.9379  -53.3280 H         1 UNK         0.0600 
    235 H235       -6.4581  -19.4760  -53.2437 H         1 UNK         0.3000 
    236 H236       -4.5041  -19.0897  -51.4694 H         1 UNK         0.0600 
    237 H237       -6.1348  -17.3700  -52.1115 H         1 UNK         0.0600 
    238 H238       -4.5229  -16.6870  -52.2584 H         1 UNK         0.0600 
    239 H239       -5.3926  -17.1903  -53.6989 H         1 UNK         0.0600 
    240 H240       -2.5062  -19.8725  -51.4916 H         1 UNK         0.3000 
    241 H241       -0.3595  -20.1841  -51.8921 H         1 UNK         0.0600 
    242 H242       -1.3951  -22.1962  -55.0049 H         1 UNK         0.3800 
    243 H243       -2.4626  -21.5327  -53.7896 H         1 UNK         0.3800 
    244 H244        0.9625  -18.5319  -53.2991 H         1 UNK         0.0800 
    245 H245       -0.5155  -17.7364  -53.7203 H         1 UNK         0.0800 
    246 H246        1.6550  -15.6133  -51.0999 H         1 UNK         0.0800 
    247 H247        1.9527  -16.4511  -52.5946 H         1 UNK         0.0800 
@<TRIPOS>BOND
     1    1    2 1    
     2    1  127 1    
     3    1  128 1    
     4    1  129 1    
     5    2    3 2    
     6    2    4 am   BACKBONE|DICT|INTERRES
     7    4    5 1    
     8    4  130 1    
     9    5    6 1    
    10    5   65 1    
    11    5  131 1    
    12    6    7 1    
    13    6  132 1    
    14    6  133 1    
    15    7    8 1    
    16    8    9 1    
    17    8  134 1    
    18    8  135 1    
    19    9   10 ar   
    20    9   14 ar   
    21   10   11 ar   
    22   10  136 1    
    23   11   12 ar   
    24   11  126 1    
    25   12   13 ar   
    26   12  137 1    
    27   13   14 ar   
    28   13   15 1    
    29   14  138 1    
    30   15   16 1    
    31   15  139 1    
    32   15  140 1    
    33   16   17 1    
    34   17   18 1    
    35   17  141 1    
    36   17  142 1    
    37   18   19 1    
    38   18   67 1    
    39   18  143 1    
    40   19   20 am   BACKBONE|DICT|INTERRES
    41   19  144 1    
    42   20   21 2    
    43   20   22 1    
    44   22   23 1    
    45   22   24 1    
    46   22  145 1    
    47   23  146 1    
    48   23  147 1    
    49   23  148 1    
    50   24   25 am   BACKBONE|DICT|INTERRES
    51   24  149 1    
    52   25   26 2    
    53   25   27 1    
    54   27   28 1    
    55   27   29 1    
    56   27  150 1    
    57   28  151 1    
    58   28  152 1    
    59   28  153 1    
    60   29   30 am   BACKBONE|DICT|INTERRES
    61   29  154 1    
    62   30   31 2    
    63   30   32 1    
    64   32   33 1    
    65   32   34 1    
    66   32  155 1    
    67   33  156 1    
    68   33  157 1    
    69   33  158 1    
    70   34   35 am   BACKBONE|DICT|INTERRES
    71   34  159 1    
    72   35   36 2    
    73   35   37 1    
    74   37   38 1    
    75   37   39 1    
    76   37  160 1    
    77   38  161 1    
    78   38  162 1    
    79   38  163 1    
    80   39   40 am   BACKBONE|DICT|INTERRES
    81   39  164 1    
    82   40   41 2    
    83   40   42 1    
    84   42   43 1    
    85   42   44 1    
    86   42  165 1    
    87   43  166 1    
    88   43  167 1    
    89   43  168 1    
    90   44   45 am   BACKBONE|DICT|INTERRES
    91   44  169 1    
    92   45   46 2    
    93   45   47 1    
    94   47   48 1    
    95   47   49 1    
    96   47  170 1    
    97   48  171 1    
    98   48  172 1    
    99   48  173 1    
   100   49   50 am   BACKBONE|DICT|INTERRES
   101   49  174 1    
   102   50   51 2    
   103   50   52 1    
   104   52   53 1    
   105   52   54 1    
   106   52  175 1    
   107   53  176 1    
   108   53  177 1    
   109   53  178 1    
   110   54   55 am   BACKBONE|DICT|INTERRES
   111   54  179 1    
   112   55   56 2    
   113   55   57 1    
   114   57   58 1    
   115   57   59 1    
   116   57  180 1    
   117   58  181 1    
   118   58  182 1    
   119   58  183 1    
   120   59   60 am   BACKBONE|DICT|INTERRES
   121   59  184 1    
   122   60   61 2    
   123   60   62 1    
   124   62   63 1    
   125   62   64 1    
   126   62  185 1    
   127   63  186 1    
   128   63  187 1    
   129   63  188 1    
   130   64   65 am   BACKBONE|DICT|INTERRES
   131   64  189 1    
   132   65   66 2    
   133   67   68 2    
   134   67   69 am   BACKBONE|DICT|INTERRES
   135   69   70 1    
   136   69  190 1    
   137   70   71 1    
   138   70   72 1    
   139   70  191 1    
   140   71  192 1    
   141   71  193 1    
   142   71  194 1    
   143   72   73 2    
   144   72   74 am   BACKBONE|DICT|INTERRES
   145   74   75 1    
   146   74  195 1    
   147   75   76 1    
   148   75   77 1    
   149   75  196 1    
   150   76  197 1    
   151   76  198 1    
   152   76  199 1    
   153   77   78 2    
   154   77   79 am   BACKBONE|DICT|INTERRES
   155   79   80 1    
   156   79  200 1    
   157   80   81 1    
   158   80   82 1    
   159   80  201 1    
   160   81  202 1    
   161   81  203 1    
   162   81  204 1    
   163   82   83 2    
   164   82   84 am   BACKBONE|DICT|INTERRES
   165   84   85 1    
   166   84  205 1    
   167   85   86 1    
   168   85   87 1    
   169   85  206 1    
   170   86  207 1    
   171   86  208 1    
   172   86  209 1    
   173   87   88 2    
   174   87   89 am   BACKBONE|DICT|INTERRES
   175   89   90 1    
   176   89  210 1    
   177   90   91 1    
   178   90   92 1    
   179   90  211 1    
   180   91  212 1    
   181   91  213 1    
   182   91  214 1    
   183   92   93 2    
   184   92   94 am   BACKBONE|DICT|INTERRES
   185   94   95 1    
   186   94  215 1    
   187   95   96 1    
   188   95   97 1    
   189   95  216 1    
   190   96  217 1    
   191   96  218 1    
   192   96  219 1    
   193   97   98 2    
   194   97   99 am   BACKBONE|DICT|INTERRES
   195   99  100 1    
   196   99  220 1    
   197  100  101 1    
   198  100  102 1    
   199  100  221 1    
   200  101  222 1    
   201  101  223 1    
   202  101  224 1    
   203  102  103 2    
   204  102  104 am   BACKBONE|DICT|INTERRES
   205  104  105 1    
   206  104  225 1    
   207  105  106 1    
   208  105  107 1    
   209  105  226 1    
   210  106  227 1    
   211  106  228 1    
   212  106  229 1    
   213  107  108 2    
   214  107  109 am   BACKBONE|DICT|INTERRES
   215  109  110 1    
   216  109  230 1    
   217  110  111 1    
   218  110  112 1    
   219  110  231 1    
   220  111  232 1    
   221  111  233 1    
   222  111  234 1    
   223  112  113 2    
   224  112  114 am   BACKBONE|DICT|INTERRES
   225  114  115 1    
   226  114  235 1    
   227  115  116 1    
   228  115  117 1    
   229  115  236 1    
   230  116  237 1    
   231  116  238 1    
   232  116  239 1    
   233  117  118 2    
   234  117  119 am   BACKBONE|DICT|INTERRES
   235  119  120 1    
   236  119  240 1    
   237  120  121 1    
   238  120  124 1    
   239  120  241 1    
   240  121  122 am   BACKBONE|DICT|INTERRES
   241  121  123 2    
   242  122  242 1    
   243  122  243 1    
   244  124  125 1    
   245  124  244 1    
   246  124  245 1    
   247  125  126 1    
   248  126  246 1    
   249  126  247 1    
@<TRIPOS>SUBSTRUCTURE
     1 UNK         1 GROUP             0       ****    0 ROOT    
