@<TRIPOS>MOLECULE
3R540
247   249    1
SMALL
USER_CHARGES


@<TRIPOS>ATOM
      1 CA         -1.2414   -7.4882  -47.1600 C.3       0 UNK        -0.1800 
      2 C          -0.7658   -8.9049  -46.8699 C.2       0 UNK         0.5000 
      3 O           0.4012   -9.1017  -46.5303 O.2       0 UNK        -0.5000 
      4 N          -1.6612   -9.8897  -47.0114 N.am      1 UNK        -0.5000 
      5 CA         -1.4058  -11.3072  -46.7355 C.3       1 UNK         0.1400 
      6 C6         -2.5287  -12.2217  -47.2821 C.3       23 UNK        -0.0398 
      7 S7         -2.8020  -12.0070  -49.0733 S.3       23 UNK        -0.2404 
      8 C8         -4.3268  -12.9713  -49.3129 C.3       23 UNK        -0.0205 
      9 C9         -4.0375  -14.4629  -49.3527 C.ar      23 UNK        -0.0193 
     10 C10        -3.6736  -15.0697  -50.5577 C.ar      23 UNK        -0.1150 
     11 C11        -3.3779  -16.4343  -50.6058 C.ar      23 UNK        -0.0193 
     12 C12        -3.4564  -17.1946  -49.4357 C.ar      23 UNK        -0.1150 
     13 C13        -3.8235  -16.5997  -48.2252 C.ar      23 UNK        -0.0193 
     14 C14        -4.1203  -15.2345  -48.1900 C.ar      23 UNK        -0.1150 
     15 C15        -3.8635  -17.4295  -46.9540 C.3       23 UNK        -0.0205 
     16 S16        -5.3002  -18.5355  -46.9127 S.3       23 UNK        -0.2404 
     17 C17        -4.8678  -19.6015  -45.4969 C.3       23 UNK        -0.0398 
     18 CA         -4.3274  -20.9722  -45.9661 C.3       11 UNK         0.1400 
     19 N          -3.0001  -20.8853  -46.5964 N.am      11 UNK        -0.5000 
     20 C          -2.3964  -21.8947  -47.2400 C.2       10 UNK         0.5000 
     21 O          -2.8906  -23.0143  -47.3514 O.2       10 UNK        -0.5000 
     22 CA         -0.9991  -21.6327  -47.8191 C.3       10 UNK         0.1400 
     23 CB         -1.0834  -20.7792  -49.0927 C.3       10 UNK        -0.1800 
     24 N          -0.1324  -20.9960  -46.8301 N.am      10 UNK        -0.5000 
     25 C           0.3697  -21.6421  -45.7648 C.2       9 UNK         0.5000 
     26 O           0.2290  -22.8500  -45.5743 O.2       9 UNK        -0.5000 
     27 CA          1.1237  -20.8047  -44.7126 C.3       9 UNK         0.1400 
     28 CB          2.6332  -20.8147  -44.9963 C.3       9 UNK        -0.1800 
     29 N           0.6656  -19.4187  -44.6302 N.am      9 UNK        -0.5000 
     30 C          -0.5769  -19.0261  -44.3169 C.2       8 UNK         0.5000 
     31 O          -1.4822  -19.7987  -44.0012 O.2       8 UNK        -0.5000 
     32 CA         -0.8746  -17.5197  -44.4356 C.3       8 UNK         0.1400 
     33 CB         -0.8110  -16.8509  -43.0565 C.3       8 UNK        -0.1800 
     34 N           0.0002  -16.8040  -45.3742 N.am      8 UNK        -0.5000 
     35 C           0.0995  -17.0628  -46.6887 C.2       7 UNK         0.5000 
     36 O          -0.4756  -17.9941  -47.2513 O.2       7 UNK        -0.5000 
     37 CA          1.0357  -16.1543  -47.4948 C.3       7 UNK         0.1400 
     38 CB          0.3496  -14.8180  -47.8172 C.3       7 UNK        -0.1800 
     39 N           2.2862  -15.9108  -46.7800 N.am      7 UNK        -0.5000 
     40 C           3.3133  -16.7716  -46.7468 C.2       6 UNK         0.5000 
     41 O           3.2860  -17.8741  -47.2951 O.2       6 UNK        -0.5000 
     42 CA          4.5666  -16.3504  -45.9493 C.3       6 UNK         0.1400 
     43 CB          5.8762  -16.8502  -46.5931 C.3       6 UNK        -0.1800 
     44 N           4.6334  -14.9131  -45.6607 N.am      6 UNK        -0.5000 
     45 C           4.7627  -13.8936  -46.5259 C.2       5 UNK         0.5000 
     46 O           4.9066  -14.0386  -47.7397 O.2       5 UNK        -0.5000 
     47 CA          4.6819  -12.4648  -45.9464 C.3       5 UNK         0.1400 
     48 CB          3.4490  -11.7286  -46.4986 C.3       5 UNK        -0.1800 
     49 N           4.6077  -12.4573  -44.4843 N.am      5 UNK        -0.5000 
     50 C           5.6613  -12.4797  -43.6564 C.2       4 UNK         0.5000 
     51 O           6.8315  -12.4176  -44.0331 O.2       4 UNK        -0.5000 
     52 CA          5.3491  -12.6326  -42.1537 C.3       4 UNK         0.1400 
     53 CB          5.2542  -11.2543  -41.4820 C.3       4 UNK        -0.1800 
     54 N           4.1098  -13.3744  -41.8985 N.am      4 UNK        -0.5000 
     55 C           3.9199  -14.6731  -42.1764 C.2       3 UNK         0.5000 
     56 O           4.7920  -15.4055  -42.6405 O.2       3 UNK        -0.5000 
     57 CA          2.4982  -15.2275  -41.9720 C.3       3 UNK         0.1400 
     58 CB          2.3300  -15.7868  -40.5520 C.3       3 UNK        -0.1800 
     59 N           1.4662  -14.2181  -42.2247 N.am      3 UNK        -0.5000 
     60 C           1.1802  -13.7163  -43.4321 C.2       2 UNK         0.5000 
     61 O           1.6794  -14.1318  -44.4838 O.2       2 UNK        -0.5000 
     62 CA          0.2106  -12.5286  -43.4574 C.3       2 UNK         0.1400 
     63 CB          0.8698  -11.2800  -42.8369 C.3       2 UNK        -0.1800 
     64 N          -0.1664  -12.2507  -44.8385 N.am      2 UNK        -0.5000 
     65 C          -1.2239  -11.5286  -45.2200 C.2       1 UNK         0.5000 
     66 O          -2.0453  -11.0495  -44.4339 O.2       1 UNK        -0.5000 
     67 C          -4.3657  -22.0116  -44.8272 C.2       11 UNK         0.5000 
     68 O          -5.3500  -22.7428  -44.7122 O.2       11 UNK        -0.5000 
     69 N          -3.2642  -22.1247  -44.0717 N.am      12 UNK        -0.5000 
     70 CA         -3.0352  -23.1640  -43.0633 C.3       12 UNK         0.1400 
     71 CB         -1.7351  -22.8430  -42.3107 C.3       12 UNK        -0.1800 
     72 C          -2.9868  -24.5992  -43.6361 C.2       12 UNK         0.5000 
     73 O          -3.2101  -25.5525  -42.8898 O.2       12 UNK        -0.5000 
     74 N          -2.7215  -24.7267  -44.9425 N.am      13 UNK        -0.5000 
     75 CA         -2.6920  -25.9729  -45.7057 C.3       13 UNK         0.1400 
     76 CB         -1.3624  -26.0367  -46.4795 C.3       13 UNK        -0.1800 
     77 C          -3.9134  -26.0866  -46.6436 C.2       13 UNK         0.5000 
     78 O          -3.8159  -26.7274  -47.6913 O.2       13 UNK        -0.5000 
     79 N          -5.0375  -25.4533  -46.2695 N.am      14 UNK        -0.5000 
     80 CA         -6.3185  -25.4232  -46.9890 C.3       14 UNK         0.1400 
     81 CB         -6.9609  -26.8260  -47.0252 C.3       14 UNK        -0.1800 
     82 C          -6.1907  -24.7827  -48.3861 C.2       14 UNK         0.5000 
     83 O          -6.6007  -25.3719  -49.3880 O.2       14 UNK        -0.5000 
     84 N          -5.5688  -23.5960  -48.4167 N.am      15 UNK        -0.5000 
     85 CA         -5.1865  -22.8238  -49.6048 C.3       15 UNK         0.1400 
     86 CB         -6.4280  -22.2995  -50.3543 C.3       15 UNK        -0.1800 
     87 C          -4.2138  -23.6126  -50.5031 C.2       15 UNK         0.5000 
     88 O          -4.3866  -23.6478  -51.7200 O.2       15 UNK        -0.5000 
     89 N          -3.2280  -24.2617  -49.8671 N.am      16 UNK        -0.5000 
     90 CA         -2.2391  -25.1752  -50.4463 C.3       16 UNK         0.1400 
     91 CB         -1.2268  -24.3878  -51.3018 C.3       16 UNK        -0.1800 
     92 C          -2.9096  -26.3334  -51.2139 C.2       16 UNK         0.5000 
     93 O          -2.6119  -26.5527  -52.3879 O.2       16 UNK        -0.5000 
     94 N          -3.8546  -27.0093  -50.5443 N.am      17 UNK        -0.5000 
     95 CA         -4.7540  -28.0359  -51.0838 C.3       17 UNK         0.1400 
     96 CB         -3.9753  -29.3297  -51.3989 C.3       17 UNK        -0.1800 
     97 C          -5.5861  -27.5179  -52.2792 C.2       17 UNK         0.5000 
     98 O          -5.6771  -28.1815  -53.3136 O.2       17 UNK        -0.5000 
     99 N          -6.1545  -26.3165  -52.1059 N.am      18 UNK        -0.5000 
    100 CA        -6.9641  -25.5477  -53.0573 C.3       18 UNK         0.1400 
    101 CB        -8.2705  -26.2965  -53.3937 C.3       18 UNK        -0.1800 
    102 C         -6.2184  -25.0635  -54.3230 C.2       18 UNK         0.5000 
    103 O         -6.8729  -24.6263  -55.2715 O.2       18 UNK        -0.5000 
    104 N         -4.8786  -25.1129  -54.3286 N.am      19 UNK        -0.5000 
    105 CA        -4.0425  -24.6091  -55.4222 C.3       19 UNK         0.1400 
    106 CB        -2.6738  -25.3050  -55.3783 C.3       19 UNK        -0.1800 
    107 C         -3.8543  -23.0796  -55.3842 C.2       19 UNK         0.5000 
    108 O         -3.5436  -22.4905  -56.4200 O.2       19 UNK        -0.5000 
    109 N         -4.0161  -22.4748  -54.1965 N.am      20 UNK        -0.5000 
    110 CA        -3.7915  -21.0621  -53.8666 C.3       20 UNK         0.1400 
    111 CB        -4.8024  -20.1528  -54.5940 C.3       20 UNK        -0.1800 
    112 C         -2.3243  -20.6261  -54.0693 C.2       20 UNK         0.5000 
    113 O         -2.0580  -19.4815  -54.4386 O.2       20 UNK        -0.5000 
    114 N         -1.3897  -21.5521  -53.8166 N.am      21 UNK        -0.5000 
    115 CA         0.0522  -21.3963  -54.0132 C.3       21 UNK         0.1400 
    116 CB         0.6714  -22.7895  -54.2271 C.3       21 UNK        -0.1800 
    117 C          0.7289  -20.6077  -52.8704 C.2       21 UNK         0.5000 
    118 O          1.6681  -21.1015  -52.2446 O.2       21 UNK        -0.5000 
    119 N          0.2368  -19.3905  -52.6191 N.am      22 UNK        -0.5000 
    120 CA         0.8008  -18.4222  -51.6637 C.3       22 UNK         0.1400 
    121 C          2.0432  -17.6380  -52.1829 C.2       22 UNK         0.5000 
    122 N          2.4280  -17.7536  -53.4485 N.am      22 UNK        -0.7600 
    123 O          2.6807  -16.9212  -51.4170 O.2       22 UNK        -0.5000 
    124 C124       -0.2875  -17.4734  -51.1000 C.3       23 UNK        -0.0398 
    125 S125       -1.2632  -16.6094  -52.3818 S.3       23 UNK        -0.2404 
    126 C126       -2.9611  -17.0771  -51.9205 C.3       23 UNK        -0.0205 
    127 H127       -2.2892   -7.4656  -47.4607 H         1 UNK         0.0600 
    128 H128       -0.6480   -7.0501  -47.9625 H         1 UNK         0.0600 
    129 H129       -1.1288   -6.8659  -46.2722 H         1 UNK         0.0600 
    130 H130       -2.6060   -9.6653  -47.2876 H         1 UNK         0.3000 
    131 H131       -0.4756  -11.5784  -47.2403 H         1 UNK         0.0600 
    132 H132       -2.2846  -13.2692  -47.0988 H         1 UNK         0.0800 
    133 H133       -3.4683  -12.0264  -46.7614 H         1 UNK         0.0800 
    134 H134       -5.0472  -12.7379  -48.5275 H         1 UNK         0.0800 
    135 H135       -4.7922  -12.6642  -50.2507 H         1 UNK         0.0800 
    136 H136       -3.6015  -14.4755  -51.4580 H         1 UNK         0.1150 
    137 H137       -3.2279  -18.2501  -49.4614 H         1 UNK         0.1150 
    138 H138       -4.4008  -14.7687  -47.2558 H         1 UNK         0.1150 
    139 H139       -2.9575  -18.0277  -46.8962 H         1 UNK         0.0800 
    140 H140       -3.8761  -16.7871  -46.0724 H         1 UNK         0.0800 
    141 H141       -5.7800  -19.7282  -44.9106 H         1 UNK         0.0800 
    142 H142       -4.1540  -19.1006  -44.8406 H         1 UNK         0.0800 
    143 H143       -5.0140  -21.3428  -46.7293 H         1 UNK         0.0600 
    144 H144       -2.5095  -20.0088  -46.5062 H         1 UNK         0.3000 
    145 H145       -0.5647  -22.5967  -48.0936 H         1 UNK         0.0600 
    146 H146       -0.0964  -20.6322  -49.5303 H         1 UNK         0.0600 
    147 H147       -1.7040  -21.2626  -49.8485 H         1 UNK         0.0600 
    148 H148       -1.5132  -19.7986  -48.8932 H         1 UNK         0.0600 
    149 H149       -0.0013  -19.9937  -46.9136 H         1 UNK         0.3000 
    150 H150        0.9534  -21.2684  -43.7389 H         1 UNK         0.0600 
    151 H151        3.0171  -21.8351  -45.0311 H         1 UNK         0.0600 
    152 H152        3.1858  -20.2869  -44.2189 H         1 UNK         0.0600 
    153 H153        2.8653  -20.3440  -45.9526 H         1 UNK         0.0600 
    154 H154        1.3293  -18.7097  -44.9027 H         1 UNK         0.3000 
    155 H155       -1.8964  -17.4235  -44.8024 H         1 UNK         0.0600 
    156 H156       -1.5086  -17.3226  -42.3632 H         1 UNK         0.0600 
    157 H157       -1.0783  -15.7960  -43.1135 H         1 UNK         0.0600 
    158 H158        0.1829  -16.9299  -42.6188 H         1 UNK         0.0600 
    159 H159        0.5370  -16.0324  -45.0008 H         1 UNK         0.3000 
    160 H160        1.2652  -16.6560  -48.4364 H         1 UNK         0.0600 
    161 H161        0.0913  -14.2697  -46.9122 H         1 UNK         0.0600 
    162 H162       -0.5724  -14.9781  -48.3790 H         1 UNK         0.0600 
    163 H163        0.9933  -14.1811  -48.4243 H         1 UNK         0.0600 
    164 H164        2.3506  -15.0596  -46.2346 H         1 UNK         0.3000 
    165 H165        4.4747  -16.8431  -44.9807 H         1 UNK         0.0600 
    166 H166        6.0012  -16.4708  -47.6075 H         1 UNK         0.0600 
    167 H167        6.7441  -16.5436  -46.0093 H         1 UNK         0.0600 
    168 H168        5.8938  -17.9392  -46.6495 H         1 UNK         0.0600 
    169 H169        4.5481  -14.6821  -44.6796 H         1 UNK         0.3000 
    170 H170        5.5752  -11.9260  -46.2691 H         1 UNK         0.0600 
    171 H171        3.4971  -11.6448  -47.5850 H         1 UNK         0.0600 
    172 H172        2.5234  -12.2484  -46.2535 H         1 UNK         0.0600 
    173 H173        3.3797  -10.7161  -46.1001 H         1 UNK         0.0600 
    174 H174        3.6837  -12.5271  -44.0858 H         1 UNK         0.3000 
    175 H175        6.1751  -13.1825  -41.6976 H         1 UNK         0.0600 
    176 H176        4.4292  -10.6652  -41.8848 H         1 UNK         0.0600 
    177 H177        5.1062  -11.3490  -40.4061 H         1 UNK         0.0600 
    178 H178        6.1707  -10.6823  -41.6332 H         1 UNK         0.0600 
    179 H179        3.3424  -12.8497  -41.5063 H         1 UNK         0.3000 
    180 H180        2.3643  -16.0461  -42.6821 H         1 UNK         0.0600 
    181 H181        2.4483  -15.0102  -39.7953 H         1 UNK         0.0600 
    182 H182        3.0712  -16.5606  -40.3473 H         1 UNK         0.0600 
    183 H183        1.3464  -16.2376  -40.4191 H         1 UNK         0.0600 
    184 H184        1.0012  -13.8394  -41.4117 H         1 UNK         0.3000 
    185 H185       -0.6791  -12.8038  -42.8872 H         1 UNK         0.0600 
    186 H186        1.1641  -11.4541  -41.8015 H         1 UNK         0.0600 
    187 H187        1.7620  -10.9810  -43.3889 H         1 UNK         0.0600 
    188 H188        0.1862  -10.4310  -42.8318 H         1 UNK         0.0600 
    189 H189        0.4580  -12.6557  -45.5228 H         1 UNK         0.3000 
    190 H190       -2.5190  -21.4451  -44.1980 H         1 UNK         0.3000 
    191 H191       -3.8623  -23.1244  -42.3516 H         1 UNK         0.0600 
    192 H192       -0.8713  -22.8724  -42.9752 H         1 UNK         0.0600 
    193 H193       -1.7749  -21.8528  -41.8561 H         1 UNK         0.0600 
    194 H194       -1.5581  -23.5621  -41.5100 H         1 UNK         0.0600 
    195 H195       -2.5801  -23.8878  -45.4926 H         1 UNK         0.3000 
    196 H196       -2.7317  -26.8315  -45.0331 H         1 UNK         0.0600 
    197 H197       -0.5117  -25.9736  -45.8007 H         1 UNK         0.0600 
    198 H198       -1.2738  -25.2192  -47.1952 H         1 UNK         0.0600 
    199 H199       -1.2669  -26.9730  -47.0305 H         1 UNK         0.0600 
    200 H200       -5.0061  -24.9033  -45.4203 H         1 UNK         0.3000 
    201 H201       -6.9799  -24.7738  -46.4136 H         1 UNK         0.0600 
    202 H202       -7.9605  -26.7846  -47.4595 H         1 UNK         0.0600 
    203 H203       -7.0602  -27.2397  -46.0218 H         1 UNK         0.0600 
    204 H204       -6.3770  -27.5281  -47.6212 H         1 UNK         0.0600 
    205 H205       -5.1821  -23.2628  -47.5450 H         1 UNK         0.3000 
    206 H206       -4.6340  -21.9524  -49.2525 H         1 UNK         0.0600 
    207 H207       -7.0542  -21.6956  -49.6977 H         1 UNK         0.0600 
    208 H208       -7.0416  -23.1095  -50.7463 H         1 UNK         0.0600 
    209 H209       -6.1407  -21.6692  -51.1968 H         1 UNK         0.0600 
    210 H210       -3.1735  -24.1356  -48.8606 H         1 UNK         0.3000 
    211 H211       -1.6969  -25.6251  -49.6139 H         1 UNK         0.0600 
    212 H212       -0.7559  -23.5909  -50.7263 H         1 UNK         0.0600 
    213 H213       -0.4322  -25.0417  -51.6627 H         1 UNK         0.0600 
    214 H214       -1.7018  -23.9383  -52.1729 H         1 UNK         0.0600 
    215 H215       -3.9993  -26.7740  -49.5643 H         1 UNK         0.3000 
    216 H216       -5.4672  -28.2637  -50.2901 H         1 UNK         0.0600 
    217 H217       -4.6536  -30.1314  -51.6927 H         1 UNK         0.0600 
    218 H218       -3.2644  -29.1878  -52.2135 H         1 UNK         0.0600 
    219 H219       -3.4212  -29.6771  -50.5269 H         1 UNK         0.0600 
    220 H220       -6.0449  -25.8780  -51.1951 H         1 UNK         0.3000 
    221 H221       -7.2442  -24.6385  -52.5257 H         1 UNK         0.0600 
    222 H222       -8.0843  -27.1875  -53.9937 H         1 UNK         0.0600 
    223 H223       -8.7928  -26.6038  -52.4876 H         1 UNK         0.0600 
    224 H224       -8.9537  -25.6611  -53.9583 H         1 UNK         0.0600 
    225 H225       -4.3999  -25.4639  -53.5082 H         1 UNK         0.3000 
    226 H226       -4.5167  -24.8632  -56.3725 H         1 UNK         0.0600 
    227 H227       -2.7797  -26.3901  -55.3809 H         1 UNK         0.0600 
    228 H228       -2.0711  -25.0337  -56.2458 H         1 UNK         0.0600 
    229 H229       -2.1076  -25.0245  -54.4898 H         1 UNK         0.0600 
    230 H230       -4.2540  -23.0608  -53.3963 H         1 UNK         0.3000 
    231 H231       -3.9837  -20.9700  -52.7968 H         1 UNK         0.0600 
    232 H232       -4.7296  -19.1246  -54.2376 H         1 UNK         0.0600 
    233 H233       -5.8260  -20.4842  -54.4192 H         1 UNK         0.0600 
    234 H234       -4.6332  -20.1373  -55.6709 H         1 UNK         0.0600 
    235 H235       -1.7004  -22.4563  -53.4962 H         1 UNK         0.3000 
    236 H236        0.2145  -20.8257  -54.9301 H         1 UNK         0.0600 
    237 H237        0.1943  -23.3112  -55.0571 H         1 UNK         0.0600 
    238 H238        1.7336  -22.7124  -54.4624 H         1 UNK         0.0600 
    239 H239        0.5782  -23.4149  -53.3395 H         1 UNK         0.0600 
    240 H240       -0.5415  -19.0622  -53.1828 H         1 UNK         0.3000 
    241 H241        1.1776  -18.9911  -50.8117 H         1 UNK         0.0600 
    242 H242        3.2370  -17.2445  -53.7684 H         1 UNK         0.3800 
    243 H243        1.9097  -18.3273  -54.0932 H         1 UNK         0.3800 
    244 H244       -0.9565  -18.0531  -50.4662 H         1 UNK         0.0800 
    245 H245        0.1467  -16.7198  -50.4433 H         1 UNK         0.0800 
    246 H246       -3.6423  -16.7586  -52.7108 H         1 UNK         0.0800 
    247 H247       -3.0404  -18.1641  -51.8694 H         1 UNK         0.0800 
@<TRIPOS>BOND
     1    1    2 1    
     2    1  127 1    
     3    1  128 1    
     4    1  129 1    
     5    2    3 2    
     6    2    4 am   BACKBONE|DICT|INTERRES
     7    4    5 1    
     8    4  130 1    
     9    5    6 1    
    10    5   65 1    
    11    5  131 1    
    12    6    7 1    
    13    6  132 1    
    14    6  133 1    
    15    7    8 1    
    16    8    9 1    
    17    8  134 1    
    18    8  135 1    
    19    9   10 ar   
    20    9   14 ar   
    21   10   11 ar   
    22   10  136 1    
    23   11   12 ar   
    24   11  126 1    
    25   12   13 ar   
    26   12  137 1    
    27   13   14 ar   
    28   13   15 1    
    29   14  138 1    
    30   15   16 1    
    31   15  139 1    
    32   15  140 1    
    33   16   17 1    
    34   17   18 1    
    35   17  141 1    
    36   17  142 1    
    37   18   19 1    
    38   18   67 1    
    39   18  143 1    
    40   19   20 am   BACKBONE|DICT|INTERRES
    41   19  144 1    
    42   20   21 2    
    43   20   22 1    
    44   22   23 1    
    45   22   24 1    
    46   22  145 1    
    47   23  146 1    
    48   23  147 1    
    49   23  148 1    
    50   24   25 am   BACKBONE|DICT|INTERRES
    51   24  149 1    
    52   25   26 2    
    53   25   27 1    
    54   27   28 1    
    55   27   29 1    
    56   27  150 1    
    57   28  151 1    
    58   28  152 1    
    59   28  153 1    
    60   29   30 am   BACKBONE|DICT|INTERRES
    61   29  154 1    
    62   30   31 2    
    63   30   32 1    
    64   32   33 1    
    65   32   34 1    
    66   32  155 1    
    67   33  156 1    
    68   33  157 1    
    69   33  158 1    
    70   34   35 am   BACKBONE|DICT|INTERRES
    71   34  159 1    
    72   35   36 2    
    73   35   37 1    
    74   37   38 1    
    75   37   39 1    
    76   37  160 1    
    77   38  161 1    
    78   38  162 1    
    79   38  163 1    
    80   39   40 am   BACKBONE|DICT|INTERRES
    81   39  164 1    
    82   40   41 2    
    83   40   42 1    
    84   42   43 1    
    85   42   44 1    
    86   42  165 1    
    87   43  166 1    
    88   43  167 1    
    89   43  168 1    
    90   44   45 am   BACKBONE|DICT|INTERRES
    91   44  169 1    
    92   45   46 2    
    93   45   47 1    
    94   47   48 1    
    95   47   49 1    
    96   47  170 1    
    97   48  171 1    
    98   48  172 1    
    99   48  173 1    
   100   49   50 am   BACKBONE|DICT|INTERRES
   101   49  174 1    
   102   50   51 2    
   103   50   52 1    
   104   52   53 1    
   105   52   54 1    
   106   52  175 1    
   107   53  176 1    
   108   53  177 1    
   109   53  178 1    
   110   54   55 am   BACKBONE|DICT|INTERRES
   111   54  179 1    
   112   55   56 2    
   113   55   57 1    
   114   57   58 1    
   115   57   59 1    
   116   57  180 1    
   117   58  181 1    
   118   58  182 1    
   119   58  183 1    
   120   59   60 am   BACKBONE|DICT|INTERRES
   121   59  184 1    
   122   60   61 2    
   123   60   62 1    
   124   62   63 1    
   125   62   64 1    
   126   62  185 1    
   127   63  186 1    
   128   63  187 1    
   129   63  188 1    
   130   64   65 am   BACKBONE|DICT|INTERRES
   131   64  189 1    
   132   65   66 2    
   133   67   68 2    
   134   67   69 am   BACKBONE|DICT|INTERRES
   135   69   70 1    
   136   69  190 1    
   137   70   71 1    
   138   70   72 1    
   139   70  191 1    
   140   71  192 1    
   141   71  193 1    
   142   71  194 1    
   143   72   73 2    
   144   72   74 am   BACKBONE|DICT|INTERRES
   145   74   75 1    
   146   74  195 1    
   147   75   76 1    
   148   75   77 1    
   149   75  196 1    
   150   76  197 1    
   151   76  198 1    
   152   76  199 1    
   153   77   78 2    
   154   77   79 am   BACKBONE|DICT|INTERRES
   155   79   80 1    
   156   79  200 1    
   157   80   81 1    
   158   80   82 1    
   159   80  201 1    
   160   81  202 1    
   161   81  203 1    
   162   81  204 1    
   163   82   83 2    
   164   82   84 am   BACKBONE|DICT|INTERRES
   165   84   85 1    
   166   84  205 1    
   167   85   86 1    
   168   85   87 1    
   169   85  206 1    
   170   86  207 1    
   171   86  208 1    
   172   86  209 1    
   173   87   88 2    
   174   87   89 am   BACKBONE|DICT|INTERRES
   175   89   90 1    
   176   89  210 1    
   177   90   91 1    
   178   90   92 1    
   179   90  211 1    
   180   91  212 1    
   181   91  213 1    
   182   91  214 1    
   183   92   93 2    
   184   92   94 am   BACKBONE|DICT|INTERRES
   185   94   95 1    
   186   94  215 1    
   187   95   96 1    
   188   95   97 1    
   189   95  216 1    
   190   96  217 1    
   191   96  218 1    
   192   96  219 1    
   193   97   98 2    
   194   97   99 am   BACKBONE|DICT|INTERRES
   195   99  100 1    
   196   99  220 1    
   197  100  101 1    
   198  100  102 1    
   199  100  221 1    
   200  101  222 1    
   201  101  223 1    
   202  101  224 1    
   203  102  103 2    
   204  102  104 am   BACKBONE|DICT|INTERRES
   205  104  105 1    
   206  104  225 1    
   207  105  106 1    
   208  105  107 1    
   209  105  226 1    
   210  106  227 1    
   211  106  228 1    
   212  106  229 1    
   213  107  108 2    
   214  107  109 am   BACKBONE|DICT|INTERRES
   215  109  110 1    
   216  109  230 1    
   217  110  111 1    
   218  110  112 1    
   219  110  231 1    
   220  111  232 1    
   221  111  233 1    
   222  111  234 1    
   223  112  113 2    
   224  112  114 am   BACKBONE|DICT|INTERRES
   225  114  115 1    
   226  114  235 1    
   227  115  116 1    
   228  115  117 1    
   229  115  236 1    
   230  116  237 1    
   231  116  238 1    
   232  116  239 1    
   233  117  118 2    
   234  117  119 am   BACKBONE|DICT|INTERRES
   235  119  120 1    
   236  119  240 1    
   237  120  121 1    
   238  120  124 1    
   239  120  241 1    
   240  121  122 am   BACKBONE|DICT|INTERRES
   241  121  123 2    
   242  122  242 1    
   243  122  243 1    
   244  124  125 1    
   245  124  244 1    
   246  124  245 1    
   247  125  126 1    
   248  126  246 1    
   249  126  247 1    
@<TRIPOS>SUBSTRUCTURE
     1 UNK         1 GROUP             0       ****    0 ROOT    
