@<TRIPOS>MOLECULE
3R540
247   249    1
SMALL
USER_CHARGES


@<TRIPOS>ATOM
      1 CA          3.2222  -14.0199  -46.4754 C.3       0 UNK        -0.1800 
      2 C           2.0544  -14.0659  -47.4483 C.2       0 UNK         0.5000 
      3 O           1.0796  -14.7690  -47.1935 O.2       0 UNK        -0.5000 
      4 N           2.1383  -13.3146  -48.5538 N.am      1 UNK        -0.5000 
      5 CA          1.0661  -13.2147  -49.5554 C.3       1 UNK         0.1400 
      6 C6          1.5769  -12.7417  -50.9416 C.3       23 UNK        -0.0398 
      7 S7          2.9822  -13.7227  -51.5773 S.3       23 UNK        -0.2404 
      8 C8          2.1425  -15.0100  -52.5584 C.3       23 UNK        -0.0205 
      9 C9          1.2573  -15.8960  -51.6944 C.ar      23 UNK        -0.0193 
     10 C10        -0.1292  -15.8934  -51.8681 C.ar      23 UNK        -0.1150 
     11 C11        -0.9445  -16.6717  -51.0430 C.ar      23 UNK        -0.0193 
     12 C12        -0.3671  -17.4401  -50.0302 C.ar      23 UNK        -0.1150 
     13 C13         1.0224  -17.4717  -49.8548 C.ar      23 UNK        -0.0193 
     14 C14         1.8243  -16.6987  -50.6995 C.ar      23 UNK        -0.1150 
     15 C15         1.7051  -18.2929  -48.7586 C.3       23 UNK        -0.0205 
     16 S16         0.6659  -19.5407  -47.9236 S.3       23 UNK        -0.2404 
     17 C17         0.3513  -20.7277  -49.2802 C.3       23 UNK        -0.0398 
     18 CA         -0.3260  -22.0386  -48.8120 C.3       11 UNK         0.1400 
     19 N           0.4629  -22.7155  -47.7790 N.am      11 UNK        -0.5000 
     20 C           0.1869  -23.9025  -47.2248 C.2       10 UNK         0.5000 
     21 O          -0.7616  -24.6136  -47.5584 O.2       10 UNK        -0.5000 
     22 CA          1.0822  -24.3399  -46.0505 C.3       10 UNK         0.1400 
     23 CB          2.2235  -25.2334  -46.5559 C.3       10 UNK        -0.1800 
     24 N           1.6433  -23.2359  -45.2585 N.am      10 UNK        -0.5000 
     25 C           0.9333  -22.2779  -44.6457 C.2       9 UNK         0.5000 
     26 O          -0.2861  -22.1430  -44.7724 O.2       9 UNK        -0.5000 
     27 CA          1.7114  -21.2874  -43.7661 C.3       9 UNK         0.1400 
     28 CB          1.9559  -19.9741  -44.5212 C.3       9 UNK        -0.1800 
     29 N           0.9620  -21.0114  -42.5415 N.am      9 UNK        -0.5000 
     30 C           0.8777  -21.8617  -41.5077 C.2       8 UNK         0.5000 
     31 O           1.5062  -22.9208  -41.4584 O.2       8 UNK        -0.5000 
     32 CA         -0.0806  -21.4962  -40.3507 C.3       8 UNK         0.1400 
     33 CB          0.4272  -21.9904  -38.9794 C.3       8 UNK        -0.1800 
     34 N          -0.4487  -20.0769  -40.2946 N.am      8 UNK        -0.5000 
     35 C           0.3581  -19.0330  -40.0588 C.2       7 UNK         0.5000 
     36 O           1.5641  -19.1201  -39.8200 O.2       7 UNK        -0.5000 
     37 CA         -0.3079  -17.6467  -40.1391 C.3       7 UNK         0.1400 
     38 CB         -0.0561  -16.8340  -38.8595 C.3       7 UNK        -0.1800 
     39 N           0.1533  -16.8846  -41.2997 N.am      7 UNK        -0.5000 
     40 C           0.0292  -17.2694  -42.5806 C.2       6 UNK         0.5000 
     41 O          -0.5104  -18.3228  -42.9232 O.2       6 UNK        -0.5000 
     42 CA          0.5679  -16.3163  -43.6687 C.3       6 UNK         0.1400 
     43 CB         -0.6011  -15.5098  -44.2546 C.3       6 UNK        -0.1800 
     44 N           1.5889  -15.3853  -43.1826 N.am      6 UNK        -0.5000 
     45 C           2.8065  -15.7358  -42.7384 C.2       5 UNK         0.5000 
     46 O           3.2498  -16.8812  -42.8147 O.2       5 UNK        -0.5000 
     47 CA          3.6708  -14.6449  -42.0649 C.3       5 UNK         0.1400 
     48 CB          4.8773  -14.2741  -42.9419 C.3       5 UNK        -0.1800 
     49 N           2.9439  -13.4203  -41.7199 N.am      5 UNK        -0.5000 
     50 C           1.9233  -13.3318  -40.8548 C.2       4 UNK         0.5000 
     51 O           1.5144  -14.2821  -40.1881 O.2       4 UNK        -0.5000 
     52 CA          1.1991  -11.9731  -40.7616 C.3       4 UNK         0.1400 
     53 CB          1.6676  -11.2020  -39.5184 C.3       4 UNK        -0.1800 
     54 N           1.3547  -11.1142  -41.9432 N.am      4 UNK        -0.5000 
     55 C           0.9769  -11.4241  -43.1913 C.2       3 UNK         0.5000 
     56 O           0.4886  -12.5109  -43.5122 O.2       3 UNK        -0.5000 
     57 CA          1.2348  -10.3547  -44.2606 C.3       3 UNK         0.1400 
     58 CB          2.7345  -10.2616  -44.5972 C.3       3 UNK        -0.1800 
     59 N           0.4893  -10.6882  -45.4702 N.am      3 UNK        -0.5000 
     60 C          -0.0032   -9.8032  -46.3438 C.2       2 UNK         0.5000 
     61 O           0.1177   -8.5831  -46.2183 O.2       2 UNK        -0.5000 
     62 CA         -0.6888  -10.3943  -47.5872 C.3       2 UNK         0.1400 
     63 CB         -1.1268   -9.3226  -48.6077 C.3       2 UNK        -0.1800 
     64 N           0.2312  -11.3447  -48.2053 N.am      2 UNK        -0.5000 
     65 C          -0.0902  -12.3143  -49.0703 C.2       1 UNK         0.5000 
     66 O          -1.2341  -12.5160  -49.4795 O.2       1 UNK        -0.5000 
     67 C          -1.8026  -21.8064  -48.4070 C.2       11 UNK         0.5000 
     68 O          -2.6826  -21.8642  -49.2671 O.2       11 UNK        -0.5000 
     69 N          -2.0447  -21.5825  -47.1090 N.am      12 UNK        -0.5000 
     70 CA         -3.3663  -21.3831  -46.5231 C.3       12 UNK         0.1400 
     71 CB         -3.3341  -20.1158  -45.6545 C.3       12 UNK        -0.1800 
     72 C          -3.7954  -22.5970  -45.6827 C.2       12 UNK         0.5000 
     73 O          -4.9696  -22.9625  -45.7092 O.2       12 UNK        -0.5000 
     74 N          -2.8528  -23.1984  -44.9454 N.am      13 UNK        -0.5000 
     75 CA         -3.1171  -24.2729  -43.9890 C.3       13 UNK         0.1400 
     76 CB         -1.9387  -24.3753  -43.0083 C.3       13 UNK        -0.1800 
     77 C          -3.3969  -25.6396  -44.6388 C.2       13 UNK         0.5000 
     78 O          -4.1454  -26.4270  -44.0579 O.2       13 UNK        -0.5000 
     79 N          -2.7928  -25.9078  -45.8045 N.am      14 UNK        -0.5000 
     80 CA         -2.9077  -27.1833  -46.5141 C.3       14 UNK         0.1400 
     81 CB         -1.5291  -27.8632  -46.5762 C.3       14 UNK        -0.1800 
     82 C          -3.4902  -26.9869  -47.9199 C.2       14 UNK         0.5000 
     83 O          -4.4376  -27.6831  -48.2860 O.2       14 UNK        -0.5000 
     84 N          -2.9233  -26.0430  -48.6828 N.am      15 UNK        -0.5000 
     85 CA         -3.3077  -25.7634  -50.0686 C.3       15 UNK         0.1400 
     86 CB         -2.1230  -25.0978  -50.7785 C.3       15 UNK        -0.1800 
     87 C          -4.5835  -24.9066  -50.1971 C.2       15 UNK         0.5000 
     88 O          -5.1663  -24.8572  -51.2828 O.2       15 UNK        -0.5000 
     89 N          -4.9903  -24.2578  -49.0941 N.am      16 UNK        -0.5000 
     90 CA         -6.2326  -23.4971  -48.9119 C.3       16 UNK         0.1400 
     91 CB         -7.4293  -24.4680  -48.8401 C.3       16 UNK        -0.1800 
     92 C          -6.4428  -22.3717  -49.9457 C.2       16 UNK         0.5000 
     93 O          -7.5742  -22.1399  -50.3747 O.2       16 UNK        -0.5000 
     94 N          -5.3448  -21.7248  -50.3653 N.am      17 UNK        -0.5000 
     95 CA         -5.2200  -20.6887  -51.4010 C.3       17 UNK         0.1400 
     96 CB         -6.0355  -19.4332  -51.0403 C.3       17 UNK        -0.1800 
     97 C          -5.5308  -21.1583  -52.8403 C.2       17 UNK         0.5000 
     98 O          -4.9209  -20.6556  -53.7860 O.2       17 UNK        -0.5000 
     99 N          -6.4573  -22.1107  -52.9923 N.am      18 UNK        -0.5000 
    100 CA        -6.9044  -22.6909  -54.2543 C.3       18 UNK         0.1400 
    101 CB        -8.1318  -23.5787  -53.9969 C.3       18 UNK        -0.1800 
    102 C         -5.7945  -23.4770  -54.9681 C.2       18 UNK         0.5000 
    103 O         -5.5003  -23.1879  -56.1281 O.2       18 UNK        -0.5000 
    104 N         -5.1649  -24.4251  -54.2580 N.am      19 UNK        -0.5000 
    105 CA        -4.0698  -25.2398  -54.7969 C.3       19 UNK         0.1400 
    106 CB        -3.9580  -26.5525  -54.0079 C.3       19 UNK        -0.1800 
    107 C         -2.7283  -24.4816  -54.8342 C.2       19 UNK         0.5000 
    108 O         -1.8292  -24.8779  -55.5759 O.2       19 UNK        -0.5000 
    109 N         -2.6309  -23.3846  -54.0689 N.am      20 UNK        -0.5000 
    110 CA        -1.5274  -22.4227  -54.1222 C.3       20 UNK         0.1400 
    111 CB        -1.4792  -21.6430  -52.7988 C.3       20 UNK        -0.1800 
    112 C         -1.6449  -21.4558  -55.3207 C.2       20 UNK         0.5000 
    113 O         -0.6799  -20.7514  -55.6182 O.2       20 UNK        -0.5000 
    114 N         -2.8150  -21.4443  -55.9799 N.am      21 UNK        -0.5000 
    115 CA        -3.1942  -20.6251  -57.1327 C.3       21 UNK         0.1400 
    116 CB        -2.3422  -20.9851  -58.3681 C.3       21 UNK        -0.1800 
    117 C         -3.2158  -19.1138  -56.8240 C.2       21 UNK         0.5000 
    118 O         -2.8874  -18.3055  -57.6953 O.2       21 UNK        -0.5000 
    119 N         -3.6148  -18.7608  -55.5961 N.am      22 UNK        -0.5000 
    120 CA        -3.7501  -17.3760  -55.1173 C.3       22 UNK         0.1400 
    121 C         -5.1972  -17.0005  -54.6837 C.2       22 UNK         0.5000 
    122 N         -6.1387  -17.9352  -54.6209 N.am      22 UNK        -0.7600 
    123 O         -5.4783  -15.8326  -54.4286 O.2       22 UNK        -0.5000 
    124 C124       -2.6899  -17.0422  -54.0368 C.3       23 UNK        -0.0398 
    125 S125       -2.9097  -17.9597  -52.4716 S.3       23 UNK        -0.2404 
    126 C126       -2.4501  -16.7002  -51.2432 C.3       23 UNK        -0.0205 
    127 H127        3.6564  -15.0131  -46.3605 H         1 UNK         0.0600 
    128 H128        4.0047  -13.3378  -46.8081 H         1 UNK         0.0600 
    129 H129        2.8684  -13.6869  -45.5000 H         1 UNK         0.0600 
    130 H130        2.9782  -12.7876  -48.7462 H         1 UNK         0.3000 
    131 H131        0.6370  -14.2091  -49.6796 H         1 UNK         0.0600 
    132 H132        1.9023  -11.7012  -50.8899 H         1 UNK         0.0800 
    133 H133        0.7686  -12.7680  -51.6748 H         1 UNK         0.0800 
    134 H134        2.8952  -15.6295  -53.0479 H         1 UNK         0.0800 
    135 H135        1.5671  -14.5378  -53.3562 H         1 UNK         0.0800 
    136 H136       -0.5755  -15.2830  -52.6402 H         1 UNK         0.1150 
    137 H137       -1.0155  -18.0173  -49.3882 H         1 UNK         0.1150 
    138 H138        2.8970  -16.6961  -50.5645 H         1 UNK         0.1150 
    139 H139        2.5828  -18.7930  -49.1707 H         1 UNK         0.0800 
    140 H140        2.0720  -17.6002  -47.9997 H         1 UNK         0.0800 
    141 H141       -0.2475  -20.2477  -50.0559 H         1 UNK         0.0800 
    142 H142        1.3057  -20.9648  -49.7521 H         1 UNK         0.0800 
    143 H143       -0.3363  -22.7081  -49.6717 H         1 UNK         0.0600 
    144 H144        1.2435  -22.1919  -47.4112 H         1 UNK         0.3000 
    145 H145        0.4597  -24.9366  -45.3817 H         1 UNK         0.0600 
    146 H146        2.7999  -25.6448  -45.7271 H         1 UNK         0.0600 
    147 H147        1.8355  -26.0771  -47.1289 H         1 UNK         0.0600 
    148 H148        2.9084  -24.6839  -47.2029 H         1 UNK         0.0600 
    149 H149        2.6424  -23.2622  -45.1132 H         1 UNK         0.3000 
    150 H150        2.6787  -21.7189  -43.5005 H         1 UNK         0.0600 
    151 H151        2.5624  -20.1413  -45.4119 H         1 UNK         0.0600 
    152 H152        2.4853  -19.2542  -43.8977 H         1 UNK         0.0600 
    153 H153        1.0204  -19.5152  -44.8432 H         1 UNK         0.0600 
    154 H154        0.3853  -20.1771  -42.5443 H         1 UNK         0.3000 
    155 H155       -1.0077  -22.0308  -40.5608 H         1 UNK         0.0600 
    156 H156       -0.2693  -21.7291  -38.1827 H         1 UNK         0.0600 
    157 H157        1.3995  -21.5655  -38.7290 H         1 UNK         0.0600 
    158 H158        0.5348  -23.0757  -38.9692 H         1 UNK         0.0600 
    159 H159       -1.4135  -19.8799  -40.5230 H         1 UNK         0.3000 
    160 H160       -1.3871  -17.7778  -40.2414 H         1 UNK         0.0600 
    161 H161        1.0054  -16.6276  -38.7159 H         1 UNK         0.0600 
    162 H162       -0.4083  -17.3727  -37.9790 H         1 UNK         0.0600 
    163 H163       -0.5806  -15.8787  -38.8887 H         1 UNK         0.0600 
    164 H164        0.6313  -16.0141  -41.0980 H         1 UNK         0.3000 
    165 H165        1.0091  -16.9205  -44.4640 H         1 UNK         0.0600 
    166 H166       -1.1190  -14.9367  -43.4843 H         1 UNK         0.0600 
    167 H167       -0.2624  -14.8059  -45.0125 H         1 UNK         0.0600 
    168 H168       -1.3327  -16.1681  -44.7250 H         1 UNK         0.0600 
    169 H169        1.3070  -14.4134  -43.1188 H         1 UNK         0.3000 
    170 H170        4.0486  -15.0754  -41.1354 H         1 UNK         0.0600 
    171 H171        5.4427  -15.1615  -43.2299 H         1 UNK         0.0600 
    172 H172        4.5727  -13.7673  -43.8568 H         1 UNK         0.0600 
    173 H173        5.5625  -13.6152  -42.4082 H         1 UNK         0.0600 
    174 H174        3.2050  -12.5864  -42.2239 H         1 UNK         0.3000 
    175 H175        0.1340  -12.1864  -40.6502 H         1 UNK         0.0600 
    176 H176        2.7222  -10.9320  -39.5868 H         1 UNK         0.0600 
    177 H177        1.0932  -10.2856  -39.3817 H         1 UNK         0.0600 
    178 H178        1.5399  -11.8006  -38.6153 H         1 UNK         0.0600 
    179 H179        1.7615  -10.2052  -41.7747 H         1 UNK         0.3000 
    180 H180        0.8877   -9.3978  -43.8647 H         1 UNK         0.0600 
    181 H181        3.1195  -11.2059  -44.9834 H         1 UNK         0.0600 
    182 H182        3.3237  -10.0007  -43.7174 H         1 UNK         0.0600 
    183 H183        2.9227   -9.4937  -45.3478 H         1 UNK         0.0600 
    184 H184        0.2930  -11.6752  -45.5825 H         1 UNK         0.3000 
    185 H185       -1.5747  -10.9309  -47.2412 H         1 UNK         0.0600 
    186 H186       -0.2717   -8.7731  -49.0029 H         1 UNK         0.0600 
    187 H187       -1.6573   -9.7658  -49.4503 H         1 UNK         0.0600 
    188 H188       -1.8021   -8.5990  -48.1497 H         1 UNK         0.0600 
    189 H189        1.1941  -11.2691  -47.9074 H         1 UNK         0.3000 
    190 H190       -1.2634  -21.5850  -46.4623 H         1 UNK         0.3000 
    191 H191       -4.1153  -21.2375  -47.3043 H         1 UNK         0.0600 
    192 H192       -4.3047  -19.9323  -45.1920 H         1 UNK         0.0600 
    193 H193       -3.0864  -19.2381  -46.2518 H         1 UNK         0.0600 
    194 H194       -2.5957  -20.1919  -44.8545 H         1 UNK         0.0600 
    195 H195       -1.9089  -22.8157  -44.9411 H         1 UNK         0.3000 
    196 H196       -4.0038  -23.9997  -43.4127 H         1 UNK         0.0600 
    197 H197       -2.1301  -25.1284  -42.2428 H         1 UNK         0.0600 
    198 H198       -1.7706  -23.4278  -42.4973 H         1 UNK         0.0600 
    199 H199       -1.0135  -24.6501  -43.5142 H         1 UNK         0.0600 
    200 H200       -2.2011  -25.2044  -46.2306 H         1 UNK         0.3000 
    201 H201       -3.5817  -27.8609  -45.9860 H         1 UNK         0.0600 
    202 H202       -1.1453  -28.0612  -45.5754 H         1 UNK         0.0600 
    203 H203       -0.7930  -27.2527  -47.0995 H         1 UNK         0.0600 
    204 H204       -1.5898  -28.8201  -47.0961 H         1 UNK         0.0600 
    205 H205       -2.1265  -25.5241  -48.3187 H         1 UNK         0.3000 
    206 H206       -3.5065  -26.7133  -50.5690 H         1 UNK         0.0600 
    207 H207       -1.2279  -25.7175  -50.7256 H         1 UNK         0.0600 
    208 H208       -2.3358  -24.9233  -51.8306 H         1 UNK         0.0600 
    209 H209       -1.8923  -24.1357  -50.3323 H         1 UNK         0.0600 
    210 H210       -4.4157  -24.3554  -48.2702 H         1 UNK         0.3000 
    211 H211       -6.1597  -22.9966  -47.9484 H         1 UNK         0.0600 
    212 H212       -7.5977  -24.9702  -49.7935 H         1 UNK         0.0600 
    213 H213       -8.3484  -23.9429  -48.5776 H         1 UNK         0.0600 
    214 H214       -7.2684  -25.2343  -48.0818 H         1 UNK         0.0600 
    215 H215       -4.4554  -21.9975  -49.9519 H         1 UNK         0.3000 
    216 H216       -4.1686  -20.4048  -51.3871 H         1 UNK         0.0600 
    217 H217       -7.1086  -19.6240  -51.0484 H         1 UNK         0.0600 
    218 H218       -5.8457  -18.6296  -51.7525 H         1 UNK         0.0600 
    219 H219       -5.7656  -19.0598  -50.0526 H         1 UNK         0.0600 
    220 H220       -6.9340  -22.4217  -52.1517 H         1 UNK         0.3000 
    221 H221       -7.2079  -21.8719  -54.9097 H         1 UNK         0.0600 
    222 H222       -7.9074  -24.3865  -53.2988 H         1 UNK         0.0600 
    223 H223       -8.9552  -22.9983  -53.5802 H         1 UNK         0.0600 
    224 H224       -8.4889  -24.0316  -54.9227 H         1 UNK         0.0600 
    225 H225       -5.4174  -24.5798  -53.2857 H         1 UNK         0.3000 
    226 H226       -4.3121  -25.5038  -55.8287 H         1 UNK         0.0600 
    227 H227       -4.8882  -27.1189  -54.0554 H         1 UNK         0.0600 
    228 H228       -3.1703  -27.1873  -54.4154 H         1 UNK         0.0600 
    229 H229       -3.7281  -26.3804  -52.9595 H         1 UNK         0.0600 
    230 H230       -3.4232  -23.1357  -53.4956 H         1 UNK         0.3000 
    231 H231       -0.5881  -22.9694  -54.2286 H         1 UNK         0.0600 
    232 H232       -2.3657  -21.0255  -52.6674 H         1 UNK         0.0600 
    233 H233       -1.4044  -22.3127  -51.9431 H         1 UNK         0.0600 
    234 H234       -0.6155  -20.9776  -52.7683 H         1 UNK         0.0600 
    235 H235       -3.5496  -22.0488  -55.6368 H         1 UNK         0.3000 
    236 H236       -4.2262  -20.8946  -57.3611 H         1 UNK         0.0600 
    237 H237       -2.3600  -22.0582  -58.5590 H         1 UNK         0.0600 
    238 H238       -2.7231  -20.4917  -59.2630 H         1 UNK         0.0600 
    239 H239       -1.3019  -20.6825  -58.2465 H         1 UNK         0.0600 
    240 H240       -3.8786  -19.4847  -54.9334 H         1 UNK         0.3000 
    241 H241       -3.5516  -16.6998  -55.9503 H         1 UNK         0.0600 
    242 H242       -5.9066  -18.9058  -54.7723 H         1 UNK         0.3800 
    243 H243       -7.0755  -17.6757  -54.3569 H         1 UNK         0.3800 
    244 H244       -2.7012  -15.9697  -53.8385 H         1 UNK         0.0800 
    245 H245       -1.6918  -17.2601  -54.4192 H         1 UNK         0.0800 
    246 H246       -2.8205  -15.7172  -51.5372 H         1 UNK         0.0800 
    247 H247       -2.9459  -16.9377  -50.3008 H         1 UNK         0.0800 
@<TRIPOS>BOND
     1    1    2 1    
     2    1  127 1    
     3    1  128 1    
     4    1  129 1    
     5    2    3 2    
     6    2    4 am   BACKBONE|DICT|INTERRES
     7    4    5 1    
     8    4  130 1    
     9    5    6 1    
    10    5   65 1    
    11    5  131 1    
    12    6    7 1    
    13    6  132 1    
    14    6  133 1    
    15    7    8 1    
    16    8    9 1    
    17    8  134 1    
    18    8  135 1    
    19    9   10 ar   
    20    9   14 ar   
    21   10   11 ar   
    22   10  136 1    
    23   11   12 ar   
    24   11  126 1    
    25   12   13 ar   
    26   12  137 1    
    27   13   14 ar   
    28   13   15 1    
    29   14  138 1    
    30   15   16 1    
    31   15  139 1    
    32   15  140 1    
    33   16   17 1    
    34   17   18 1    
    35   17  141 1    
    36   17  142 1    
    37   18   19 1    
    38   18   67 1    
    39   18  143 1    
    40   19   20 am   BACKBONE|DICT|INTERRES
    41   19  144 1    
    42   20   21 2    
    43   20   22 1    
    44   22   23 1    
    45   22   24 1    
    46   22  145 1    
    47   23  146 1    
    48   23  147 1    
    49   23  148 1    
    50   24   25 am   BACKBONE|DICT|INTERRES
    51   24  149 1    
    52   25   26 2    
    53   25   27 1    
    54   27   28 1    
    55   27   29 1    
    56   27  150 1    
    57   28  151 1    
    58   28  152 1    
    59   28  153 1    
    60   29   30 am   BACKBONE|DICT|INTERRES
    61   29  154 1    
    62   30   31 2    
    63   30   32 1    
    64   32   33 1    
    65   32   34 1    
    66   32  155 1    
    67   33  156 1    
    68   33  157 1    
    69   33  158 1    
    70   34   35 am   BACKBONE|DICT|INTERRES
    71   34  159 1    
    72   35   36 2    
    73   35   37 1    
    74   37   38 1    
    75   37   39 1    
    76   37  160 1    
    77   38  161 1    
    78   38  162 1    
    79   38  163 1    
    80   39   40 am   BACKBONE|DICT|INTERRES
    81   39  164 1    
    82   40   41 2    
    83   40   42 1    
    84   42   43 1    
    85   42   44 1    
    86   42  165 1    
    87   43  166 1    
    88   43  167 1    
    89   43  168 1    
    90   44   45 am   BACKBONE|DICT|INTERRES
    91   44  169 1    
    92   45   46 2    
    93   45   47 1    
    94   47   48 1    
    95   47   49 1    
    96   47  170 1    
    97   48  171 1    
    98   48  172 1    
    99   48  173 1    
   100   49   50 am   BACKBONE|DICT|INTERRES
   101   49  174 1    
   102   50   51 2    
   103   50   52 1    
   104   52   53 1    
   105   52   54 1    
   106   52  175 1    
   107   53  176 1    
   108   53  177 1    
   109   53  178 1    
   110   54   55 am   BACKBONE|DICT|INTERRES
   111   54  179 1    
   112   55   56 2    
   113   55   57 1    
   114   57   58 1    
   115   57   59 1    
   116   57  180 1    
   117   58  181 1    
   118   58  182 1    
   119   58  183 1    
   120   59   60 am   BACKBONE|DICT|INTERRES
   121   59  184 1    
   122   60   61 2    
   123   60   62 1    
   124   62   63 1    
   125   62   64 1    
   126   62  185 1    
   127   63  186 1    
   128   63  187 1    
   129   63  188 1    
   130   64   65 am   BACKBONE|DICT|INTERRES
   131   64  189 1    
   132   65   66 2    
   133   67   68 2    
   134   67   69 am   BACKBONE|DICT|INTERRES
   135   69   70 1    
   136   69  190 1    
   137   70   71 1    
   138   70   72 1    
   139   70  191 1    
   140   71  192 1    
   141   71  193 1    
   142   71  194 1    
   143   72   73 2    
   144   72   74 am   BACKBONE|DICT|INTERRES
   145   74   75 1    
   146   74  195 1    
   147   75   76 1    
   148   75   77 1    
   149   75  196 1    
   150   76  197 1    
   151   76  198 1    
   152   76  199 1    
   153   77   78 2    
   154   77   79 am   BACKBONE|DICT|INTERRES
   155   79   80 1    
   156   79  200 1    
   157   80   81 1    
   158   80   82 1    
   159   80  201 1    
   160   81  202 1    
   161   81  203 1    
   162   81  204 1    
   163   82   83 2    
   164   82   84 am   BACKBONE|DICT|INTERRES
   165   84   85 1    
   166   84  205 1    
   167   85   86 1    
   168   85   87 1    
   169   85  206 1    
   170   86  207 1    
   171   86  208 1    
   172   86  209 1    
   173   87   88 2    
   174   87   89 am   BACKBONE|DICT|INTERRES
   175   89   90 1    
   176   89  210 1    
   177   90   91 1    
   178   90   92 1    
   179   90  211 1    
   180   91  212 1    
   181   91  213 1    
   182   91  214 1    
   183   92   93 2    
   184   92   94 am   BACKBONE|DICT|INTERRES
   185   94   95 1    
   186   94  215 1    
   187   95   96 1    
   188   95   97 1    
   189   95  216 1    
   190   96  217 1    
   191   96  218 1    
   192   96  219 1    
   193   97   98 2    
   194   97   99 am   BACKBONE|DICT|INTERRES
   195   99  100 1    
   196   99  220 1    
   197  100  101 1    
   198  100  102 1    
   199  100  221 1    
   200  101  222 1    
   201  101  223 1    
   202  101  224 1    
   203  102  103 2    
   204  102  104 am   BACKBONE|DICT|INTERRES
   205  104  105 1    
   206  104  225 1    
   207  105  106 1    
   208  105  107 1    
   209  105  226 1    
   210  106  227 1    
   211  106  228 1    
   212  106  229 1    
   213  107  108 2    
   214  107  109 am   BACKBONE|DICT|INTERRES
   215  109  110 1    
   216  109  230 1    
   217  110  111 1    
   218  110  112 1    
   219  110  231 1    
   220  111  232 1    
   221  111  233 1    
   222  111  234 1    
   223  112  113 2    
   224  112  114 am   BACKBONE|DICT|INTERRES
   225  114  115 1    
   226  114  235 1    
   227  115  116 1    
   228  115  117 1    
   229  115  236 1    
   230  116  237 1    
   231  116  238 1    
   232  116  239 1    
   233  117  118 2    
   234  117  119 am   BACKBONE|DICT|INTERRES
   235  119  120 1    
   236  119  240 1    
   237  120  121 1    
   238  120  124 1    
   239  120  241 1    
   240  121  122 am   BACKBONE|DICT|INTERRES
   241  121  123 2    
   242  122  242 1    
   243  122  243 1    
   244  124  125 1    
   245  124  244 1    
   246  124  245 1    
   247  125  126 1    
   248  126  246 1    
   249  126  247 1    
@<TRIPOS>SUBSTRUCTURE
     1 UNK         1 GROUP             0       ****    0 ROOT    
