@<TRIPOS>MOLECULE
3R540
247   249    1
SMALL
USER_CHARGES


@<TRIPOS>ATOM
      1 CA          2.0366  -16.8336  -48.2367 C.3       0 UNK        -0.1800 
      2 C           2.4236  -15.3741  -48.4694 C.2       0 UNK         0.5000 
      3 O           3.3083  -15.1156  -49.2827 O.2       0 UNK        -0.5000 
      4 N           1.8209  -14.3893  -47.7927 N.am      1 UNK        -0.5000 
      5 CA          0.7688  -14.4693  -46.7786 C.3       1 UNK         0.1400 
      6 C6         -0.5854  -15.0401  -47.3028 C.3       23 UNK        -0.0398 
      7 S7         -1.3496  -14.0601  -48.6398 S.3       23 UNK        -0.2404 
      8 C8         -2.3849  -15.3181  -49.4532 C.3       23 UNK        -0.0205 
      9 C9         -1.5675  -16.3129  -50.2654 C.ar      23 UNK        -0.0193 
     10 C10        -0.7925  -15.8657  -51.3393 C.ar      23 UNK        -0.1150 
     11 C11        -0.0738  -16.7698  -52.1246 C.ar      23 UNK        -0.0193 
     12 C12        -0.1316  -18.1329  -51.8283 C.ar      23 UNK        -0.1150 
     13 C13        -0.9108  -18.5951  -50.7642 C.ar      23 UNK        -0.0193 
     14 C14        -1.6196  -17.6811  -49.9778 C.ar      23 UNK        -0.1150 
     15 C15        -1.0268  -20.0885  -50.5153 C.3       23 UNK        -0.0205 
     16 S16         0.4591  -20.7747  -49.7330 S.3       23 UNK        -0.2404 
     17 C17         0.0968  -20.5252  -47.9661 C.3       23 UNK        -0.0398 
     18 CA         -0.1072  -21.8669  -47.2101 C.3       11 UNK         0.1400 
     19 N           0.5502  -21.8598  -45.8991 N.am      11 UNK        -0.5000 
     20 C           0.7715  -22.9477  -45.1490 C.2       10 UNK         0.5000 
     21 O           0.4261  -24.0824  -45.4763 O.2       10 UNK        -0.5000 
     22 CA          1.4626  -22.7303  -43.7903 C.3       10 UNK         0.1400 
     23 CB          2.9741  -22.5250  -43.9692 C.3       10 UNK        -0.1800 
     24 N           0.8973  -21.6106  -43.0364 N.am      10 UNK        -0.5000 
     25 C          -0.3621  -21.5706  -42.5782 C.2       9 UNK         0.5000 
     26 O          -1.1745  -22.4814  -42.7306 O.2       9 UNK        -0.5000 
     27 CA         -0.8084  -20.2786  -41.8729 C.3       9 UNK         0.1400 
     28 CB         -0.2744  -20.2257  -40.4338 C.3       9 UNK        -0.1800 
     29 N          -0.4001  -19.0741  -42.5924 N.am      9 UNK        -0.5000 
     30 C          -0.7757  -18.7647  -43.8417 C.2       8 UNK         0.5000 
     31 O          -1.5345  -19.4487  -44.5279 O.2       8 UNK        -0.5000 
     32 CA         -0.1426  -17.5024  -44.4473 C.3       8 UNK         0.1400 
     33 CB         -0.7794  -16.2405  -43.8393 C.3       8 UNK        -0.1800 
     34 N           1.3108  -17.4708  -44.2677 N.am      8 UNK        -0.5000 
     35 C           2.1617  -18.4142  -44.7009 C.2       7 UNK         0.5000 
     36 O           1.8188  -19.4018  -45.3449 O.2       7 UNK        -0.5000 
     37 CA          3.6380  -18.2579  -44.3102 C.3       7 UNK         0.1400 
     38 CB          4.3545  -17.2811  -45.2543 C.3       7 UNK        -0.1800 
     39 N           3.7774  -17.8213  -42.9227 N.am      7 UNK        -0.5000 
     40 C           3.4798  -18.5874  -41.8625 C.2       6 UNK         0.5000 
     41 O           3.1107  -19.7595  -41.9453 O.2       6 UNK        -0.5000 
     42 CA          3.5636  -17.9099  -40.4828 C.3       6 UNK         0.1400 
     43 CB          5.0091  -17.9079  -39.9638 C.3       6 UNK        -0.1800 
     44 N           3.0520  -16.5383  -40.5079 N.am      6 UNK        -0.5000 
     45 C           1.7671  -16.2194  -40.7177 C.2       5 UNK         0.5000 
     46 O           0.8727  -17.0532  -40.8595 O.2       5 UNK        -0.5000 
     47 CA          1.4343  -14.7203  -40.8346 C.3       5 UNK         0.1400 
     48 CB          1.1458  -14.1195  -39.4515 C.3       5 UNK        -0.1800 
     49 N           2.4773  -13.9312  -41.4962 N.am      5 UNK        -0.5000 
     50 C           2.8867  -14.1036  -42.7595 C.2       4 UNK         0.5000 
     51 O           2.4691  -15.0012  -43.4919 O.2       4 UNK        -0.5000 
     52 CA          3.8871  -13.0652  -43.2975 C.3       4 UNK         0.1400 
     53 CB          4.5712  -13.5142  -44.6005 C.3       4 UNK        -0.1800 
     54 N           3.1747  -11.8150  -43.5387 N.am      4 UNK        -0.5000 
     55 C           2.9295  -10.8858  -42.6044 C.2       3 UNK         0.5000 
     56 O           3.4070  -10.9201  -41.4692 O.2       3 UNK        -0.5000 
     57 CA          1.9485   -9.7585  -42.9801 C.3       3 UNK         0.1400 
     58 CB          2.7078   -8.5432  -43.5329 C.3       3 UNK        -0.1800 
     59 N           0.9372  -10.1764  -43.9535 N.am      3 UNK        -0.5000 
     60 C           0.0052  -11.1177  -43.7462 C.2       2 UNK         0.5000 
     61 O          -0.1463  -11.7103  -42.6771 O.2       2 UNK        -0.5000 
     62 CA         -0.9027  -11.4801  -44.9367 C.3       2 UNK         0.1400 
     63 CB         -1.0010  -10.3744  -46.0123 C.3       2 UNK        -0.1800 
     64 N          -0.5228  -12.7582  -45.5470 N.am      2 UNK        -0.5000 
     65 C           0.6547  -13.0786  -46.1078 C.2       1 UNK         0.5000 
     66 O           1.6282  -12.3184  -46.1247 O.2       1 UNK        -0.5000 
     67 C          -1.5958  -22.2722  -47.1128 C.2       11 UNK         0.5000 
     68 O          -2.0985  -22.9776  -47.9909 O.2       11 UNK        -0.5000 
     69 N          -2.2636  -21.8608  -46.0247 N.am      12 UNK        -0.5000 
     70 CA         -3.6186  -22.2819  -45.6752 C.3       12 UNK         0.1400 
     71 CB         -4.1784  -21.3777  -44.5677 C.3       12 UNK        -0.1800 
     72 C          -3.6846  -23.7637  -45.2661 C.2       12 UNK         0.5000 
     73 O          -4.5514  -24.4825  -45.7622 O.2       12 UNK        -0.5000 
     74 N          -2.7556  -24.2090  -44.4064 N.am      13 UNK        -0.5000 
     75 CA         -2.6434  -25.5966  -43.9402 C.3       13 UNK         0.1400 
     76 CB         -1.5856  -25.6872  -42.8304 C.3       13 UNK        -0.1800 
     77 C          -2.3289  -26.5965  -45.0689 C.2       13 UNK         0.5000 
     78 O          -2.8349  -27.7188  -45.0476 O.2       13 UNK        -0.5000 
     79 N          -1.5373  -26.1556  -46.0552 N.am      14 UNK        -0.5000 
     80 CA         -1.2380  -26.8836  -47.2894 C.3       14 UNK         0.1400 
     81 CB         -0.0261  -26.2202  -47.9645 C.3       14 UNK        -0.1800 
     82 C          -2.4241  -26.9497  -48.2758 C.2       14 UNK         0.5000 
     83 O          -2.3386  -27.6848  -49.2597 O.2       14 UNK        -0.5000 
     84 N          -3.4822  -26.1622  -48.0221 N.am      15 UNK        -0.5000 
     85 CA         -4.6797  -25.9558  -48.8465 C.3       15 UNK         0.1400 
     86 CB         -5.4644  -27.2686  -49.0443 C.3       15 UNK        -0.1800 
     87 C          -4.3974  -25.2280  -50.1773 C.2       15 UNK         0.5000 
     88 O          -5.2696  -25.1783  -51.0452 O.2       15 UNK        -0.5000 
     89 N          -3.2051  -24.6319  -50.3068 N.am      16 UNK        -0.5000 
     90 CA         -2.7740  -23.8652  -51.4731 C.3       16 UNK         0.1400 
     91 CB         -1.2493  -23.7007  -51.4271 C.3       16 UNK        -0.1800 
     92 C          -3.4801  -22.5026  -51.5693 C.2       16 UNK         0.5000 
     93 O          -3.6201  -21.9686  -52.6674 O.2       16 UNK        -0.5000 
     94 N          -3.9558  -21.9759  -50.4328 N.am      17 UNK        -0.5000 
     95 CA         -4.7535  -20.7483  -50.3571 C.3       17 UNK         0.1400 
     96 CB         -4.8760  -20.3284  -48.8840 C.3       17 UNK        -0.1800 
     97 C          -6.1509  -20.8823  -51.0019 C.2       17 UNK         0.5000 
     98 O          -6.7690  -19.8659  -51.3179 O.2       17 UNK        -0.5000 
     99 N          -6.6225  -22.1242  -51.1838 N.am      18 UNK        -0.5000 
    100 CA        -7.8979  -22.4599  -51.8168 C.3       18 UNK         0.1400 
    101 CB        -8.5093  -23.6581  -51.0705 C.3       18 UNK        -0.1800 
    102 C         -7.7581  -22.7644  -53.3237 C.2       18 UNK         0.5000 
    103 O         -8.7672  -23.0635  -53.9651 O.2       18 UNK        -0.5000 
    104 N         -6.5334  -22.7104  -53.8693 N.am      19 UNK        -0.5000 
    105 CA        -6.2449  -22.9510  -55.2847 C.3       19 UNK         0.1400 
    106 CB        -4.7302  -23.1449  -55.4609 C.3       19 UNK        -0.1800 
    107 C         -6.7492  -21.8137  -56.1957 C.2       19 UNK         0.5000 
    108 O         -6.9972  -20.6996  -55.7291 O.2       19 UNK        -0.5000 
    109 N         -6.8575  -22.1152  -57.4966 N.am      20 UNK        -0.5000 
    110 CA        -7.2627  -21.1699  -58.5428 C.3       20 UNK         0.1400 
    111 CB        -7.6695  -21.9630  -59.7949 C.3       20 UNK        -0.1800 
    112 C         -6.1771  -20.1295  -58.8924 C.2       20 UNK         0.5000 
    113 O         -6.5023  -19.0920  -59.4721 O.2       20 UNK        -0.5000 
    114 N         -4.9173  -20.4281  -58.5471 N.am      21 UNK        -0.5000 
    115 CA        -3.7648  -19.5371  -58.6726 C.3       21 UNK         0.1400 
    116 CB        -2.5206  -20.3909  -58.9933 C.3       21 UNK        -0.1800 
    117 C         -3.6218  -18.6743  -57.3982 C.2       21 UNK         0.5000 
    118 O         -4.6188  -18.1362  -56.9126 O.2       21 UNK        -0.5000 
    119 N         -2.3952  -18.5452  -56.8744 N.am      22 UNK        -0.5000 
    120 CA        -2.1097  -17.8873  -55.5869 C.3       22 UNK         0.1400 
    121 C         -2.6487  -18.6976  -54.3713 C.2       22 UNK         0.5000 
    122 N         -2.5319  -20.0210  -54.3929 N.am      22 UNK        -0.7600 
    123 O         -3.2078  -18.1320  -53.4373 O.2       22 UNK        -0.5000 
    124 C124       -0.5961  -17.5570  -55.4451 C.3       23 UNK        -0.0398 
    125 S125       -0.2854  -15.8986  -54.7472 S.3       23 UNK        -0.2404 
    126 C126        0.7527  -16.2673  -53.2965 C.3       23 UNK        -0.0205 
    127 H127        1.2704  -17.1378  -48.9499 H         1 UNK         0.0600 
    128 H128        1.6686  -17.0143  -47.2295 H         1 UNK         0.0600 
    129 H129        2.9016  -17.4798  -48.3849 H         1 UNK         0.0600 
    130 H130        2.1405  -13.4387  -47.9314 H         1 UNK         0.3000 
    131 H131        1.1410  -15.1311  -45.9965 H         1 UNK         0.0600 
    132 H132       -1.3106  -15.1332  -46.4946 H         1 UNK         0.0800 
    133 H133       -0.4499  -16.0587  -47.6597 H         1 UNK         0.0800 
    134 H134       -2.9921  -15.8267  -48.7027 H         1 UNK         0.0800 
    135 H135       -3.0843  -14.8154  -50.1225 H         1 UNK         0.0800 
    136 H136       -0.7594  -14.8107  -51.5725 H         1 UNK         0.1150 
    137 H137        0.4104  -18.8412  -52.4388 H         1 UNK         0.1150 
    138 H138       -2.2335  -18.0372  -49.1627 H         1 UNK         0.1150 
    139 H139       -1.8967  -20.3128  -49.9007 H         1 UNK         0.0800 
    140 H140       -1.1847  -20.5902  -51.4706 H         1 UNK         0.0800 
    141 H141        0.9692  -19.9988  -47.5844 H         1 UNK         0.0800 
    142 H142       -0.7378  -19.8364  -47.8225 H         1 UNK         0.0800 
    143 H143        0.3873  -22.6585  -47.7777 H         1 UNK         0.0600 
    144 H144        0.8975  -20.9605  -45.5706 H         1 UNK         0.3000 
    145 H145        1.3154  -23.6354  -43.1975 H         1 UNK         0.0600 
    146 H146        3.4776  -22.4482  -43.0054 H         1 UNK         0.0600 
    147 H147        3.4211  -23.3637  -44.5044 H         1 UNK         0.0600 
    148 H148        3.1957  -21.6195  -44.5340 H         1 UNK         0.0600 
    149 H149        1.5131  -20.8265  -42.8522 H         1 UNK         0.3000 
    150 H150       -1.8995  -20.2842  -41.8311 H         1 UNK         0.0600 
    151 H151       -0.5768  -21.1101  -39.8716 H         1 UNK         0.0600 
    152 H152       -0.6599  -19.3548  -39.9033 H         1 UNK         0.0600 
    153 H153        0.8145  -20.1753  -40.4088 H         1 UNK         0.0600 
    154 H154        0.2051  -18.4298  -42.0914 H         1 UNK         0.3000 
    155 H155       -0.3375  -17.5088  -45.5211 H         1 UNK         0.0600 
    156 H156       -0.7732  -16.2653  -42.7503 H         1 UNK         0.0600 
    157 H157       -1.8205  -16.1471  -44.1497 H         1 UNK         0.0600 
    158 H158       -0.2620  -15.3326  -44.1416 H         1 UNK         0.0600 
    159 H159        1.6967  -16.6631  -43.7846 H         1 UNK         0.3000 
    160 H160        4.1195  -19.2333  -44.4070 H         1 UNK         0.0600 
    161 H161        3.8542  -16.3144  -45.2985 H         1 UNK         0.0600 
    162 H162        4.3784  -17.6771  -46.2699 H         1 UNK         0.0600 
    163 H163        5.3870  -17.1151  -44.9470 H         1 UNK         0.0600 
    164 H164        4.0144  -16.8522  -42.7724 H         1 UNK         0.3000 
    165 H165        2.9517  -18.4903  -39.7888 H         1 UNK         0.0600 
    166 H166        5.6687  -17.3215  -40.6046 H         1 UNK         0.0600 
    167 H167        5.0653  -17.4952  -38.9564 H         1 UNK         0.0600 
    168 H168        5.4089  -18.9220  -39.9212 H         1 UNK         0.0600 
    169 H169        3.7233  -15.7926  -40.3981 H         1 UNK         0.3000 
    170 H170        0.5281  -14.6312  -41.4369 H         1 UNK         0.0600 
    171 H171        0.3557  -14.6730  -38.9421 H         1 UNK         0.0600 
    172 H172        2.0281  -14.1398  -38.8108 H         1 UNK         0.0600 
    173 H173        0.8139  -13.0842  -39.5348 H         1 UNK         0.0600 
    174 H174        2.8357  -13.1348  -40.9852 H         1 UNK         0.3000 
    175 H175        4.6652  -12.9154  -42.5462 H         1 UNK         0.0600 
    176 H176        5.1543  -14.4210  -44.4385 H         1 UNK         0.0600 
    177 H177        3.8509  -13.7209  -45.3927 H         1 UNK         0.0600 
    178 H178        5.2572  -12.7505  -44.9668 H         1 UNK         0.0600 
    179 H179        2.6920  -11.7460  -44.4289 H         1 UNK         0.3000 
    180 H180        1.4305   -9.4549  -42.0680 H         1 UNK         0.0600 
    181 H181        2.0316   -7.7112  -43.7301 H         1 UNK         0.0600 
    182 H182        3.4544   -8.1918  -42.8194 H         1 UNK         0.0600 
    183 H183        3.2278   -8.7821  -44.4616 H         1 UNK         0.0600 
    184 H184        1.0028   -9.7687  -44.8749 H         1 UNK         0.3000 
    185 H185       -1.9028  -11.6194  -44.5233 H         1 UNK         0.0600 
    186 H186       -1.7455  -10.6342  -46.7650 H         1 UNK         0.0600 
    187 H187       -1.3084   -9.4248  -45.5723 H         1 UNK         0.0600 
    188 H188       -0.0569  -10.2103  -46.5323 H         1 UNK         0.0600 
    189 H189       -1.2622  -13.4444  -45.5685 H         1 UNK         0.3000 
    190 H190       -1.8043  -21.2319  -45.3727 H         1 UNK         0.3000 
    191 H191       -4.2482  -22.1584  -46.5575 H         1 UNK         0.0600 
    192 H192       -5.1927  -21.6728  -44.2966 H         1 UNK         0.0600 
    193 H193       -4.2182  -20.3381  -44.8935 H         1 UNK         0.0600 
    194 H194       -3.5697  -21.4206  -43.6641 H         1 UNK         0.0600 
    195 H195       -2.0973  -23.5465  -44.0037 H         1 UNK         0.3000 
    196 H196       -3.6073  -25.8794  -43.5124 H         1 UNK         0.0600 
    197 H197       -1.4883  -26.7098  -42.4638 H         1 UNK         0.0600 
    198 H198       -1.8538  -25.0620  -41.9788 H         1 UNK         0.0600 
    199 H199       -0.6043  -25.3694  -43.1839 H         1 UNK         0.0600 
    200 H200       -1.0897  -25.2500  -45.9449 H         1 UNK         0.3000 
    201 H201       -0.9695  -27.9095  -47.0294 H         1 UNK         0.0600 
    202 H202       -0.2352  -25.1847  -48.2361 H         1 UNK         0.0600 
    203 H203        0.2567  -26.7484  -48.8759 H         1 UNK         0.0600 
    204 H204        0.8427  -26.2239  -47.3061 H         1 UNK         0.0600 
    205 H205       -3.4592  -25.6045  -47.1762 H         1 UNK         0.3000 
    206 H206       -5.3184  -25.2815  -48.2749 H         1 UNK         0.0600 
    207 H207       -5.6502  -27.7639  -48.0913 H         1 UNK         0.0600 
    208 H208       -6.4349  -27.0769  -49.5037 H         1 UNK         0.0600 
    209 H209       -4.9336  -27.9680  -49.6902 H         1 UNK         0.0600 
    210 H210       -2.5766  -24.6415  -49.5143 H         1 UNK         0.3000 
    211 H211       -3.0290  -24.4282  -52.3733 H         1 UNK         0.0600 
    212 H212       -0.9269  -23.2290  -50.4996 H         1 UNK         0.0600 
    213 H213       -0.8922  -23.0866  -52.2549 H         1 UNK         0.0600 
    214 H214       -0.7490  -24.6665  -51.4982 H         1 UNK         0.0600 
    215 H215       -3.7572  -22.4560  -49.5646 H         1 UNK         0.3000 
    216 H216       -4.2192  -19.9624  -50.8961 H         1 UNK         0.0600 
    217 H217       -5.3882  -19.3696  -48.7946 H         1 UNK         0.0600 
    218 H218       -3.8977  -20.2172  -48.4159 H         1 UNK         0.0600 
    219 H219       -5.4458  -21.0578  -48.3078 H         1 UNK         0.0600 
    220 H220       -6.0410  -22.9078  -50.9192 H         1 UNK         0.3000 
    221 H221       -8.5887  -21.6197  -51.7219 H         1 UNK         0.0600 
    222 H222       -7.8947  -24.5530  -51.1717 H         1 UNK         0.0600 
    223 H223       -8.6210  -23.4459  -50.0070 H         1 UNK         0.0600 
    224 H224       -9.5005  -23.8972  -51.4575 H         1 UNK         0.0600 
    225 H225       -5.7549  -22.4109  -53.2973 H         1 UNK         0.3000 
    226 H226       -6.7475  -23.8751  -55.5783 H         1 UNK         0.0600 
    227 H227       -4.3463  -23.9100  -54.7857 H         1 UNK         0.0600 
    228 H228       -4.4879  -23.4599  -56.4763 H         1 UNK         0.0600 
    229 H229       -4.1841  -22.2214  -55.2675 H         1 UNK         0.0600 
    230 H230       -6.6389  -23.0526  -57.8028 H         1 UNK         0.3000 
    231 H231       -8.1379  -20.6207  -58.1892 H         1 UNK         0.0600 
    232 H232       -8.0105  -21.2952  -60.5872 H         1 UNK         0.0600 
    233 H233       -8.4871  -22.6509  -59.5786 H         1 UNK         0.0600 
    234 H234       -6.8361  -22.5440  -60.1920 H         1 UNK         0.0600 
    235 H235       -4.7614  -21.2933  -58.0533 H         1 UNK         0.3000 
    236 H236       -3.9223  -18.8513  -59.5074 H         1 UNK         0.0600 
    237 H237       -2.2711  -21.0704  -58.1771 H         1 UNK         0.0600 
    238 H238       -2.6848  -20.9957  -59.8855 H         1 UNK         0.0600 
    239 H239       -1.6488  -19.7670  -59.1939 H         1 UNK         0.0600 
    240 H240       -1.6225  -19.0085  -57.3289 H         1 UNK         0.3000 
    241 H241       -2.6612  -16.9448  -55.6001 H         1 UNK         0.0600 
    242 H242       -2.0881  -20.4853  -55.1666 H         1 UNK         0.3800 
    243 H243       -2.9329  -20.5818  -53.6454 H         1 UNK         0.3800 
    244 H244       -0.1163  -17.5554  -56.4247 H         1 UNK         0.0800 
    245 H245       -0.0668  -18.3210  -54.8734 H         1 UNK         0.0800 
    246 H246        1.2756  -15.3569  -52.9997 H         1 UNK         0.0800 
    247 H247        1.5283  -16.9862  -53.5653 H         1 UNK         0.0800 
@<TRIPOS>BOND
     1    1    2 1    
     2    1  127 1    
     3    1  128 1    
     4    1  129 1    
     5    2    3 2    
     6    2    4 am   BACKBONE|DICT|INTERRES
     7    4    5 1    
     8    4  130 1    
     9    5    6 1    
    10    5   65 1    
    11    5  131 1    
    12    6    7 1    
    13    6  132 1    
    14    6  133 1    
    15    7    8 1    
    16    8    9 1    
    17    8  134 1    
    18    8  135 1    
    19    9   10 ar   
    20    9   14 ar   
    21   10   11 ar   
    22   10  136 1    
    23   11   12 ar   
    24   11  126 1    
    25   12   13 ar   
    26   12  137 1    
    27   13   14 ar   
    28   13   15 1    
    29   14  138 1    
    30   15   16 1    
    31   15  139 1    
    32   15  140 1    
    33   16   17 1    
    34   17   18 1    
    35   17  141 1    
    36   17  142 1    
    37   18   19 1    
    38   18   67 1    
    39   18  143 1    
    40   19   20 am   BACKBONE|DICT|INTERRES
    41   19  144 1    
    42   20   21 2    
    43   20   22 1    
    44   22   23 1    
    45   22   24 1    
    46   22  145 1    
    47   23  146 1    
    48   23  147 1    
    49   23  148 1    
    50   24   25 am   BACKBONE|DICT|INTERRES
    51   24  149 1    
    52   25   26 2    
    53   25   27 1    
    54   27   28 1    
    55   27   29 1    
    56   27  150 1    
    57   28  151 1    
    58   28  152 1    
    59   28  153 1    
    60   29   30 am   BACKBONE|DICT|INTERRES
    61   29  154 1    
    62   30   31 2    
    63   30   32 1    
    64   32   33 1    
    65   32   34 1    
    66   32  155 1    
    67   33  156 1    
    68   33  157 1    
    69   33  158 1    
    70   34   35 am   BACKBONE|DICT|INTERRES
    71   34  159 1    
    72   35   36 2    
    73   35   37 1    
    74   37   38 1    
    75   37   39 1    
    76   37  160 1    
    77   38  161 1    
    78   38  162 1    
    79   38  163 1    
    80   39   40 am   BACKBONE|DICT|INTERRES
    81   39  164 1    
    82   40   41 2    
    83   40   42 1    
    84   42   43 1    
    85   42   44 1    
    86   42  165 1    
    87   43  166 1    
    88   43  167 1    
    89   43  168 1    
    90   44   45 am   BACKBONE|DICT|INTERRES
    91   44  169 1    
    92   45   46 2    
    93   45   47 1    
    94   47   48 1    
    95   47   49 1    
    96   47  170 1    
    97   48  171 1    
    98   48  172 1    
    99   48  173 1    
   100   49   50 am   BACKBONE|DICT|INTERRES
   101   49  174 1    
   102   50   51 2    
   103   50   52 1    
   104   52   53 1    
   105   52   54 1    
   106   52  175 1    
   107   53  176 1    
   108   53  177 1    
   109   53  178 1    
   110   54   55 am   BACKBONE|DICT|INTERRES
   111   54  179 1    
   112   55   56 2    
   113   55   57 1    
   114   57   58 1    
   115   57   59 1    
   116   57  180 1    
   117   58  181 1    
   118   58  182 1    
   119   58  183 1    
   120   59   60 am   BACKBONE|DICT|INTERRES
   121   59  184 1    
   122   60   61 2    
   123   60   62 1    
   124   62   63 1    
   125   62   64 1    
   126   62  185 1    
   127   63  186 1    
   128   63  187 1    
   129   63  188 1    
   130   64   65 am   BACKBONE|DICT|INTERRES
   131   64  189 1    
   132   65   66 2    
   133   67   68 2    
   134   67   69 am   BACKBONE|DICT|INTERRES
   135   69   70 1    
   136   69  190 1    
   137   70   71 1    
   138   70   72 1    
   139   70  191 1    
   140   71  192 1    
   141   71  193 1    
   142   71  194 1    
   143   72   73 2    
   144   72   74 am   BACKBONE|DICT|INTERRES
   145   74   75 1    
   146   74  195 1    
   147   75   76 1    
   148   75   77 1    
   149   75  196 1    
   150   76  197 1    
   151   76  198 1    
   152   76  199 1    
   153   77   78 2    
   154   77   79 am   BACKBONE|DICT|INTERRES
   155   79   80 1    
   156   79  200 1    
   157   80   81 1    
   158   80   82 1    
   159   80  201 1    
   160   81  202 1    
   161   81  203 1    
   162   81  204 1    
   163   82   83 2    
   164   82   84 am   BACKBONE|DICT|INTERRES
   165   84   85 1    
   166   84  205 1    
   167   85   86 1    
   168   85   87 1    
   169   85  206 1    
   170   86  207 1    
   171   86  208 1    
   172   86  209 1    
   173   87   88 2    
   174   87   89 am   BACKBONE|DICT|INTERRES
   175   89   90 1    
   176   89  210 1    
   177   90   91 1    
   178   90   92 1    
   179   90  211 1    
   180   91  212 1    
   181   91  213 1    
   182   91  214 1    
   183   92   93 2    
   184   92   94 am   BACKBONE|DICT|INTERRES
   185   94   95 1    
   186   94  215 1    
   187   95   96 1    
   188   95   97 1    
   189   95  216 1    
   190   96  217 1    
   191   96  218 1    
   192   96  219 1    
   193   97   98 2    
   194   97   99 am   BACKBONE|DICT|INTERRES
   195   99  100 1    
   196   99  220 1    
   197  100  101 1    
   198  100  102 1    
   199  100  221 1    
   200  101  222 1    
   201  101  223 1    
   202  101  224 1    
   203  102  103 2    
   204  102  104 am   BACKBONE|DICT|INTERRES
   205  104  105 1    
   206  104  225 1    
   207  105  106 1    
   208  105  107 1    
   209  105  226 1    
   210  106  227 1    
   211  106  228 1    
   212  106  229 1    
   213  107  108 2    
   214  107  109 am   BACKBONE|DICT|INTERRES
   215  109  110 1    
   216  109  230 1    
   217  110  111 1    
   218  110  112 1    
   219  110  231 1    
   220  111  232 1    
   221  111  233 1    
   222  111  234 1    
   223  112  113 2    
   224  112  114 am   BACKBONE|DICT|INTERRES
   225  114  115 1    
   226  114  235 1    
   227  115  116 1    
   228  115  117 1    
   229  115  236 1    
   230  116  237 1    
   231  116  238 1    
   232  116  239 1    
   233  117  118 2    
   234  117  119 am   BACKBONE|DICT|INTERRES
   235  119  120 1    
   236  119  240 1    
   237  120  121 1    
   238  120  124 1    
   239  120  241 1    
   240  121  122 am   BACKBONE|DICT|INTERRES
   241  121  123 2    
   242  122  242 1    
   243  122  243 1    
   244  124  125 1    
   245  124  244 1    
   246  124  245 1    
   247  125  126 1    
   248  126  246 1    
   249  126  247 1    
@<TRIPOS>SUBSTRUCTURE
     1 UNK         1 GROUP             0       ****    0 ROOT    
