@<TRIPOS>MOLECULE
3R540
247   249    1
SMALL
USER_CHARGES


@<TRIPOS>ATOM
      1 CA          6.9243  -14.2104  -46.1699 C.3       0 UNK        -0.1800 
      2 C           5.5001  -13.7385  -45.9168 C.2       0 UNK         0.5000 
      3 O           4.9527  -13.9943  -44.8460 O.2       0 UNK        -0.5000 
      4 N           4.8972  -13.0559  -46.8987 N.am      1 UNK        -0.5000 
      5 CA          3.5260  -12.5332  -46.8269 C.3       1 UNK         0.1400 
      6 C6          2.9666  -12.1619  -48.2226 C.3       23 UNK        -0.0398 
      7 S7          2.8940  -13.5819  -49.3678 S.3       23 UNK        -0.2404 
      8 C8          1.1989  -14.1649  -49.0476 C.3       23 UNK        -0.0205 
      9 C9          0.7979  -15.3511  -49.9129 C.ar      23 UNK        -0.0193 
     10 C10        -0.3721  -15.2901  -50.6744 C.ar      23 UNK        -0.1150 
     11 C11        -0.7891  -16.3891  -51.4288 C.ar      23 UNK        -0.0193 
     12 C12        -0.0182  -17.5549  -51.4329 C.ar      23 UNK        -0.1150 
     13 C13         1.1622  -17.6253  -50.6874 C.ar      23 UNK        -0.0193 
     14 C14         1.5595  -16.5245  -49.9220 C.ar      23 UNK        -0.1150 
     15 C15         2.0225  -18.8794  -50.7276 C.3       23 UNK        -0.0205 
     16 S16         1.7975  -19.9168  -49.2517 S.3       23 UNK        -0.2404 
     17 C17         0.0990  -20.5364  -49.4923 C.3       23 UNK        -0.0398 
     18 CA         -0.2015  -21.7578  -48.5920 C.3       11 UNK         0.1400 
     19 N          -0.1184  -21.4407  -47.1631 N.am      11 UNK        -0.5000 
     20 C          -0.1836  -22.3406  -46.1723 C.2       10 UNK         0.5000 
     21 O          -0.2646  -23.5543  -46.3536 O.2       10 UNK        -0.5000 
     22 CA         -0.2259  -21.7902  -44.7378 C.3       10 UNK         0.1400 
     23 CB          1.1864  -21.4839  -44.2165 C.3       10 UNK        -0.1800 
     24 N          -1.0661  -20.5965  -44.6455 N.am      10 UNK        -0.5000 
     25 C          -2.4036  -20.6119  -44.7338 C.2       9 UNK         0.5000 
     26 O          -3.0662  -21.6413  -44.8606 O.2       9 UNK        -0.5000 
     27 CA         -3.1192  -19.2487  -44.7110 C.3       9 UNK         0.1400 
     28 CB         -3.3558  -18.7862  -43.2657 C.3       9 UNK        -0.1800 
     29 N          -2.3889  -18.2093  -45.4368 N.am      9 UNK        -0.5000 
     30 C          -2.1925  -18.2050  -46.7625 C.2       8 UNK         0.5000 
     31 O          -2.6195  -19.0745  -47.5213 O.2       8 UNK        -0.5000 
     32 CA         -1.3273  -17.0626  -47.3234 C.3       8 UNK         0.1400 
     33 CB         -2.1744  -15.7967  -47.5202 C.3       8 UNK        -0.1800 
     34 N          -0.1614  -16.7348  -46.4972 N.am      8 UNK        -0.5000 
     35 C           0.7910  -17.5866  -46.1004 C.2       7 UNK         0.5000 
     36 O           0.7299  -18.8001  -46.2880 O.2       7 UNK        -0.5000 
     37 CA          2.0158  -17.0164  -45.3588 C.3       7 UNK         0.1400 
     38 CB          3.0938  -16.5670  -46.3585 C.3       7 UNK        -0.1800 
     39 N           1.7544  -15.9776  -44.3523 N.am      7 UNK        -0.5000 
     40 C           1.1971  -14.7652  -44.4628 C.2       6 UNK         0.5000 
     41 O           0.7276  -14.3209  -45.5092 O.2       6 UNK        -0.5000 
     42 CA          1.1157  -13.8965  -43.1899 C.3       6 UNK         0.1400 
     43 CB         -0.1341  -14.2607  -42.3673 C.3       6 UNK        -0.1800 
     44 N           2.3114  -13.8731  -42.3349 N.am      6 UNK        -0.5000 
     45 C           2.9005  -14.8710  -41.6583 C.2       5 UNK         0.5000 
     46 O           2.5527  -16.0514  -41.7163 O.2       5 UNK        -0.5000 
     47 CA          4.0518  -14.4723  -40.7153 C.3       5 UNK         0.1400 
     48 CB          5.3833  -14.3815  -41.4744 C.3       5 UNK        -0.1800 
     49 N           3.8013  -13.2095  -40.0170 N.am      5 UNK        -0.5000 
     50 C           2.8233  -13.0163  -39.1188 C.2       4 UNK         0.5000 
     51 O           2.0556  -13.9056  -38.7485 O.2       4 UNK        -0.5000 
     52 CA          2.6733  -11.6050  -38.5157 C.3       4 UNK         0.1400 
     53 CB          3.1265  -11.5972  -37.0468 C.3       4 UNK        -0.1800 
     54 N           3.4060  -10.5603  -39.2346 N.am      4 UNK        -0.5000 
     55 C           3.0818  -10.0704  -40.4381 C.2       3 UNK         0.5000 
     56 O           2.1224  -10.4749  -41.0990 O.2       3 UNK        -0.5000 
     57 CA          3.9600   -8.9163  -40.9741 C.3       3 UNK         0.1400 
     58 CB          5.3828   -8.8844  -40.3689 C.3       3 UNK        -0.1800 
     59 N           4.0355   -8.8757  -42.4378 N.am      3 UNK        -0.5000 
     60 C           4.5006   -9.8336  -43.2510 C.2       2 UNK         0.5000 
     61 O           4.9161  -10.9302  -42.8680 O.2       2 UNK        -0.5000 
     62 CA          4.5691   -9.4553  -44.7424 C.3       2 UNK         0.1400 
     63 CB          5.8737   -8.6992  -45.0412 C.3       2 UNK        -0.1800 
     64 N           4.4978  -10.6200  -45.6207 N.am      2 UNK        -0.5000 
     65 C           3.3907  -11.3336  -45.8623 C.2       1 UNK         0.5000 
     66 O           2.2898  -11.0644  -45.3803 O.2       1 UNK        -0.5000 
     67 C          -1.5623  -22.3888  -48.9493 C.2       11 UNK         0.5000 
     68 O          -1.5928  -23.4089  -49.6378 O.2       11 UNK        -0.5000 
     69 N          -2.6563  -21.8079  -48.4336 N.am      12 UNK        -0.5000 
     70 CA         -4.0151  -22.3333  -48.5662 C.3       12 UNK         0.1400 
     71 CB         -5.0221  -21.3301  -47.9864 C.3       12 UNK        -0.1800 
     72 C          -4.1854  -23.7188  -47.9206 C.2       12 UNK         0.5000 
     73 O          -4.7882  -24.5967  -48.5375 O.2       12 UNK        -0.5000 
     74 N          -3.6237  -23.9049  -46.7174 N.am      13 UNK        -0.5000 
     75 CA         -3.6101  -25.1818  -46.0025 C.3       13 UNK         0.1400 
     76 CB         -3.0749  -24.9790  -44.5773 C.3       13 UNK        -0.1800 
     77 C          -2.8093  -26.2684  -46.7427 C.2       13 UNK         0.5000 
     78 O          -3.2960  -27.3918  -46.8704 O.2       13 UNK        -0.5000 
     79 N          -1.6244  -25.9084  -47.2571 N.am      14 UNK        -0.5000 
     80 CA         -0.7561  -26.7803  -48.0535 C.3       14 UNK         0.1400 
     81 CB          0.5880  -26.0792  -48.3015 C.3       14 UNK        -0.1800 
     82 C          -1.3957  -27.2157  -49.3853 C.2       14 UNK         0.5000 
     83 O          -1.2355  -28.3679  -49.7894 O.2       14 UNK        -0.5000 
     84 N          -2.1394  -26.3008  -50.0207 N.am      15 UNK        -0.5000 
     85 CA         -2.9298  -26.5553  -51.2261 C.3       15 UNK         0.1400 
     86 CB         -3.2206  -25.2137  -51.9167 C.3       15 UNK        -0.1800 
     87 C          -4.2485  -27.3068  -50.9532 C.2       15 UNK         0.5000 
     88 O          -4.9232  -27.6809  -51.9107 O.2       15 UNK        -0.5000 
     89 N          -4.6217  -27.4805  -49.6758 N.am      16 UNK        -0.5000 
     90 CA         -5.8849  -28.0507  -49.1918 C.3       16 UNK         0.1400 
     91 CB         -5.9635  -29.5580  -49.5109 C.3       16 UNK        -0.1800 
     92 C          -7.1162  -27.2578  -49.6843 C.2       16 UNK         0.5000 
     93 O          -8.1359  -27.8481  -50.0450 O.2       16 UNK        -0.5000 
     94 N          -6.9729  -25.9244  -49.7066 N.am      17 UNK        -0.5000 
     95 CA         -7.9309  -24.9151  -50.1677 C.3       17 UNK         0.1400 
     96 CB         -9.1982  -24.9170  -49.2876 C.3       17 UNK        -0.1800 
     97 C          -8.2529  -24.9748  -51.6784 C.2       17 UNK         0.5000 
     98 O          -9.2536  -24.3947  -52.1049 O.2       17 UNK        -0.5000 
     99 N          -7.4058  -25.6465  -52.4720 N.am      18 UNK        -0.5000 
    100 CA        -7.4995  -25.6841  -53.9316 C.3       18 UNK         0.1400 
    101 CB        -6.6303  -26.8335  -54.4649 C.3       18 UNK        -0.1800 
    102 C         -7.0639  -24.3517  -54.5693 C.2       18 UNK         0.5000 
    103 O         -6.3291  -23.5755  -53.9532 O.2       18 UNK        -0.5000 
    104 N         -7.4726  -24.1508  -55.8297 N.am      19 UNK        -0.5000 
    105 CA        -7.2051  -22.9653  -56.6559 C.3       19 UNK         0.1400 
    106 CB        -8.0367  -23.0723  -57.9446 C.3       19 UNK        -0.1800 
    107 C         -5.7171  -22.7090  -56.9869 C.2       19 UNK         0.5000 
    108 O         -5.3957  -21.6636  -57.5537 O.2       19 UNK        -0.5000 
    109 N         -4.8335  -23.6468  -56.6182 N.am      20 UNK        -0.5000 
    110 CA        -3.3778  -23.4975  -56.6347 C.3       20 UNK         0.1400 
    111 CB        -2.7406  -24.8619  -56.3274 C.3       20 UNK        -0.1800 
    112 C         -2.8613  -22.4281  -55.6469 C.2       20 UNK         0.5000 
    113 O         -1.7613  -21.9109  -55.8469 O.2       20 UNK        -0.5000 
    114 N         -3.6564  -22.1101  -54.6172 N.am      21 UNK        -0.5000 
    115 CA        -3.4196  -21.0323  -53.6632 C.3       21 UNK         0.1400 
    116 CB        -3.1649  -21.6456  -52.2775 C.3       21 UNK        -0.1800 
    117 C         -4.6342  -20.0898  -53.6286 C.2       21 UNK         0.5000 
    118 O         -5.6845  -20.3918  -54.1997 O.2       21 UNK        -0.5000 
    119 N         -4.4628  -18.9592  -52.9384 N.am      22 UNK        -0.5000 
    120 CA        -5.4933  -17.9357  -52.6985 C.3       22 UNK         0.1400 
    121 C         -6.5395  -18.2947  -51.5995 C.2       22 UNK         0.5000 
    122 N         -6.4109  -19.4093  -50.8902 N.am      22 UNK        -0.7600 
    123 O         -7.4989  -17.5546  -51.3991 O.2       22 UNK        -0.5000 
    124 C124       -4.8538  -16.5408  -52.4643 C.3       23 UNK        -0.0398 
    125 S125       -3.5364  -16.5386  -51.1947 S.3       23 UNK        -0.2404 
    126 C126       -2.0681  -16.3071  -52.2438 C.3       23 UNK        -0.0205 
    127 H127        7.2825  -13.9104  -47.1550 H         1 UNK         0.0600 
    128 H128        6.9747  -15.2973  -46.1056 H         1 UNK         0.0600 
    129 H129        7.5961  -13.7917  -45.4205 H         1 UNK         0.0600 
    130 H130        5.3835  -12.8979  -47.7698 H         1 UNK         0.3000 
    131 H131        2.8993  -13.3256  -46.4213 H         1 UNK         0.0600 
    132 H132        1.9662  -11.7333  -48.1357 H         1 UNK         0.0800 
    133 H133        3.5828  -11.3880  -48.6837 H         1 UNK         0.0800 
    134 H134        0.5062  -13.3351  -49.1956 H         1 UNK         0.0800 
    135 H135        1.1101  -14.4566  -48.0039 H         1 UNK         0.0800 
    136 H136       -0.9750  -14.3928  -50.6675 H         1 UNK         0.1150 
    137 H137       -0.3323  -18.4049  -52.0221 H         1 UNK         0.1150 
    138 H138        2.4647  -16.5805  -49.3346 H         1 UNK         0.1150 
    139 H139        1.8123  -19.4659  -51.6234 H         1 UNK         0.0800 
    140 H140        3.0726  -18.5916  -50.7950 H         1 UNK         0.0800 
    141 H141       -0.0221  -20.8022  -50.5442 H         1 UNK         0.0800 
    142 H142       -0.6017  -19.7240  -49.2937 H         1 UNK         0.0800 
    143 H143        0.5584  -22.5154  -48.7957 H         1 UNK         0.0600 
    144 H144        0.0152  -20.4620  -46.9216 H         1 UNK         0.3000 
    145 H145       -0.6579  -22.5612  -44.0963 H         1 UNK         0.0600 
    146 H146        1.1571  -21.1136  -43.1917 H         1 UNK         0.0600 
    147 H147        1.8022  -22.3840  -44.2194 H         1 UNK         0.0600 
    148 H148        1.6968  -20.7400  -44.8280 H         1 UNK         0.0600 
    149 H149       -0.5878  -19.7068  -44.6380 H         1 UNK         0.3000 
    150 H150       -4.0913  -19.3766  -45.1919 H         1 UNK         0.0600 
    151 H151       -3.9154  -19.5350  -42.7035 H         1 UNK         0.0600 
    152 H152       -3.9331  -17.8618  -43.2369 H         1 UNK         0.0600 
    153 H153       -2.4170  -18.6130  -42.7380 H         1 UNK         0.0600 
    154 H154       -1.9869  -17.4623  -44.8901 H         1 UNK         0.3000 
    155 H155       -0.9552  -17.3814  -48.2988 H         1 UNK         0.0600 
    156 H156       -2.5492  -15.4111  -46.5715 H         1 UNK         0.0600 
    157 H157       -1.5979  -15.0043  -47.9964 H         1 UNK         0.0600 
    158 H158       -3.0357  -15.9988  -48.1580 H         1 UNK         0.0600 
    159 H159       -0.0152  -15.7524  -46.2738 H         1 UNK         0.3000 
    160 H160        2.4349  -17.8523  -44.7965 H         1 UNK         0.0600 
    161 H161        2.8032  -15.6669  -46.8969 H         1 UNK         0.0600 
    162 H162        3.2893  -17.3435  -47.0994 H         1 UNK         0.0600 
    163 H163        4.0353  -16.3667  -45.8491 H         1 UNK         0.0600 
    164 H164        2.0691  -16.2149  -43.4125 H         1 UNK         0.3000 
    165 H165        0.9907  -12.8674  -43.5308 H         1 UNK         0.0600 
    166 H166       -0.2572  -13.5852  -41.5204 H         1 UNK         0.0600 
    167 H167       -1.0366  -14.1875  -42.9756 H         1 UNK         0.0600 
    168 H168       -0.0840  -15.2784  -41.9791 H         1 UNK         0.0600 
    169 H169        2.7170  -12.9540  -42.2168 H         1 UNK         0.3000 
    170 H170        4.1461  -15.2583  -39.9631 H         1 UNK         0.0600 
    171 H171        5.5838  -15.3009  -42.0262 H         1 UNK         0.0600 
    172 H172        5.3800  -13.5628  -42.1945 H         1 UNK         0.0600 
    173 H173        6.2175  -14.2226  -40.7911 H         1 UNK         0.0600 
    174 H174        4.3812  -12.4237  -40.2732 H         1 UNK         0.3000 
    175 H175        1.6107  -11.3550  -38.5449 H         1 UNK         0.0600 
    176 H176        4.1880  -11.8298  -36.9524 H         1 UNK         0.0600 
    177 H177        2.9522  -10.6254  -36.5845 H         1 UNK         0.0600 
    178 H178        2.5758  -12.3353  -36.4621 H         1 UNK         0.0600 
    179 H179        4.2104  -10.1746  -38.7613 H         1 UNK         0.3000 
    180 H180        3.4557   -7.9964  -40.6751 H         1 UNK         0.0600 
    181 H181        5.9161   -9.8216  -40.5329 H         1 UNK         0.0600 
    182 H182        5.3584   -8.6966  -39.2950 H         1 UNK         0.0600 
    183 H183        5.9776   -8.0855  -40.8124 H         1 UNK         0.0600 
    184 H184        3.6956   -8.0219  -42.8575 H         1 UNK         0.3000 
    185 H185        3.7269   -8.7998  -44.9747 H         1 UNK         0.0600 
    186 H186        6.7507   -9.3144  -44.8355 H         1 UNK         0.0600 
    187 H187        5.9194   -8.3866  -46.0847 H         1 UNK         0.0600 
    188 H188        5.9551   -7.7990  -44.4306 H         1 UNK         0.0600 
    189 H189        5.3679  -10.9422  -46.0170 H         1 UNK         0.3000 
    190 H190       -2.5570  -20.9362  -47.9193 H         1 UNK         0.3000 
    191 H191       -4.2260  -22.4434  -49.6302 H         1 UNK         0.0600 
    192 H192       -4.8602  -21.1667  -46.9209 H         1 UNK         0.0600 
    193 H193       -6.0454  -21.6856  -48.1135 H         1 UNK         0.0600 
    194 H194       -4.9473  -20.3638  -48.4852 H         1 UNK         0.0600 
    195 H195       -3.1895  -23.1163  -46.2492 H         1 UNK         0.3000 
    196 H196       -4.6430  -25.5281  -45.9265 H         1 UNK         0.0600 
    197 H197       -3.0810  -25.9171  -44.0210 H         1 UNK         0.0600 
    198 H198       -3.6893  -24.2690  -44.0235 H         1 UNK         0.0600 
    199 H199       -2.0513  -24.6052  -44.5788 H         1 UNK         0.0600 
    200 H200       -1.2722  -24.9729  -47.0671 H         1 UNK         0.3000 
    201 H201       -0.5658  -27.6822  -47.4683 H         1 UNK         0.0600 
    202 H202        1.0896  -25.8459  -47.3623 H         1 UNK         0.0600 
    203 H203        0.4595  -25.1469  -48.8521 H         1 UNK         0.0600 
    204 H204        1.2600  -26.7139  -48.8804 H         1 UNK         0.0600 
    205 H205       -2.1631  -25.3531  -49.6563 H         1 UNK         0.3000 
    206 H206       -2.3402  -27.1694  -51.9097 H         1 UNK         0.0600 
    207 H207       -2.2959  -24.7027  -52.1838 H         1 UNK         0.0600 
    208 H208       -3.7912  -25.3516  -52.8359 H         1 UNK         0.0600 
    209 H209       -3.7971  -24.5520  -51.2697 H         1 UNK         0.0600 
    210 H210       -4.0061  -27.1279  -48.9536 H         1 UNK         0.3000 
    211 H211       -5.8701  -27.9439  -48.1063 H         1 UNK         0.0600 
    212 H212       -6.0401  -29.7434  -50.5826 H         1 UNK         0.0600 
    213 H213       -6.8348  -30.0121  -49.0378 H         1 UNK         0.0600 
    214 H214       -5.0833  -30.0841  -49.1413 H         1 UNK         0.0600 
    215 H215       -6.0918  -25.5432  -49.3626 H         1 UNK         0.3000 
    216 H216       -7.4341  -23.9558  -50.0154 H         1 UNK         0.0600 
    217 H217       -9.8354  -24.0617  -49.5150 H         1 UNK         0.0600 
    218 H218       -8.9432  -24.8556  -48.2296 H         1 UNK         0.0600 
    219 H219       -9.7952  -25.8166  -49.4383 H         1 UNK         0.0600 
    220 H220       -6.6061  -26.1076  -52.0590 H         1 UNK         0.3000 
    221 H221       -8.5386  -25.8789  -54.2053 H         1 UNK         0.0600 
    222 H222       -6.7647  -26.9641  -55.5392 H         1 UNK         0.0600 
    223 H223       -5.5694  -26.6510  -54.2893 H         1 UNK         0.0600 
    224 H224       -6.8910  -27.7797  -53.9901 H         1 UNK         0.0600 
    225 H225       -8.0456  -24.8602  -56.2639 H         1 UNK         0.3000 
    226 H226       -7.5526  -22.0938  -56.0970 H         1 UNK         0.0600 
    227 H227       -9.1006  -23.1578  -57.7230 H         1 UNK         0.0600 
    228 H228       -7.9095  -22.1879  -58.5704 H         1 UNK         0.0600 
    229 H229       -7.7451  -23.9392  -58.5389 H         1 UNK         0.0600 
    230 H230       -5.1939  -24.4725  -56.1650 H         1 UNK         0.3000 
    231 H231       -3.0785  -23.1927  -57.6395 H         1 UNK         0.0600 
    232 H232       -1.6519  -24.8004  -56.3576 H         1 UNK         0.0600 
    233 H233       -3.0426  -25.6128  -57.0577 H         1 UNK         0.0600 
    234 H234       -3.0213  -25.2230  -55.3371 H         1 UNK         0.0600 
    235 H235       -4.5731  -22.5425  -54.5505 H         1 UNK         0.3000 
    236 H236       -2.5503  -20.4397  -53.9557 H         1 UNK         0.0600 
    237 H237       -2.2838  -22.2867  -52.2897 H         1 UNK         0.0600 
    238 H238       -2.9914  -20.8795  -51.5211 H         1 UNK         0.0600 
    239 H239       -4.0143  -22.2473  -51.9541 H         1 UNK         0.0600 
    240 H240       -3.5830  -18.7901  -52.4737 H         1 UNK         0.3000 
    241 H241       -6.0805  -17.8539  -53.6153 H         1 UNK         0.0600 
    242 H242       -5.6396  -20.0322  -51.0554 H         1 UNK         0.3800 
    243 H243       -7.1016  -19.6292  -50.1910 H         1 UNK         0.3800 
    244 H244       -4.4411  -16.1773  -53.4062 H         1 UNK         0.0800 
    245 H245       -5.6081  -15.8033  -52.1844 H         1 UNK         0.0800 
    246 H246       -2.0597  -17.0561  -53.0370 H         1 UNK         0.0800 
    247 H247       -2.1253  -15.3358  -52.7376 H         1 UNK         0.0800 
@<TRIPOS>BOND
     1    1    2 1    
     2    1  127 1    
     3    1  128 1    
     4    1  129 1    
     5    2    3 2    
     6    2    4 am   BACKBONE|DICT|INTERRES
     7    4    5 1    
     8    4  130 1    
     9    5    6 1    
    10    5   65 1    
    11    5  131 1    
    12    6    7 1    
    13    6  132 1    
    14    6  133 1    
    15    7    8 1    
    16    8    9 1    
    17    8  134 1    
    18    8  135 1    
    19    9   10 ar   
    20    9   14 ar   
    21   10   11 ar   
    22   10  136 1    
    23   11   12 ar   
    24   11  126 1    
    25   12   13 ar   
    26   12  137 1    
    27   13   14 ar   
    28   13   15 1    
    29   14  138 1    
    30   15   16 1    
    31   15  139 1    
    32   15  140 1    
    33   16   17 1    
    34   17   18 1    
    35   17  141 1    
    36   17  142 1    
    37   18   19 1    
    38   18   67 1    
    39   18  143 1    
    40   19   20 am   BACKBONE|DICT|INTERRES
    41   19  144 1    
    42   20   21 2    
    43   20   22 1    
    44   22   23 1    
    45   22   24 1    
    46   22  145 1    
    47   23  146 1    
    48   23  147 1    
    49   23  148 1    
    50   24   25 am   BACKBONE|DICT|INTERRES
    51   24  149 1    
    52   25   26 2    
    53   25   27 1    
    54   27   28 1    
    55   27   29 1    
    56   27  150 1    
    57   28  151 1    
    58   28  152 1    
    59   28  153 1    
    60   29   30 am   BACKBONE|DICT|INTERRES
    61   29  154 1    
    62   30   31 2    
    63   30   32 1    
    64   32   33 1    
    65   32   34 1    
    66   32  155 1    
    67   33  156 1    
    68   33  157 1    
    69   33  158 1    
    70   34   35 am   BACKBONE|DICT|INTERRES
    71   34  159 1    
    72   35   36 2    
    73   35   37 1    
    74   37   38 1    
    75   37   39 1    
    76   37  160 1    
    77   38  161 1    
    78   38  162 1    
    79   38  163 1    
    80   39   40 am   BACKBONE|DICT|INTERRES
    81   39  164 1    
    82   40   41 2    
    83   40   42 1    
    84   42   43 1    
    85   42   44 1    
    86   42  165 1    
    87   43  166 1    
    88   43  167 1    
    89   43  168 1    
    90   44   45 am   BACKBONE|DICT|INTERRES
    91   44  169 1    
    92   45   46 2    
    93   45   47 1    
    94   47   48 1    
    95   47   49 1    
    96   47  170 1    
    97   48  171 1    
    98   48  172 1    
    99   48  173 1    
   100   49   50 am   BACKBONE|DICT|INTERRES
   101   49  174 1    
   102   50   51 2    
   103   50   52 1    
   104   52   53 1    
   105   52   54 1    
   106   52  175 1    
   107   53  176 1    
   108   53  177 1    
   109   53  178 1    
   110   54   55 am   BACKBONE|DICT|INTERRES
   111   54  179 1    
   112   55   56 2    
   113   55   57 1    
   114   57   58 1    
   115   57   59 1    
   116   57  180 1    
   117   58  181 1    
   118   58  182 1    
   119   58  183 1    
   120   59   60 am   BACKBONE|DICT|INTERRES
   121   59  184 1    
   122   60   61 2    
   123   60   62 1    
   124   62   63 1    
   125   62   64 1    
   126   62  185 1    
   127   63  186 1    
   128   63  187 1    
   129   63  188 1    
   130   64   65 am   BACKBONE|DICT|INTERRES
   131   64  189 1    
   132   65   66 2    
   133   67   68 2    
   134   67   69 am   BACKBONE|DICT|INTERRES
   135   69   70 1    
   136   69  190 1    
   137   70   71 1    
   138   70   72 1    
   139   70  191 1    
   140   71  192 1    
   141   71  193 1    
   142   71  194 1    
   143   72   73 2    
   144   72   74 am   BACKBONE|DICT|INTERRES
   145   74   75 1    
   146   74  195 1    
   147   75   76 1    
   148   75   77 1    
   149   75  196 1    
   150   76  197 1    
   151   76  198 1    
   152   76  199 1    
   153   77   78 2    
   154   77   79 am   BACKBONE|DICT|INTERRES
   155   79   80 1    
   156   79  200 1    
   157   80   81 1    
   158   80   82 1    
   159   80  201 1    
   160   81  202 1    
   161   81  203 1    
   162   81  204 1    
   163   82   83 2    
   164   82   84 am   BACKBONE|DICT|INTERRES
   165   84   85 1    
   166   84  205 1    
   167   85   86 1    
   168   85   87 1    
   169   85  206 1    
   170   86  207 1    
   171   86  208 1    
   172   86  209 1    
   173   87   88 2    
   174   87   89 am   BACKBONE|DICT|INTERRES
   175   89   90 1    
   176   89  210 1    
   177   90   91 1    
   178   90   92 1    
   179   90  211 1    
   180   91  212 1    
   181   91  213 1    
   182   91  214 1    
   183   92   93 2    
   184   92   94 am   BACKBONE|DICT|INTERRES
   185   94   95 1    
   186   94  215 1    
   187   95   96 1    
   188   95   97 1    
   189   95  216 1    
   190   96  217 1    
   191   96  218 1    
   192   96  219 1    
   193   97   98 2    
   194   97   99 am   BACKBONE|DICT|INTERRES
   195   99  100 1    
   196   99  220 1    
   197  100  101 1    
   198  100  102 1    
   199  100  221 1    
   200  101  222 1    
   201  101  223 1    
   202  101  224 1    
   203  102  103 2    
   204  102  104 am   BACKBONE|DICT|INTERRES
   205  104  105 1    
   206  104  225 1    
   207  105  106 1    
   208  105  107 1    
   209  105  226 1    
   210  106  227 1    
   211  106  228 1    
   212  106  229 1    
   213  107  108 2    
   214  107  109 am   BACKBONE|DICT|INTERRES
   215  109  110 1    
   216  109  230 1    
   217  110  111 1    
   218  110  112 1    
   219  110  231 1    
   220  111  232 1    
   221  111  233 1    
   222  111  234 1    
   223  112  113 2    
   224  112  114 am   BACKBONE|DICT|INTERRES
   225  114  115 1    
   226  114  235 1    
   227  115  116 1    
   228  115  117 1    
   229  115  236 1    
   230  116  237 1    
   231  116  238 1    
   232  116  239 1    
   233  117  118 2    
   234  117  119 am   BACKBONE|DICT|INTERRES
   235  119  120 1    
   236  119  240 1    
   237  120  121 1    
   238  120  124 1    
   239  120  241 1    
   240  121  122 am   BACKBONE|DICT|INTERRES
   241  121  123 2    
   242  122  242 1    
   243  122  243 1    
   244  124  125 1    
   245  124  244 1    
   246  124  245 1    
   247  125  126 1    
   248  126  246 1    
   249  126  247 1    
@<TRIPOS>SUBSTRUCTURE
     1 UNK         1 GROUP             0       ****    0 ROOT    
