@<TRIPOS>MOLECULE
3R540
247   249    1
SMALL
USER_CHARGES


@<TRIPOS>ATOM
      1 CA          6.2558   -9.2614  -51.0409 C.3       0 UNK        -0.1800 
      2 C           6.5724  -10.7104  -50.6985 C.2       0 UNK         0.5000 
      3 O           7.7265  -11.1259  -50.8019 O.2       0 UNK        -0.5000 
      4 N           5.5525  -11.4758  -50.2921 N.am      1 UNK        -0.5000 
      5 CA          5.6621  -12.8775  -49.8799 C.3       1 UNK         0.1400 
      6 C6          4.3035  -13.6212  -49.9000 C.3       23 UNK        -0.0398 
      7 S7          3.0463  -12.9730  -48.7451 S.3       23 UNK        -0.2404 
      8 C8          2.6524  -14.4637  -47.7789 C.3       23 UNK        -0.0205 
      9 C9          1.8637  -15.4817  -48.5898 C.ar      23 UNK        -0.0193 
     10 C10         0.5436  -15.2062  -48.9546 C.ar      23 UNK        -0.1150 
     11 C11        -0.2010  -16.1343  -49.6868 C.ar      23 UNK        -0.0193 
     12 C12         0.3871  -17.3447  -50.0627 C.ar      23 UNK        -0.1150 
     13 C13         1.7056  -17.6356  -49.7014 C.ar      23 UNK        -0.0193 
     14 C14         2.4388  -16.7011  -48.9621 C.ar      23 UNK        -0.1150 
     15 C15         2.3439  -18.9502  -50.1259 C.3       23 UNK        -0.0205 
     16 S16         2.1960  -20.2336  -48.8436 S.3       23 UNK        -0.2404 
     17 C17         0.4414  -20.7096  -49.0000 C.3       23 UNK        -0.0398 
     18 CA          0.1233  -22.0151  -48.2320 C.3       11 UNK         0.1400 
     19 N           0.2011  -21.8424  -46.7792 N.am      11 UNK        -0.5000 
     20 C           0.1081  -22.8265  -45.8748 C.2       10 UNK         0.5000 
     21 O          -0.0071  -24.0167  -46.1663 O.2       10 UNK        -0.5000 
     22 CA          0.0908  -22.4061  -44.3941 C.3       10 UNK         0.1400 
     23 CB          1.5077  -22.1004  -43.8849 C.3       10 UNK        -0.1800 
     24 N          -0.7834  -21.2570  -44.1538 N.am      10 UNK        -0.5000 
     25 C          -2.1187  -21.2883  -44.2700 C.2       9 UNK         0.5000 
     26 O          -2.7550  -22.2987  -44.5666 O.2       9 UNK        -0.5000 
     27 CA         -2.8690  -19.9613  -44.0542 C.3       9 UNK         0.1400 
     28 CB         -3.0718  -19.6895  -42.5565 C.3       9 UNK        -0.1800 
     29 N          -2.1888  -18.8216  -44.6670 N.am      9 UNK        -0.5000 
     30 C          -1.9831  -18.6819  -45.9846 C.2       8 UNK         0.5000 
     31 O          -2.3942  -19.4735  -46.8313 O.2       8 UNK        -0.5000 
     32 CA         -1.1197  -17.4876  -46.4237 C.3       8 UNK         0.1400 
     33 CB         -1.9610  -16.2050  -46.4794 C.3       8 UNK        -0.1800 
     34 N           0.0481  -17.2849  -45.5625 N.am      8 UNK        -0.5000 
     35 C           1.0158  -18.1958  -45.3795 C.2       7 UNK         0.5000 
     36 O           1.0168  -19.3020  -45.9114 O.2       7 UNK        -0.5000 
     37 CA          2.1473  -17.8454  -44.4036 C.3       7 UNK         0.1400 
     38 CB          3.3487  -17.2552  -45.1517 C.3       7 UNK        -0.1800 
     39 N           1.7005  -16.9292  -43.3551 N.am      7 UNK        -0.5000 
     40 C           0.9762  -17.3228  -42.2987 C.2       6 UNK         0.5000 
     41 O           0.6547  -18.4938  -42.0892 O.2       6 UNK        -0.5000 
     42 CA          0.5033  -16.2209  -41.3354 C.3       6 UNK         0.1400 
     43 CB          1.6921  -15.5586  -40.6204 C.3       6 UNK        -0.1800 
     44 N          -0.3008  -15.1902  -41.9913 N.am      6 UNK        -0.5000 
     45 C          -1.4629  -15.3799  -42.6286 C.2       5 UNK         0.5000 
     46 O          -1.9800  -16.4841  -42.7965 O.2       5 UNK        -0.5000 
     47 CA         -2.1552  -14.1297  -43.2085 C.3       5 UNK         0.1400 
     48 CB         -2.8218  -13.2845  -42.1056 C.3       5 UNK        -0.1800 
     49 N          -1.2759  -13.3292  -44.0721 N.am      5 UNK        -0.5000 
     50 C          -0.2051  -12.6034  -43.7237 C.2       4 UNK         0.5000 
     51 O           0.1481  -12.4021  -42.5586 O.2       4 UNK        -0.5000 
     52 CA          0.6290  -12.0352  -44.8876 C.3       4 UNK         0.1400 
     53 CB          0.2072  -10.5928  -45.2028 C.3       4 UNK        -0.1800 
     54 N           2.0685  -12.0620  -44.6229 N.am      4 UNK        -0.5000 
     55 C           2.7899  -13.1315  -44.2635 C.2       3 UNK         0.5000 
     56 O           2.3192  -14.2644  -44.1394 O.2       3 UNK        -0.5000 
     57 CA          4.2977  -12.8884  -44.0517 C.3       3 UNK         0.1400 
     58 CB          5.0156  -14.1079  -43.4478 C.3       3 UNK        -0.1800 
     59 N           4.9657  -12.5250  -45.3030 N.am      3 UNK        -0.5000 
     60 C           4.9272  -11.3189  -45.8876 C.2       2 UNK         0.5000 
     61 O           4.3065  -10.3644  -45.4159 O.2       2 UNK        -0.5000 
     62 CA          5.7027  -11.1379  -47.2086 C.3       2 UNK         0.1400 
     63 CB          6.6346   -9.9157  -47.1213 C.3       2 UNK        -0.1800 
     64 N           6.5106  -12.3211  -47.5310 N.am      2 UNK        -0.5000 
     65 C           6.4905  -13.1484  -48.5922 C.2       1 UNK         0.5000 
     66 O           7.1797  -14.1670  -48.5730 O.2       1 UNK        -0.5000 
     67 C          -1.2376  -22.5993  -48.6593 C.2       11 UNK         0.5000 
     68 O          -1.2618  -23.5576  -49.4325 O.2       11 UNK        -0.5000 
     69 N          -2.3358  -22.0620  -48.1064 N.am      12 UNK        -0.5000 
     70 CA         -3.6917  -22.5685  -48.3131 C.3       12 UNK         0.1400 
     71 CB         -4.7120  -21.6386  -47.6418 C.3       12 UNK        -0.1800 
     72 C          -3.8645  -24.0104  -47.8086 C.2       12 UNK         0.5000 
     73 O          -4.4160  -24.8345  -48.5346 O.2       12 UNK        -0.5000 
     74 N          -3.3639  -24.3042  -46.5993 N.am      13 UNK        -0.5000 
     75 CA         -3.3919  -25.6372  -45.9928 C.3       13 UNK         0.1400 
     76 CB         -2.8837  -25.5661  -44.5454 C.3       13 UNK        -0.1800 
     77 C          -2.6019  -26.6831  -46.7995 C.2       13 UNK         0.5000 
     78 O          -3.0996  -27.7915  -46.9991 O.2       13 UNK        -0.5000 
     79 N          -1.4161  -26.3018  -47.2959 N.am      14 UNK        -0.5000 
     80 CA         -0.5752  -27.1235  -48.1720 C.3       14 UNK         0.1400 
     81 CB          0.7755  -26.4237  -48.3847 C.3       14 UNK        -0.1800 
     82 C          -1.2414  -27.4450  -49.5252 C.2       14 UNK         0.5000 
     83 O          -1.0404  -28.5356  -50.0600 O.2       14 UNK        -0.5000 
     84 N          -2.0512  -26.5063  -50.0293 N.am      15 UNK        -0.5000 
     85 CA         -2.8687  -26.6428  -51.2348 C.3       15 UNK         0.1400 
     86 CB         -2.9926  -25.2575  -51.8853 C.3       15 UNK        -0.1800 
     87 C          -4.2610  -27.2546  -50.9622 C.2       15 UNK         0.5000 
     88 O          -5.0891  -27.2831  -51.8737 O.2       15 UNK        -0.5000 
     89 N          -4.5183  -27.7056  -49.7233 N.am      16 UNK        -0.5000 
     90 CA         -5.7650  -28.3094  -49.2329 C.3       16 UNK         0.1400 
     91 CB         -5.9731  -29.6988  -49.8700 C.3       16 UNK        -0.1800 
     92 C          -7.0010  -27.3930  -49.3823 C.2       16 UNK         0.5000 
     93 O          -8.1134  -27.8831  -49.5830 O.2       16 UNK        -0.5000 
     94 N          -6.7706  -26.0743  -49.3040 N.am      17 UNK        -0.5000 
     95 CA         -7.7132  -24.9658  -49.4840 C.3       17 UNK         0.1400 
     96 CB         -8.8013  -24.9872  -48.3913 C.3       17 UNK        -0.1800 
     97 C          -8.3062  -24.8490  -50.9062 C.2       17 UNK         0.5000 
     98 O          -9.2436  -24.0743  -51.1038 O.2       17 UNK        -0.5000 
     99 N          -7.7543  -25.5881  -51.8795 N.am      18 UNK        -0.5000 
    100 CA        -8.1916  -25.5706  -53.2772 C.3       18 UNK         0.1400 
    101 CB        -7.8262  -26.9129  -53.9295 C.3       18 UNK        -0.1800 
    102 C         -7.5839  -24.4019  -54.0758 C.2       18 UNK         0.5000 
    103 O         -8.1114  -24.0532  -55.1330 O.2       18 UNK        -0.5000 
    104 N         -6.4894  -23.8257  -53.5682 N.am      19 UNK        -0.5000 
    105 CA        -5.7208  -22.7387  -54.1622 C.3       19 UNK         0.1400 
    106 CB        -4.8944  -23.2737  -55.3517 C.3       19 UNK        -0.1800 
    107 C         -4.8212  -22.1263  -53.0749 C.2       19 UNK         0.5000 
    108 O         -4.9045  -22.5295  -51.9125 O.2       19 UNK        -0.5000 
    109 N         -3.9701  -21.1726  -53.4803 N.am      20 UNK        -0.5000 
    110 CA        -2.8560  -20.5859  -52.7193 C.3       20 UNK         0.1400 
    111 CB        -1.8006  -21.6635  -52.4048 C.3       20 UNK        -0.1800 
    112 C         -3.2532  -19.7769  -51.4648 C.2       20 UNK         0.5000 
    113 O         -2.3860  -19.4528  -50.6542 O.2       20 UNK        -0.5000 
    114 N         -4.5403  -19.4292  -51.3445 N.am      21 UNK        -0.5000 
    115 CA        -5.0862  -18.5976  -50.2698 C.3       21 UNK         0.1400 
    116 CB        -6.5324  -19.0419  -49.9980 C.3       21 UNK        -0.1800 
    117 C         -5.0272  -17.0905  -50.5909 C.2       21 UNK         0.5000 
    118 O         -5.2912  -16.2795  -49.7032 O.2       21 UNK        -0.5000 
    119 N         -4.6875  -16.7439  -51.8416 N.am      22 UNK        -0.5000 
    120 CA        -4.5839  -15.3743  -52.3830 C.3       22 UNK         0.1400 
    121 C         -5.9474  -14.6276  -52.5295 C.2       22 UNK         0.5000 
    122 N         -7.0863  -15.3071  -52.4699 N.am      22 UNK        -0.7600 
    123 O         -5.9798  -13.4171  -52.7353 O.2       22 UNK        -0.5000 
    124 C124       -3.5079  -14.5038  -51.6714 C.3       23 UNK        -0.0398 
    125 S125       -1.8265  -15.2177  -51.7322 S.3       23 UNK        -0.2404 
    126 C126       -1.6507  -15.8431  -50.0343 C.3       23 UNK        -0.0205 
    127 H127        5.2016   -9.0294  -50.8873 H         1 UNK         0.0600 
    128 H128        6.8451   -8.5909  -50.4155 H         1 UNK         0.0600 
    129 H129        6.5003   -9.0599  -52.0837 H         1 UNK         0.0600 
    130 H130        4.6253  -11.0794  -50.2348 H         1 UNK         0.3000 
    131 H131        6.2439  -13.3497  -50.6752 H         1 UNK         0.0600 
    132 H132        3.8789  -13.5680  -50.9033 H         1 UNK         0.0800 
    133 H133        4.4638  -14.6848  -49.7176 H         1 UNK         0.0800 
    134 H134        3.5766  -14.8948  -47.3925 H         1 UNK         0.0800 
    135 H135        2.0588  -14.1763  -46.9120 H         1 UNK         0.0800 
    136 H136        0.0955  -14.2668  -48.6628 H         1 UNK         0.1150 
    137 H137       -0.1862  -18.0633  -50.6306 H         1 UNK         0.1150 
    138 H138        3.4572  -16.9259  -48.6781 H         1 UNK         0.1150 
    139 H139        1.9040  -19.3063  -51.0587 H         1 UNK         0.0800 
    140 H140        3.4022  -18.7880  -50.3353 H         1 UNK         0.0800 
    141 H141        0.2252  -20.8281  -50.0617 H         1 UNK         0.0800 
    142 H142       -0.1874  -19.8906  -48.6469 H         1 UNK         0.0800 
    143 H143        0.8773  -22.7566  -48.5053 H         1 UNK         0.0600 
    144 H144        0.3596  -20.8908  -46.4510 H         1 UNK         0.3000 
    145 H145       -0.2975  -23.2469  -43.8155 H         1 UNK         0.0600 
    146 H146        1.4984  -21.8327  -42.8281 H         1 UNK         0.0600 
    147 H147        2.1546  -22.9716  -43.9948 H         1 UNK         0.0600 
    148 H148        1.9707  -21.2806  -44.4336 H         1 UNK         0.0600 
    149 H149       -0.3354  -20.3775  -43.9389 H         1 UNK         0.3000 
    150 H150       -3.8517  -20.0556  -44.5207 H         1 UNK         0.0600 
    151 H151       -3.5779  -20.5251  -42.0714 H         1 UNK         0.0600 
    152 H152       -3.6837  -18.8014  -42.3976 H         1 UNK         0.0600 
    153 H153       -2.1215  -19.5352  -42.0434 H         1 UNK         0.0600 
    154 H154       -1.8527  -18.1012  -44.0357 H         1 UNK         0.3000 
    155 H155       -0.7494  -17.7029  -47.4267 H         1 UNK         0.0600 
    156 H156       -1.3594  -15.3421  -46.7623 H         1 UNK         0.0600 
    157 H157       -2.4293  -15.9930  -45.5204 H         1 UNK         0.0600 
    158 H158       -2.7624  -16.3024  -47.2129 H         1 UNK         0.0600 
    159 H159        0.1164  -16.4094  -45.0673 H         1 UNK         0.3000 
    160 H160        2.4776  -18.7770  -43.9388 H         1 UNK         0.0600 
    161 H161        3.1087  -16.2916  -45.5956 H         1 UNK         0.0600 
    162 H162        3.6714  -17.9161  -45.9574 H         1 UNK         0.0600 
    163 H163        4.1974  -17.1213  -44.4820 H         1 UNK         0.0600 
    164 H164        1.9109  -15.9415  -43.4893 H         1 UNK         0.3000 
    165 H165       -0.1249  -16.6947  -40.5784 H         1 UNK         0.0600 
    166 H166        2.3192  -14.9966  -41.3134 H         1 UNK         0.0600 
    167 H167        1.3507  -14.8693  -39.8479 H         1 UNK         0.0600 
    168 H168        2.3228  -16.3043  -40.1348 H         1 UNK         0.0600 
    169 H169        0.0553  -14.2393  -41.9564 H         1 UNK         0.3000 
    170 H170       -2.9591  -14.4845  -43.8543 H         1 UNK         0.0600 
    171 H171       -3.5699  -13.8710  -41.5710 H         1 UNK         0.0600 
    172 H172       -2.1058  -12.9272  -41.3655 H         1 UNK         0.0600 
    173 H173       -3.3297  -12.4171  -42.5270 H         1 UNK         0.0600 
    174 H174       -1.4759  -13.4135  -45.0585 H         1 UNK         0.3000 
    175 H175        0.4538  -12.6484  -45.7736 H         1 UNK         0.0600 
    176 H176        0.7484  -10.2032  -46.0655 H         1 UNK         0.0600 
    177 H177       -0.8571  -10.5367  -45.4348 H         1 UNK         0.0600 
    178 H178        0.3957   -9.9272  -44.3594 H         1 UNK         0.0600 
    179 H179        2.5673  -11.1870  -44.7405 H         1 UNK         0.3000 
    180 H180        4.3960  -12.0639  -43.3424 H         1 UNK         0.0600 
    181 H181        5.0206  -14.9521  -44.1364 H         1 UNK         0.0600 
    182 H182        4.5320  -14.4345  -42.5263 H         1 UNK         0.0600 
    183 H183        6.0513  -13.8719  -43.2032 H         1 UNK         0.0600 
    184 H184        5.4530  -13.2690  -45.7792 H         1 UNK         0.3000 
    185 H185        4.9415  -10.9449  -47.9586 H         1 UNK         0.0600 
    186 H186        7.2182   -9.7886  -48.0319 H         1 UNK         0.0600 
    187 H187        6.0659   -8.9970  -46.9719 H         1 UNK         0.0600 
    188 H188        7.3366  -10.0061  -46.2915 H         1 UNK         0.0600 
    189 H189        7.1518  -12.5730  -46.7930 H         1 UNK         0.3000 
    190 H190       -2.2447  -21.2401  -47.5144 H         1 UNK         0.3000 
    191 H191       -3.8837  -22.5639  -49.3878 H         1 UNK         0.0600 
    192 H192       -4.6325  -20.6248  -48.0291 H         1 UNK         0.0600 
    193 H193       -5.7315  -21.9793  -47.8266 H         1 UNK         0.0600 
    194 H194       -4.5688  -21.5927  -46.5621 H         1 UNK         0.0600 
    195 H195       -2.9592  -23.5602  -46.0380 H         1 UNK         0.3000 
    196 H196       -4.4339  -25.9628  -45.9673 H         1 UNK         0.0600 
    197 H197       -2.9026  -26.5500  -44.0751 H         1 UNK         0.0600 
    198 H198       -3.5068  -24.9062  -43.9418 H         1 UNK         0.0600 
    199 H199       -1.8592  -25.1971  -44.4952 H         1 UNK         0.0600 
    200 H200       -1.0545  -25.3841  -47.0486 H         1 UNK         0.3000 
    201 H201       -0.3911  -28.0713  -47.6622 H         1 UNK         0.0600 
    202 H202        1.2904  -26.2650  -47.4370 H         1 UNK         0.0600 
    203 H203        0.6538  -25.4525  -48.8650 H         1 UNK         0.0600 
    204 H204        1.4323  -27.0235  -49.0159 H         1 UNK         0.0600 
    205 H205       -2.1300  -25.6239  -49.5366 H         1 UNK         0.3000 
    206 H206       -2.3639  -27.3028  -51.9428 H         1 UNK         0.0600 
    207 H207       -3.5914  -25.2905  -52.7961 H         1 UNK         0.0600 
    208 H208       -3.4618  -24.5489  -51.2033 H         1 UNK         0.0600 
    209 H209       -2.0139  -24.8605  -52.1546 H         1 UNK         0.0600 
    210 H210       -3.7925  -27.6020  -49.0243 H         1 UNK         0.3000 
    211 H211       -5.6285  -28.4552  -48.1606 H         1 UNK         0.0600 
    212 H212       -6.1763  -29.6269  -50.9390 H         1 UNK         0.0600 
    213 H213       -6.8143  -30.2194  -49.4111 H         1 UNK         0.0600 
    214 H214       -5.0932  -30.3284  -49.7373 H         1 UNK         0.0600 
    215 H215       -5.8128  -25.7761  -49.1181 H         1 UNK         0.3000 
    216 H216       -7.1246  -24.0587  -49.3387 H         1 UNK         0.0600 
    217 H217       -8.3593  -25.0475  -47.3967 H         1 UNK         0.0600 
    218 H218       -9.4794  -25.8325  -48.5103 H         1 UNK         0.0600 
    219 H219       -9.4049  -24.0794  -48.4209 H         1 UNK         0.0600 
    220 H220       -6.9760  -26.1982  -51.6564 H         1 UNK         0.3000 
    221 H221       -9.2782  -25.4658  -53.3099 H         1 UNK         0.0600 
    222 H222       -6.7464  -27.0561  -53.9793 H         1 UNK         0.0600 
    223 H223       -8.2508  -27.7505  -53.3757 H         1 UNK         0.0600 
    224 H224       -8.2101  -26.9681  -54.9489 H         1 UNK         0.0600 
    225 H225       -6.1504  -24.1193  -52.6605 H         1 UNK         0.3000 
    226 H226       -6.4080  -21.9639  -54.5075 H         1 UNK         0.0600 
    227 H227       -5.5307  -23.7361  -56.1061 H         1 UNK         0.0600 
    228 H228       -4.3461  -22.4753  -55.8519 H         1 UNK         0.0600 
    229 H229       -4.1678  -24.0203  -55.0285 H         1 UNK         0.0600 
    230 H230       -4.0143  -20.8870  -54.4487 H         1 UNK         0.3000 
    231 H231       -2.3889  -19.8655  -53.3921 H         1 UNK         0.0600 
    232 H232       -1.5444  -22.2411  -53.2929 H         1 UNK         0.0600 
    233 H233       -2.1562  -22.3580  -51.6445 H         1 UNK         0.0600 
    234 H234       -0.8787  -21.2143  -52.0380 H         1 UNK         0.0600 
    235 H235       -5.1905  -19.7635  -52.0401 H         1 UNK         0.3000 
    236 H236       -4.5033  -18.7502  -49.3595 H         1 UNK         0.0600 
    237 H237       -6.9643  -18.4830  -49.1668 H         1 UNK         0.0600 
    238 H238       -7.1725  -18.8868  -50.8672 H         1 UNK         0.0600 
    239 H239       -6.5762  -20.0990  -49.7346 H         1 UNK         0.0600 
    240 H240       -4.4880  -17.4853  -52.4957 H         1 UNK         0.3000 
    241 H241       -4.2469  -15.5054  -53.4118 H         1 UNK         0.0600 
    242 H242       -7.0840  -16.3020  -52.3157 H         1 UNK         0.3800 
    243 H243       -7.9612  -14.8179  -52.5774 H         1 UNK         0.3800 
    244 H244       -3.4393  -13.5267  -52.1522 H         1 UNK         0.0800 
    245 H245       -3.7969  -14.2997  -50.6401 H         1 UNK         0.0800 
    246 H246       -2.0586  -15.1153  -49.3319 H         1 UNK         0.0800 
    247 H247       -2.2408  -16.7519  -49.9158 H         1 UNK         0.0800 
@<TRIPOS>BOND
     1    1    2 1    
     2    1  127 1    
     3    1  128 1    
     4    1  129 1    
     5    2    3 2    
     6    2    4 am   BACKBONE|DICT|INTERRES
     7    4    5 1    
     8    4  130 1    
     9    5    6 1    
    10    5   65 1    
    11    5  131 1    
    12    6    7 1    
    13    6  132 1    
    14    6  133 1    
    15    7    8 1    
    16    8    9 1    
    17    8  134 1    
    18    8  135 1    
    19    9   10 ar   
    20    9   14 ar   
    21   10   11 ar   
    22   10  136 1    
    23   11   12 ar   
    24   11  126 1    
    25   12   13 ar   
    26   12  137 1    
    27   13   14 ar   
    28   13   15 1    
    29   14  138 1    
    30   15   16 1    
    31   15  139 1    
    32   15  140 1    
    33   16   17 1    
    34   17   18 1    
    35   17  141 1    
    36   17  142 1    
    37   18   19 1    
    38   18   67 1    
    39   18  143 1    
    40   19   20 am   BACKBONE|DICT|INTERRES
    41   19  144 1    
    42   20   21 2    
    43   20   22 1    
    44   22   23 1    
    45   22   24 1    
    46   22  145 1    
    47   23  146 1    
    48   23  147 1    
    49   23  148 1    
    50   24   25 am   BACKBONE|DICT|INTERRES
    51   24  149 1    
    52   25   26 2    
    53   25   27 1    
    54   27   28 1    
    55   27   29 1    
    56   27  150 1    
    57   28  151 1    
    58   28  152 1    
    59   28  153 1    
    60   29   30 am   BACKBONE|DICT|INTERRES
    61   29  154 1    
    62   30   31 2    
    63   30   32 1    
    64   32   33 1    
    65   32   34 1    
    66   32  155 1    
    67   33  156 1    
    68   33  157 1    
    69   33  158 1    
    70   34   35 am   BACKBONE|DICT|INTERRES
    71   34  159 1    
    72   35   36 2    
    73   35   37 1    
    74   37   38 1    
    75   37   39 1    
    76   37  160 1    
    77   38  161 1    
    78   38  162 1    
    79   38  163 1    
    80   39   40 am   BACKBONE|DICT|INTERRES
    81   39  164 1    
    82   40   41 2    
    83   40   42 1    
    84   42   43 1    
    85   42   44 1    
    86   42  165 1    
    87   43  166 1    
    88   43  167 1    
    89   43  168 1    
    90   44   45 am   BACKBONE|DICT|INTERRES
    91   44  169 1    
    92   45   46 2    
    93   45   47 1    
    94   47   48 1    
    95   47   49 1    
    96   47  170 1    
    97   48  171 1    
    98   48  172 1    
    99   48  173 1    
   100   49   50 am   BACKBONE|DICT|INTERRES
   101   49  174 1    
   102   50   51 2    
   103   50   52 1    
   104   52   53 1    
   105   52   54 1    
   106   52  175 1    
   107   53  176 1    
   108   53  177 1    
   109   53  178 1    
   110   54   55 am   BACKBONE|DICT|INTERRES
   111   54  179 1    
   112   55   56 2    
   113   55   57 1    
   114   57   58 1    
   115   57   59 1    
   116   57  180 1    
   117   58  181 1    
   118   58  182 1    
   119   58  183 1    
   120   59   60 am   BACKBONE|DICT|INTERRES
   121   59  184 1    
   122   60   61 2    
   123   60   62 1    
   124   62   63 1    
   125   62   64 1    
   126   62  185 1    
   127   63  186 1    
   128   63  187 1    
   129   63  188 1    
   130   64   65 am   BACKBONE|DICT|INTERRES
   131   64  189 1    
   132   65   66 2    
   133   67   68 2    
   134   67   69 am   BACKBONE|DICT|INTERRES
   135   69   70 1    
   136   69  190 1    
   137   70   71 1    
   138   70   72 1    
   139   70  191 1    
   140   71  192 1    
   141   71  193 1    
   142   71  194 1    
   143   72   73 2    
   144   72   74 am   BACKBONE|DICT|INTERRES
   145   74   75 1    
   146   74  195 1    
   147   75   76 1    
   148   75   77 1    
   149   75  196 1    
   150   76  197 1    
   151   76  198 1    
   152   76  199 1    
   153   77   78 2    
   154   77   79 am   BACKBONE|DICT|INTERRES
   155   79   80 1    
   156   79  200 1    
   157   80   81 1    
   158   80   82 1    
   159   80  201 1    
   160   81  202 1    
   161   81  203 1    
   162   81  204 1    
   163   82   83 2    
   164   82   84 am   BACKBONE|DICT|INTERRES
   165   84   85 1    
   166   84  205 1    
   167   85   86 1    
   168   85   87 1    
   169   85  206 1    
   170   86  207 1    
   171   86  208 1    
   172   86  209 1    
   173   87   88 2    
   174   87   89 am   BACKBONE|DICT|INTERRES
   175   89   90 1    
   176   89  210 1    
   177   90   91 1    
   178   90   92 1    
   179   90  211 1    
   180   91  212 1    
   181   91  213 1    
   182   91  214 1    
   183   92   93 2    
   184   92   94 am   BACKBONE|DICT|INTERRES
   185   94   95 1    
   186   94  215 1    
   187   95   96 1    
   188   95   97 1    
   189   95  216 1    
   190   96  217 1    
   191   96  218 1    
   192   96  219 1    
   193   97   98 2    
   194   97   99 am   BACKBONE|DICT|INTERRES
   195   99  100 1    
   196   99  220 1    
   197  100  101 1    
   198  100  102 1    
   199  100  221 1    
   200  101  222 1    
   201  101  223 1    
   202  101  224 1    
   203  102  103 2    
   204  102  104 am   BACKBONE|DICT|INTERRES
   205  104  105 1    
   206  104  225 1    
   207  105  106 1    
   208  105  107 1    
   209  105  226 1    
   210  106  227 1    
   211  106  228 1    
   212  106  229 1    
   213  107  108 2    
   214  107  109 am   BACKBONE|DICT|INTERRES
   215  109  110 1    
   216  109  230 1    
   217  110  111 1    
   218  110  112 1    
   219  110  231 1    
   220  111  232 1    
   221  111  233 1    
   222  111  234 1    
   223  112  113 2    
   224  112  114 am   BACKBONE|DICT|INTERRES
   225  114  115 1    
   226  114  235 1    
   227  115  116 1    
   228  115  117 1    
   229  115  236 1    
   230  116  237 1    
   231  116  238 1    
   232  116  239 1    
   233  117  118 2    
   234  117  119 am   BACKBONE|DICT|INTERRES
   235  119  120 1    
   236  119  240 1    
   237  120  121 1    
   238  120  124 1    
   239  120  241 1    
   240  121  122 am   BACKBONE|DICT|INTERRES
   241  121  123 2    
   242  122  242 1    
   243  122  243 1    
   244  124  125 1    
   245  124  244 1    
   246  124  245 1    
   247  125  126 1    
   248  126  246 1    
   249  126  247 1    
@<TRIPOS>SUBSTRUCTURE
     1 UNK         1 GROUP             0       ****    0 ROOT    
