@<TRIPOS>MOLECULE
3R540
247   249    1
SMALL
USER_CHARGES


@<TRIPOS>ATOM
      1 CA          4.9500  -19.5262  -44.9523 C.3       0 UNK        -0.1800 
      2 C           4.6943  -18.4360  -45.9837 C.2       0 UNK         0.5000 
      3 O           5.0296  -18.6162  -47.1534 O.2       0 UNK        -0.5000 
      4 N           4.0895  -17.3271  -45.5429 N.am      1 UNK        -0.5000 
      5 CA          3.7402  -16.1200  -46.2926 C.3       1 UNK         0.1400 
      6 C6          3.0114  -16.3951  -47.6316 C.3       23 UNK        -0.0398 
      7 S7          2.0019  -14.9834  -48.1949 S.3       23 UNK        -0.2404 
      8 C8          1.6936  -15.4526  -49.9262 C.3       23 UNK        -0.0205 
      9 C9          0.8792  -16.7333  -50.0239 C.ar      23 UNK        -0.0193 
     10 C10        -0.5157  -16.6888  -49.9507 C.ar      23 UNK        -0.1150 
     11 C11        -1.2705  -17.8639  -50.0301 C.ar      23 UNK        -0.0193 
     12 C12        -0.6107  -19.0903  -50.1519 C.ar      23 UNK        -0.1150 
     13 C13         0.7844  -19.1506  -50.2115 C.ar      23 UNK        -0.0193 
     14 C14         1.5221  -17.9657  -50.1711 C.ar      23 UNK        -0.1150 
     15 C15         1.4910  -20.4968  -50.3088 C.3       23 UNK        -0.0205 
     16 S16         2.5941  -20.8427  -48.8916 S.3       23 UNK        -0.2404 
     17 C17         1.5133  -20.6133  -47.4363 C.3       23 UNK        -0.0398 
     18 CA          0.8358  -21.9202  -46.9559 C.3       11 UNK         0.1400 
     19 N           0.4292  -21.8430  -45.5487 N.am      11 UNK        -0.5000 
     20 C          -0.1017  -22.8558  -44.8460 C.2       10 UNK         0.5000 
     21 O          -0.2220  -24.0023  -45.2749 O.2       10 UNK        -0.5000 
     22 CA         -0.6617  -22.5112  -43.4567 C.3       10 UNK         0.1400 
     23 CB          0.4511  -22.5057  -42.3986 C.3       10 UNK        -0.1800 
     24 N          -1.3575  -21.2232  -43.4689 N.am      10 UNK        -0.5000 
     25 C          -2.5342  -21.0170  -44.0801 C.2       9 UNK         0.5000 
     26 O          -3.1770  -21.9086  -44.6341 O.2       9 UNK        -0.5000 
     27 CA         -3.0606  -19.5689  -44.1161 C.3       9 UNK         0.1400 
     28 CB         -3.8800  -19.2609  -42.8545 C.3       9 UNK        -0.1800 
     29 N          -1.9916  -18.5776  -44.2530 N.am      9 UNK        -0.5000 
     30 C          -1.2087  -18.4483  -45.3341 C.2       8 UNK         0.5000 
     31 O          -1.3470  -19.1177  -46.3549 O.2       8 UNK        -0.5000 
     32 CA         -0.0358  -17.4552  -45.2353 C.3       8 UNK         0.1400 
     33 CB         -0.4473  -16.0793  -45.7699 C.3       8 UNK        -0.1800 
     34 N           0.4874  -17.3281  -43.8708 N.am      8 UNK        -0.5000 
     35 C           1.0881  -18.3316  -43.2131 C.2       7 UNK         0.5000 
     36 O           1.2825  -19.4388  -43.7200 O.2       7 UNK        -0.5000 
     37 CA          1.4881  -18.0685  -41.7448 C.3       7 UNK         0.1400 
     38 CB          2.5027  -19.0982  -41.2057 C.3       7 UNK        -0.1800 
     39 N           1.9569  -16.7020  -41.4929 N.am      7 UNK        -0.5000 
     40 C           3.0262  -16.1002  -42.0301 C.2       6 UNK         0.5000 
     41 O           3.7522  -16.6299  -42.8713 O.2       6 UNK        -0.5000 
     42 CA          3.3227  -14.6663  -41.5438 C.3       6 UNK         0.1400 
     43 CB          4.4627  -13.9965  -42.3321 C.3       6 UNK        -0.1800 
     44 N           2.1371  -13.8075  -41.5973 N.am      6 UNK        -0.5000 
     45 C           1.1803  -13.7490  -40.6592 C.2       5 UNK         0.5000 
     46 O           1.1708  -14.4743  -39.6640 O.2       5 UNK        -0.5000 
     47 CA          0.0391  -12.7310  -40.8560 C.3       5 UNK         0.1400 
     48 CB          0.2563  -11.5073  -39.9527 C.3       5 UNK        -0.1800 
     49 N          -0.1064  -12.2726  -42.2372 N.am      5 UNK        -0.5000 
     50 C          -0.5932  -13.0096  -43.2449 C.2       4 UNK         0.5000 
     51 O          -1.0011  -14.1633  -43.1106 O.2       4 UNK        -0.5000 
     52 CA         -0.5784  -12.3508  -44.6408 C.3       4 UNK         0.1400 
     53 CB         -1.8976  -11.6091  -44.9010 C.3       4 UNK        -0.1800 
     54 N           0.5461  -11.4242  -44.8248 N.am      4 UNK        -0.5000 
     55 C           1.8302  -11.8020  -44.8142 C.2       3 UNK         0.5000 
     56 O           2.1881  -12.9791  -44.6929 O.2       3 UNK        -0.5000 
     57 CA          2.8910  -10.6861  -44.8885 C.3       3 UNK         0.1400 
     58 CB          2.9478   -9.9115  -43.5615 C.3       3 UNK        -0.1800 
     59 N           4.1894  -11.3125  -45.1147 N.am      3 UNK        -0.5000 
     60 C           4.7172  -11.5396  -46.3219 C.2       2 UNK         0.5000 
     61 O           4.4165  -10.9240  -47.3447 O.2       2 UNK        -0.5000 
     62 CA          5.6164  -12.7761  -46.4015 C.3       2 UNK         0.1400 
     63 CB          6.7893  -12.7376  -45.4020 C.3       2 UNK        -0.1800 
     64 N           4.7338  -13.9094  -46.1448 N.am      2 UNK        -0.5000 
     65 C           4.9520  -15.1835  -46.4740 C.2       1 UNK         0.5000 
     66 O           6.0169  -15.6018  -46.9327 O.2       1 UNK        -0.5000 
     67 C          -0.3542  -22.3039  -47.8596 C.2       11 UNK         0.5000 
     68 O          -0.2355  -23.2289  -48.6621 O.2       11 UNK        -0.5000 
     69 N          -1.4916  -21.6181  -47.6754 N.am      12 UNK        -0.5000 
     70 CA         -2.7445  -21.8506  -48.3920 C.3       12 UNK         0.1400 
     71 CB         -3.7776  -20.7941  -47.9739 C.3       12 UNK        -0.1800 
     72 C          -3.3020  -23.2702  -48.2011 C.2       12 UNK         0.5000 
     73 O          -3.7926  -23.8560  -49.1663 O.2       12 UNK        -0.5000 
     74 N          -3.1949  -23.8031  -46.9782 N.am      13 UNK        -0.5000 
     75 CA         -3.5601  -25.1779  -46.6490 C.3       13 UNK         0.1400 
     76 CB         -3.6280  -25.3387  -45.1226 C.3       13 UNK        -0.1800 
     77 C          -2.5941  -26.2033  -47.2713 C.2       13 UNK         0.5000 
     78 O          -3.0512  -27.1737  -47.8754 O.2       13 UNK        -0.5000 
     79 N          -1.2826  -25.9678  -47.1223 N.am      14 UNK        -0.5000 
     80 CA         -0.2152  -26.8570  -47.5858 C.3       14 UNK         0.1400 
     81 CB          1.1280  -26.3948  -47.0000 C.3       14 UNK        -0.1800 
     82 C          -0.1254  -26.9638  -49.1179 C.2       14 UNK         0.5000 
     83 O           0.0070  -28.0699  -49.6432 O.2       14 UNK        -0.5000 
     84 N          -0.2045  -25.8183  -49.8065 N.am      15 UNK        -0.5000 
     85 CA         -0.1362  -25.7259  -51.2665 C.3       15 UNK         0.1400 
     86 CB          0.3539  -24.3183  -51.6476 C.3       15 UNK        -0.1800 
     87 C          -1.4827  -26.0206  -51.9549 C.2       15 UNK         0.5000 
     88 O          -1.5111  -26.1514  -53.1787 O.2       15 UNK        -0.5000 
     89 N          -2.5716  -26.0616  -51.1706 N.am      16 UNK        -0.5000 
     90 CA         -3.9804  -26.1232  -51.5852 C.3       16 UNK         0.1400 
     91 CB         -4.2862  -27.4029  -52.3891 C.3       16 UNK        -0.1800 
     92 C          -4.4607  -24.8420  -52.3030 C.2       16 UNK         0.5000 
     93 O          -5.5394  -24.8322  -52.8993 O.2       16 UNK        -0.5000 
     94 N          -3.6812  -23.7568  -52.1873 N.am      17 UNK        -0.5000 
     95 CA         -3.9699  -22.4349  -52.7390 C.3       17 UNK         0.1400 
     96 CB         -2.7053  -21.5673  -52.6804 C.3       17 UNK        -0.1800 
     97 C          -5.1677  -21.7365  -52.0662 C.2       17 UNK         0.5000 
     98 O          -5.6921  -20.7781  -52.6302 O.2       17 UNK        -0.5000 
     99 N          -5.6223  -22.2525  -50.9141 N.am      18 UNK        -0.5000 
    100 CA        -6.8873  -21.8873  -50.2726 C.3       18 UNK         0.1400 
    101 CB        -7.0222  -22.6465  -48.9420 C.3       18 UNK        -0.1800 
    102 C         -8.1162  -22.1688  -51.1612 C.2       18 UNK         0.5000 
    103 O         -9.0742  -21.3964  -51.1274 O.2       18 UNK        -0.5000 
    104 N         -8.0610  -23.2547  -51.9474 N.am      19 UNK        -0.5000 
    105 CA        -9.1077  -23.6307  -52.8981 C.3       19 UNK         0.1400 
    106 CB        -9.0345  -25.1422  -53.1641 C.3       19 UNK        -0.1800 
    107 C         -8.9993  -22.8421  -54.2152 C.2       19 UNK         0.5000 
    108 O        -10.0256  -22.5161  -54.8127 O.2       19 UNK        -0.5000 
    109 N         -7.7627  -22.5500  -54.6429 N.am      20 UNK        -0.5000 
    110 CA        -7.4654  -21.7986  -55.8651 C.3       20 UNK         0.1400 
    111 CB        -6.0018  -22.0433  -56.2633 C.3       20 UNK        -0.1800 
    112 C         -7.7311  -20.2864  -55.7300 C.2       20 UNK         0.5000 
    113 O         -8.0425  -19.6460  -56.7342 O.2       20 UNK        -0.5000 
    114 N         -7.5946  -19.7668  -54.5006 N.am      21 UNK        -0.5000 
    115 CA        -7.6086  -18.3637  -54.0841 C.3       21 UNK         0.1400 
    116 CB        -8.8948  -17.6306  -54.5166 C.3       21 UNK        -0.1800 
    117 C         -6.3251  -17.6505  -54.5478 C.2       21 UNK         0.5000 
    118 O         -6.2183  -17.2532  -55.7094 O.2       21 UNK        -0.5000 
    119 N         -5.3616  -17.5246  -53.6266 N.am      22 UNK        -0.5000 
    120 CA        -4.0426  -16.9056  -53.8512 C.3       22 UNK         0.1400 
    121 C         -4.0452  -15.3784  -54.1703 C.2       22 UNK         0.5000 
    122 N         -5.1334  -14.6506  -53.9495 N.am      22 UNK        -0.7600 
    123 O         -3.0412  -14.8478  -54.6381 O.2       22 UNK        -0.5000 
    124 C124       -3.0498  -17.2484  -52.7083 C.3       23 UNK        -0.0398 
    125 S125       -3.5601  -16.6147  -51.0708 S.3       23 UNK        -0.2404 
    126 C126       -2.7930  -17.8256  -49.9450 C.3       23 UNK        -0.0205 
    127 H127        4.4402  -20.4447  -45.2437 H         1 UNK         0.0600 
    128 H128        4.5899  -19.2394  -43.9640 H         1 UNK         0.0600 
    129 H129        6.0175  -19.7334  -44.8795 H         1 UNK         0.0600 
    130 H130        3.9218  -17.2387  -44.5408 H         1 UNK         0.3000 
    131 H131        3.0292  -15.6158  -45.6347 H         1 UNK         0.0600 
    132 H132        2.3429  -17.2488  -47.5200 H         1 UNK         0.0800 
    133 H133        3.7224  -16.6690  -48.4130 H         1 UNK         0.0800 
    134 H134        1.1626  -14.6400  -50.4240 H         1 UNK         0.0800 
    135 H135        2.6442  -15.5618  -50.4506 H         1 UNK         0.0800 
    136 H136       -1.0145  -15.7375  -49.8298 H         1 UNK         0.1150 
    137 H137       -1.1831  -20.0034  -50.1869 H         1 UNK         0.1150 
    138 H138        2.6011  -18.0091  -50.2205 H         1 UNK         0.1150 
    139 H139        0.7689  -21.3081  -50.4058 H         1 UNK         0.0800 
    140 H140        2.0848  -20.5149  -51.2235 H         1 UNK         0.0800 
    141 H141        2.1557  -20.2285  -46.6431 H         1 UNK         0.0800 
    142 H142        0.7877  -19.8222  -47.6217 H         1 UNK         0.0800 
    143 H143        1.5685  -22.7277  -47.0190 H         1 UNK         0.0600 
    144 H144        0.5152  -20.9414  -45.0951 H         1 UNK         0.3000 
    145 H145       -1.3826  -23.2846  -43.1820 H         1 UNK         0.0600 
    146 H146        0.0690  -22.2151  -41.4200 H         1 UNK         0.0600 
    147 H147        0.8878  -23.4997  -42.2955 H         1 UNK         0.0600 
    148 H148        1.2599  -21.8254  -42.6625 H         1 UNK         0.0600 
    149 H149       -0.8628  -20.4353  -43.0785 H         1 UNK         0.3000 
    150 H150       -3.7191  -19.4768  -44.9823 H         1 UNK         0.0600 
    151 H151       -4.6987  -19.9724  -42.7382 H         1 UNK         0.0600 
    152 H152       -4.3213  -18.2652  -42.9043 H         1 UNK         0.0600 
    153 H153       -3.2687  -19.3133  -41.9527 H         1 UNK         0.0600 
    154 H154       -1.8184  -17.9784  -43.4597 H         1 UNK         0.3000 
    155 H155        0.7707  -17.8355  -45.8643 H         1 UNK         0.0600 
    156 H156        0.3642  -15.3596  -45.6654 H         1 UNK         0.0600 
    157 H157       -1.3198  -15.6873  -45.2472 H         1 UNK         0.0600 
    158 H158       -0.6997  -16.1362  -46.8297 H         1 UNK         0.0600 
    159 H159        0.3473  -16.4419  -43.4047 H         1 UNK         0.3000 
    160 H160        0.5721  -18.1824  -41.1639 H         1 UNK         0.0600 
    161 H161        3.4240  -19.1047  -41.7882 H         1 UNK         0.0600 
    162 H162        2.0913  -20.1069  -41.2336 H         1 UNK         0.0600 
    163 H163        2.7641  -18.8880  -40.1687 H         1 UNK         0.0600 
    164 H164        1.4347  -16.1710  -40.8039 H         1 UNK         0.3000 
    165 H165        3.6517  -14.7468  -40.5056 H         1 UNK         0.0600 
    166 H166        4.2409  -13.9538  -43.3966 H         1 UNK         0.0600 
    167 H167        4.6452  -12.9806  -41.9817 H         1 UNK         0.0600 
    168 H168        5.3947  -14.5513  -42.2175 H         1 UNK         0.0600 
    169 H169        2.0286  -13.2527  -42.4353 H         1 UNK         0.3000 
    170 H170       -0.8907  -13.2185  -40.5552 H         1 UNK         0.0600 
    171 H171        0.3396  -11.8029  -38.9060 H         1 UNK         0.0600 
    172 H172        1.1684  -10.9697  -40.2156 H         1 UNK         0.0600 
    173 H173       -0.5784  -10.8097  -40.0254 H         1 UNK         0.0600 
    174 H174        0.2016  -11.3328  -42.4369 H         1 UNK         0.3000 
    175 H175       -0.4844  -13.1447  -45.3834 H         1 UNK         0.0600 
    176 H176       -2.0408  -10.7829  -44.2034 H         1 UNK         0.0600 
    177 H177       -1.9296  -11.2048  -45.9129 H         1 UNK         0.0600 
    178 H178       -2.7502  -12.2811  -44.7940 H         1 UNK         0.0600 
    179 H179        0.3164  -10.4462  -44.9303 H         1 UNK         0.3000 
    180 H180        2.6397  -10.0025  -45.7021 H         1 UNK         0.0600 
    181 H181        3.1404  -10.5714  -42.7142 H         1 UNK         0.0600 
    182 H182        2.0097   -9.3905  -43.3669 H         1 UNK         0.0600 
    183 H183        3.7355   -9.1580  -43.5819 H         1 UNK         0.0600 
    184 H184        4.5063  -11.9034  -44.3605 H         1 UNK         0.3000 
    185 H185        6.0112  -12.8478  -47.4171 H         1 UNK         0.0600 
    186 H186        7.4548  -13.5886  -45.5465 H         1 UNK         0.0600 
    187 H187        7.3859  -11.8348  -45.5377 H         1 UNK         0.0600 
    188 H188        6.4508  -12.7583  -44.3660 H         1 UNK         0.0600 
    189 H189        3.8144  -13.6548  -45.7937 H         1 UNK         0.3000 
    190 H190       -1.4834  -20.8298  -47.0320 H         1 UNK         0.3000 
    191 H191       -2.5350  -21.7234  -49.4523 H         1 UNK         0.0600 
    192 H192       -4.6064  -20.7593  -48.6792 H         1 UNK         0.0600 
    193 H193       -3.3425  -19.7972  -47.9467 H         1 UNK         0.0600 
    194 H194       -4.1911  -20.9977  -46.9861 H         1 UNK         0.0600 
    195 H195       -2.8371  -23.2279  -46.2239 H         1 UNK         0.3000 
    196 H196       -4.5569  -25.3700  -47.0521 H         1 UNK         0.0600 
    197 H197       -3.9202  -26.3533  -44.8492 H         1 UNK         0.0600 
    198 H198       -4.3622  -24.6596  -44.6886 H         1 UNK         0.0600 
    199 H199       -2.6667  -25.1344  -44.6502 H         1 UNK         0.0600 
    200 H200       -0.9869  -25.1526  -46.5910 H         1 UNK         0.3000 
    201 H201       -0.4244  -27.8562  -47.1980 H         1 UNK         0.0600 
    202 H202        1.1107  -26.4181  -45.9103 H         1 UNK         0.0600 
    203 H203        1.3719  -25.3773  -47.3083 H         1 UNK         0.0600 
    204 H204        1.9426  -27.0427  -47.3260 H         1 UNK         0.0600 
    205 H205       -0.2838  -24.9373  -49.2997 H         1 UNK         0.3000 
    206 H206        0.5914  -26.4511  -51.6369 H         1 UNK         0.0600 
    207 H207        1.3077  -24.0890  -51.1718 H         1 UNK         0.0600 
    208 H208        0.4994  -24.2317  -52.7251 H         1 UNK         0.0600 
    209 H209       -0.3600  -23.5488  -51.3516 H         1 UNK         0.0600 
    210 H210       -2.4270  -25.9418  -50.1769 H         1 UNK         0.3000 
    211 H211       -4.5553  -26.1760  -50.6595 H         1 UNK         0.0600 
    212 H212       -3.8265  -27.3847  -53.3773 H         1 UNK         0.0600 
    213 H213       -5.3604  -27.5226  -52.5352 H         1 UNK         0.0600 
    214 H214       -3.9297  -28.2909  -51.8671 H         1 UNK         0.0600 
    215 H215       -2.8477  -23.8448  -51.6261 H         1 UNK         0.3000 
    216 H216       -4.2280  -22.5755  -53.7889 H         1 UNK         0.0600 
    217 H217       -2.8694  -20.6127  -53.1802 H         1 UNK         0.0600 
    218 H218       -1.8691  -22.0531  -53.1838 H         1 UNK         0.0600 
    219 H219       -2.4031  -21.3563  -51.6575 H         1 UNK         0.0600 
    220 H220       -5.1011  -23.0127  -50.4901 H         1 UNK         0.3000 
    221 H221       -6.8639  -20.8160  -50.0631 H         1 UNK         0.0600 
    222 H222       -6.9850  -23.7265  -49.0903 H         1 UNK         0.0600 
    223 H223       -6.2315  -22.3812  -48.2427 H         1 UNK         0.0600 
    224 H224       -7.9699  -22.4148  -48.4541 H         1 UNK         0.0600 
    225 H225       -7.2257  -23.8275  -51.9445 H         1 UNK         0.3000 
    226 H226      -10.0834  -23.4152  -52.4571 H         1 UNK         0.0600 
    227 H227       -9.1422  -25.7109  -52.2404 H         1 UNK         0.0600 
    228 H228       -9.8338  -25.4581  -53.8355 H         1 UNK         0.0600 
    229 H229       -8.0884  -25.4277  -53.6252 H         1 UNK         0.0600 
    230 H230       -6.9770  -22.8765  -54.1001 H         1 UNK         0.3000 
    231 H231       -8.1027  -22.1815  -56.6653 H         1 UNK         0.0600 
    232 H232       -5.7921  -21.6132  -57.2435 H         1 UNK         0.0600 
    233 H233       -5.7746  -23.1081  -56.3199 H         1 UNK         0.0600 
    234 H234       -5.3116  -21.5839  -55.5561 H         1 UNK         0.0600 
    235 H235       -7.2414  -20.3944  -53.7856 H         1 UNK         0.3000 
    236 H236       -7.6074  -18.3823  -52.9929 H         1 UNK         0.0600 
    237 H237       -9.7840  -18.1718  -54.1932 H         1 UNK         0.0600 
    238 H238       -8.9378  -16.6366  -54.0706 H         1 UNK         0.0600 
    239 H239       -8.9557  -17.4996  -55.5970 H         1 UNK         0.0600 
    240 H240       -5.5178  -17.8927  -52.6992 H         1 UNK         0.3000 
    241 H241       -3.6454  -17.3762  -54.7526 H         1 UNK         0.0600 
    242 H242       -5.9611  -15.0730  -53.5618 H         1 UNK         0.3800 
    243 H243       -5.1253  -13.6661  -54.1648 H         1 UNK         0.3800 
    244 H244       -2.9366  -18.3302  -52.6433 H         1 UNK         0.0800 
    245 H245       -2.0536  -16.8633  -52.9334 H         1 UNK         0.0800 
    246 H246       -3.2178  -18.8076  -50.1576 H         1 UNK         0.0800 
    247 H247       -3.0748  -17.5780  -48.9209 H         1 UNK         0.0800 
@<TRIPOS>BOND
     1    1    2 1    
     2    1  127 1    
     3    1  128 1    
     4    1  129 1    
     5    2    3 2    
     6    2    4 am   BACKBONE|DICT|INTERRES
     7    4    5 1    
     8    4  130 1    
     9    5    6 1    
    10    5   65 1    
    11    5  131 1    
    12    6    7 1    
    13    6  132 1    
    14    6  133 1    
    15    7    8 1    
    16    8    9 1    
    17    8  134 1    
    18    8  135 1    
    19    9   10 ar   
    20    9   14 ar   
    21   10   11 ar   
    22   10  136 1    
    23   11   12 ar   
    24   11  126 1    
    25   12   13 ar   
    26   12  137 1    
    27   13   14 ar   
    28   13   15 1    
    29   14  138 1    
    30   15   16 1    
    31   15  139 1    
    32   15  140 1    
    33   16   17 1    
    34   17   18 1    
    35   17  141 1    
    36   17  142 1    
    37   18   19 1    
    38   18   67 1    
    39   18  143 1    
    40   19   20 am   BACKBONE|DICT|INTERRES
    41   19  144 1    
    42   20   21 2    
    43   20   22 1    
    44   22   23 1    
    45   22   24 1    
    46   22  145 1    
    47   23  146 1    
    48   23  147 1    
    49   23  148 1    
    50   24   25 am   BACKBONE|DICT|INTERRES
    51   24  149 1    
    52   25   26 2    
    53   25   27 1    
    54   27   28 1    
    55   27   29 1    
    56   27  150 1    
    57   28  151 1    
    58   28  152 1    
    59   28  153 1    
    60   29   30 am   BACKBONE|DICT|INTERRES
    61   29  154 1    
    62   30   31 2    
    63   30   32 1    
    64   32   33 1    
    65   32   34 1    
    66   32  155 1    
    67   33  156 1    
    68   33  157 1    
    69   33  158 1    
    70   34   35 am   BACKBONE|DICT|INTERRES
    71   34  159 1    
    72   35   36 2    
    73   35   37 1    
    74   37   38 1    
    75   37   39 1    
    76   37  160 1    
    77   38  161 1    
    78   38  162 1    
    79   38  163 1    
    80   39   40 am   BACKBONE|DICT|INTERRES
    81   39  164 1    
    82   40   41 2    
    83   40   42 1    
    84   42   43 1    
    85   42   44 1    
    86   42  165 1    
    87   43  166 1    
    88   43  167 1    
    89   43  168 1    
    90   44   45 am   BACKBONE|DICT|INTERRES
    91   44  169 1    
    92   45   46 2    
    93   45   47 1    
    94   47   48 1    
    95   47   49 1    
    96   47  170 1    
    97   48  171 1    
    98   48  172 1    
    99   48  173 1    
   100   49   50 am   BACKBONE|DICT|INTERRES
   101   49  174 1    
   102   50   51 2    
   103   50   52 1    
   104   52   53 1    
   105   52   54 1    
   106   52  175 1    
   107   53  176 1    
   108   53  177 1    
   109   53  178 1    
   110   54   55 am   BACKBONE|DICT|INTERRES
   111   54  179 1    
   112   55   56 2    
   113   55   57 1    
   114   57   58 1    
   115   57   59 1    
   116   57  180 1    
   117   58  181 1    
   118   58  182 1    
   119   58  183 1    
   120   59   60 am   BACKBONE|DICT|INTERRES
   121   59  184 1    
   122   60   61 2    
   123   60   62 1    
   124   62   63 1    
   125   62   64 1    
   126   62  185 1    
   127   63  186 1    
   128   63  187 1    
   129   63  188 1    
   130   64   65 am   BACKBONE|DICT|INTERRES
   131   64  189 1    
   132   65   66 2    
   133   67   68 2    
   134   67   69 am   BACKBONE|DICT|INTERRES
   135   69   70 1    
   136   69  190 1    
   137   70   71 1    
   138   70   72 1    
   139   70  191 1    
   140   71  192 1    
   141   71  193 1    
   142   71  194 1    
   143   72   73 2    
   144   72   74 am   BACKBONE|DICT|INTERRES
   145   74   75 1    
   146   74  195 1    
   147   75   76 1    
   148   75   77 1    
   149   75  196 1    
   150   76  197 1    
   151   76  198 1    
   152   76  199 1    
   153   77   78 2    
   154   77   79 am   BACKBONE|DICT|INTERRES
   155   79   80 1    
   156   79  200 1    
   157   80   81 1    
   158   80   82 1    
   159   80  201 1    
   160   81  202 1    
   161   81  203 1    
   162   81  204 1    
   163   82   83 2    
   164   82   84 am   BACKBONE|DICT|INTERRES
   165   84   85 1    
   166   84  205 1    
   167   85   86 1    
   168   85   87 1    
   169   85  206 1    
   170   86  207 1    
   171   86  208 1    
   172   86  209 1    
   173   87   88 2    
   174   87   89 am   BACKBONE|DICT|INTERRES
   175   89   90 1    
   176   89  210 1    
   177   90   91 1    
   178   90   92 1    
   179   90  211 1    
   180   91  212 1    
   181   91  213 1    
   182   91  214 1    
   183   92   93 2    
   184   92   94 am   BACKBONE|DICT|INTERRES
   185   94   95 1    
   186   94  215 1    
   187   95   96 1    
   188   95   97 1    
   189   95  216 1    
   190   96  217 1    
   191   96  218 1    
   192   96  219 1    
   193   97   98 2    
   194   97   99 am   BACKBONE|DICT|INTERRES
   195   99  100 1    
   196   99  220 1    
   197  100  101 1    
   198  100  102 1    
   199  100  221 1    
   200  101  222 1    
   201  101  223 1    
   202  101  224 1    
   203  102  103 2    
   204  102  104 am   BACKBONE|DICT|INTERRES
   205  104  105 1    
   206  104  225 1    
   207  105  106 1    
   208  105  107 1    
   209  105  226 1    
   210  106  227 1    
   211  106  228 1    
   212  106  229 1    
   213  107  108 2    
   214  107  109 am   BACKBONE|DICT|INTERRES
   215  109  110 1    
   216  109  230 1    
   217  110  111 1    
   218  110  112 1    
   219  110  231 1    
   220  111  232 1    
   221  111  233 1    
   222  111  234 1    
   223  112  113 2    
   224  112  114 am   BACKBONE|DICT|INTERRES
   225  114  115 1    
   226  114  235 1    
   227  115  116 1    
   228  115  117 1    
   229  115  236 1    
   230  116  237 1    
   231  116  238 1    
   232  116  239 1    
   233  117  118 2    
   234  117  119 am   BACKBONE|DICT|INTERRES
   235  119  120 1    
   236  119  240 1    
   237  120  121 1    
   238  120  124 1    
   239  120  241 1    
   240  121  122 am   BACKBONE|DICT|INTERRES
   241  121  123 2    
   242  122  242 1    
   243  122  243 1    
   244  124  125 1    
   245  124  244 1    
   246  124  245 1    
   247  125  126 1    
   248  126  246 1    
   249  126  247 1    
@<TRIPOS>SUBSTRUCTURE
     1 UNK         1 GROUP             0       ****    0 ROOT    
