@<TRIPOS>MOLECULE
3R540
247   249    1
SMALL
USER_CHARGES


@<TRIPOS>ATOM
      1 CA          3.8809  -11.8389  -45.3519 C.3       0 UNK        -0.1800 
      2 C           2.7688  -12.7289  -45.8848 C.2       0 UNK         0.5000 
      3 O           1.7396  -12.8840  -45.2230 O.2       0 UNK        -0.5000 
      4 N           2.9582  -13.3063  -47.0803 N.am      1 UNK        -0.5000 
      5 CA          2.0147  -14.2085  -47.7526 C.3       1 UNK         0.1400 
      6 C6          2.7209  -15.1421  -48.7723 C.3       23 UNK        -0.0398 
      7 S7          1.8884  -16.7613  -48.8803 S.3       23 UNK        -0.2404 
      8 C8          1.0773  -16.6731  -50.5072 C.3       23 UNK        -0.0205 
      9 C9          0.0675  -17.7982  -50.6435 C.ar      23 UNK        -0.0193 
     10 C10        -1.2907  -17.5610  -50.4201 C.ar      23 UNK        -0.1150 
     11 C11        -2.2145  -18.6079  -50.4880 C.ar      23 UNK        -0.0193 
     12 C12        -1.7619  -19.9060  -50.7442 C.ar      23 UNK        -0.1150 
     13 C13        -0.4015  -20.1597  -50.9516 C.ar      23 UNK        -0.0193 
     14 C14         0.5002  -19.0903  -50.9443 C.ar      23 UNK        -0.1150 
     15 C15         0.0745  -21.5945  -51.1638 C.3       23 UNK        -0.0205 
     16 S16         1.6585  -22.0286  -50.3477 S.3       23 UNK        -0.2404 
     17 C17         1.5364  -21.3039  -48.6711 C.3       23 UNK        -0.0398 
     18 CA          0.9162  -22.2401  -47.6095 C.3       11 UNK         0.1400 
     19 N           1.2993  -21.8168  -46.2639 N.am      11 UNK        -0.5000 
     20 C           1.0334  -22.4493  -45.1154 C.2       10 UNK         0.5000 
     21 O           0.3472  -23.4693  -45.0503 O.2       10 UNK        -0.5000 
     22 CA          1.5872  -21.8231  -43.8155 C.3       10 UNK         0.1400 
     23 CB          2.3696  -22.8509  -42.9758 C.3       10 UNK        -0.1800 
     24 N           2.3692  -20.5898  -44.0020 N.am      10 UNK        -0.5000 
     25 C           3.5442  -20.4321  -44.6338 C.2       9 UNK         0.5000 
     26 O           4.1791  -21.3464  -45.1579 O.2       9 UNK        -0.5000 
     27 CA          4.0779  -18.9924  -44.7250 C.3       9 UNK         0.1400 
     28 CB          3.5059  -18.2863  -45.9631 C.3       9 UNK        -0.1800 
     29 N           3.7554  -18.2150  -43.5283 N.am      9 UNK        -0.5000 
     30 C           4.4508  -18.3002  -42.3856 C.2       8 UNK         0.5000 
     31 O           5.4440  -19.0123  -42.2333 O.2       8 UNK        -0.5000 
     32 CA          3.9346  -17.4569  -41.2140 C.3       8 UNK         0.1400 
     33 CB          4.2364  -15.9666  -41.4399 C.3       8 UNK        -0.1800 
     34 N           2.4969  -17.6456  -41.0349 N.am      8 UNK        -0.5000 
     35 C           1.9500  -18.6333  -40.3161 C.2       7 UNK         0.5000 
     36 O           2.6029  -19.5062  -39.7436 O.2       7 UNK        -0.5000 
     37 CA          0.4194  -18.6428  -40.2059 C.3       7 UNK         0.1400 
     38 CB         -0.0864  -17.4121  -39.4333 C.3       7 UNK        -0.1800 
     39 N          -0.2281  -18.6845  -41.5191 N.am      7 UNK        -0.5000 
     40 C          -1.0583  -19.6603  -41.9150 C.2       6 UNK         0.5000 
     41 O          -1.2381  -20.6980  -41.2783 O.2       6 UNK        -0.5000 
     42 CA         -1.8504  -19.4555  -43.2217 C.3       6 UNK         0.1400 
     43 CB         -3.3566  -19.3800  -42.9149 C.3       6 UNK        -0.1800 
     44 N          -1.4671  -18.2375  -43.9356 N.am      6 UNK        -0.5000 
     45 C          -0.6470  -18.1846  -44.9921 C.2       5 UNK         0.5000 
     46 O          -0.1376  -19.1779  -45.5123 O.2       5 UNK        -0.5000 
     47 CA         -0.3449  -16.7835  -45.5631 C.3       5 UNK         0.1400 
     48 CB         -1.2576  -16.4985  -46.7643 C.3       5 UNK        -0.1800 
     49 N          -0.4677  -15.6900  -44.5892 N.am      5 UNK        -0.5000 
     50 C           0.2575  -15.5732  -43.4668 C.2       4 UNK         0.5000 
     51 O           1.0901  -16.4123  -43.1149 O.2       4 UNK        -0.5000 
     52 CA         -0.0203  -14.3504  -42.5743 C.3       4 UNK         0.1400 
     53 CB          1.1919  -13.9651  -41.7078 C.3       4 UNK        -0.1800 
     54 N          -0.4175  -13.1913  -43.3703 N.am      4 UNK        -0.5000 
     55 C          -1.4569  -12.3896  -43.1041 C.2       3 UNK         0.5000 
     56 O          -2.2661  -12.5932  -42.1983 O.2       3 UNK        -0.5000 
     57 CA         -1.6178  -11.1412  -43.9902 C.3       3 UNK         0.1400 
     58 CB         -0.8192   -9.9669  -43.4036 C.3       3 UNK        -0.1800 
     59 N          -1.1821  -11.3683  -45.3677 N.am      3 UNK        -0.5000 
     60 C          -1.9215  -11.9729  -46.3082 C.2       2 UNK         0.5000 
     61 O          -3.0583  -12.4053  -46.1205 O.2       2 UNK        -0.5000 
     62 CA         -1.2444  -12.1686  -47.6690 C.3       2 UNK         0.1400 
     63 CB         -1.0321  -10.8247  -48.3927 C.3       2 UNK        -0.1800 
     64 N           0.0177  -12.8582  -47.4382 N.am      2 UNK        -0.5000 
     65 C           0.8073  -13.4401  -48.3408 C.2       1 UNK         0.5000 
     66 O           0.6219  -13.3751  -49.5558 O.2       1 UNK        -0.5000 
     67 C          -0.6107  -22.3231  -47.7674 C.2       11 UNK         0.5000 
     68 O          -1.1139  -23.3204  -48.2838 O.2       11 UNK        -0.5000 
     69 N          -1.3238  -21.2961  -47.2819 N.am      12 UNK        -0.5000 
     70 CA         -2.7816  -21.2225  -47.3642 C.3       12 UNK         0.1400 
     71 CB         -3.2562  -19.8162  -46.9808 C.3       12 UNK        -0.1800 
     72 C          -3.4748  -22.2857  -46.4981 C.2       12 UNK         0.5000 
     73 O          -4.5127  -22.8041  -46.9049 O.2       12 UNK        -0.5000 
     74 N          -2.8709  -22.6180  -45.3493 N.am      13 UNK        -0.5000 
     75 CA         -3.3364  -23.6746  -44.4534 C.3       13 UNK         0.1400 
     76 CB         -2.6613  -23.5239  -43.0814 C.3       13 UNK        -0.1800 
     77 C          -3.0849  -25.0738  -45.0406 C.2       13 UNK         0.5000 
     78 O          -3.9717  -25.9252  -44.9781 O.2       13 UNK        -0.5000 
     79 N          -1.8911  -25.2759  -45.6155 N.am      14 UNK        -0.5000 
     80 CA         -1.4699  -26.5265  -46.2448 C.3       14 UNK         0.1400 
     81 CB          0.0362  -26.4623  -46.5432 C.3       14 UNK        -0.1800 
     82 C          -2.2649  -26.8552  -47.5210 C.2       14 UNK         0.5000 
     83 O          -2.6961  -27.9965  -47.6907 O.2       14 UNK        -0.5000 
     84 N          -2.4444  -25.8542  -48.3924 N.am      15 UNK        -0.5000 
     85 CA         -3.1379  -25.9969  -49.6730 C.3       15 UNK         0.1400 
     86 CB         -2.6626  -24.8844  -50.6199 C.3       15 UNK        -0.1800 
     87 C          -4.6724  -25.9581  -49.5538 C.2       15 UNK         0.5000 
     88 O          -5.3485  -26.4296  -50.4685 O.2       15 UNK        -0.5000 
     89 N          -5.1859  -25.3748  -48.4586 N.am      16 UNK        -0.5000 
     90 CA         -6.5763  -24.9427  -48.2612 C.3       16 UNK         0.1400 
     91 CB         -7.5560  -26.1353  -48.2625 C.3       16 UNK        -0.1800 
     92 C          -6.9451  -23.8286  -49.2663 C.2       16 UNK         0.5000 
     93 O          -7.9736  -23.9025  -49.9419 O.2       16 UNK        -0.5000 
     94 N          -6.0531  -22.8295  -49.3461 N.am      17 UNK        -0.5000 
     95 CA         -6.0143  -21.7185  -50.3012 C.3       17 UNK         0.1400 
     96 CB         -7.1881  -20.7478  -50.0476 C.3       17 UNK        -0.1800 
     97 C          -5.9001  -22.1938  -51.7686 C.2       17 UNK         0.5000 
     98 O          -5.3821  -23.2834  -52.0178 O.2       17 UNK        -0.5000 
     99 N          -6.3412  -21.3516  -52.7142 N.am      18 UNK        -0.5000 
    100 CA        -6.4668  -21.5592  -54.1664 C.3       18 UNK         0.1400 
    101 CB        -7.4538  -22.7020  -54.4696 C.3       18 UNK        -0.1800 
    102 C         -5.1553  -21.7513  -54.9587 C.2       18 UNK         0.5000 
    103 O         -5.1027  -21.3452  -56.1212 O.2       18 UNK        -0.5000 
    104 N         -4.1310  -22.3579  -54.3472 N.am      19 UNK        -0.5000 
    105 CA        -2.8088  -22.6146  -54.9200 C.3       19 UNK         0.1400 
    106 CB        -1.9405  -23.3383  -53.8821 C.3       19 UNK        -0.1800 
    107 C         -2.1268  -21.3250  -55.4100 C.2       19 UNK         0.5000 
    108 O         -1.9805  -20.3798  -54.6324 O.2       19 UNK        -0.5000 
    109 N         -1.7815  -21.2980  -56.7065 N.am      20 UNK        -0.5000 
    110 CA        -1.2263  -20.1581  -57.4523 C.3       20 UNK         0.1400 
    111 CB         0.2120  -19.8585  -56.9804 C.3       20 UNK        -0.1800 
    112 C         -2.1302  -18.9031  -57.4221 C.2       20 UNK         0.5000 
    113 O         -1.6268  -17.7804  -57.5029 O.2       20 UNK        -0.5000 
    114 N         -3.4452  -19.1143  -57.2400 N.am      21 UNK        -0.5000 
    115 CA        -4.4859  -18.1095  -56.9878 C.3       21 UNK         0.1400 
    116 CB        -4.7247  -17.2508  -58.2470 C.3       21 UNK        -0.1800 
    117 C         -4.2219  -17.2540  -55.7264 C.2       21 UNK         0.5000 
    118 O         -4.7481  -16.1445  -55.6238 O.2       21 UNK        -0.5000 
    119 N         -3.3929  -17.7708  -54.8067 N.am      22 UNK        -0.5000 
    120 CA        -2.8249  -17.0662  -53.6475 C.3       22 UNK         0.1400 
    121 C         -1.8968  -15.8663  -54.0176 C.2       22 UNK         0.5000 
    122 N         -1.3463  -15.8018  -55.2260 N.am      22 UNK        -0.7600 
    123 O         -1.6437  -14.9903  -53.1954 O.2       22 UNK        -0.5000 
    124 C124       -3.8884  -16.7215  -52.5670 C.3       23 UNK        -0.0398 
    125 S125       -4.6192  -18.2260  -51.8326 S.3       23 UNK        -0.2404 
    126 C126       -3.6963  -18.3367  -50.2660 C.3       23 UNK        -0.0205 
    127 H127        3.5091  -10.8255  -45.2016 H         1 UNK         0.0600 
    128 H128        4.2351  -12.2188  -44.3936 H         1 UNK         0.0600 
    129 H129        4.7285  -11.7944  -46.0360 H         1 UNK         0.0600 
    130 H130        3.8072  -13.1058  -47.5898 H         1 UNK         0.3000 
    131 H131        1.6103  -14.8480  -46.9652 H         1 UNK         0.0600 
    132 H132        2.8251  -14.6860  -49.7583 H         1 UNK         0.0800 
    133 H133        3.7385  -15.3512  -48.4397 H         1 UNK         0.0800 
    134 H134        1.8276  -16.7426  -51.2961 H         1 UNK         0.0800 
    135 H135        0.5806  -15.7113  -50.6332 H         1 UNK         0.0800 
    136 H136       -1.6261  -16.5596  -50.1895 H         1 UNK         0.1150 
    137 H137       -2.4713  -20.7206  -50.7775 H         1 UNK         0.1150 
    138 H138        1.5529  -19.2708  -51.1093 H         1 UNK         0.1150 
    139 H139       -0.6856  -22.2966  -50.8192 H         1 UNK         0.0800 
    140 H140        0.1833  -21.7629  -52.2357 H         1 UNK         0.0800 
    141 H141        1.0324  -20.3378  -48.6815 H         1 UNK         0.0800 
    142 H142        2.5642  -21.0751  -48.3851 H         1 UNK         0.0800 
    143 H143        1.3206  -23.2445  -47.7508 H         1 UNK         0.0600 
    144 H144        1.8212  -20.9565  -46.1987 H         1 UNK         0.3000 
    145 H145        0.7110  -21.5361  -43.2361 H         1 UNK         0.0600 
    146 H146        2.7196  -22.4106  -42.0419 H         1 UNK         0.0600 
    147 H147        1.7404  -23.7031  -42.7159 H         1 UNK         0.0600 
    148 H148        3.2364  -23.2389  -43.5111 H         1 UNK         0.0600 
    149 H149        1.9361  -19.7531  -43.6406 H         1 UNK         0.3000 
    150 H150        5.1634  -19.0396  -44.8375 H         1 UNK         0.0600 
    151 H151        3.8171  -18.7919  -46.8781 H         1 UNK         0.0600 
    152 H152        3.8508  -17.2543  -46.0297 H         1 UNK         0.0600 
    153 H153        2.4175  -18.2772  -45.9543 H         1 UNK         0.0600 
    154 H154        2.9559  -17.5954  -43.5702 H         1 UNK         0.3000 
    155 H155        4.4593  -17.7713  -40.3090 H         1 UNK         0.0600 
    156 H156        3.7405  -15.5808  -42.3313 H         1 UNK         0.0600 
    157 H157        5.3073  -15.8010  -41.5639 H         1 UNK         0.0600 
    158 H158        3.9127  -15.3668  -40.5893 H         1 UNK         0.0600 
    159 H159        1.8972  -17.0163  -41.5582 H         1 UNK         0.3000 
    160 H160        0.1549  -19.5231  -39.6161 H         1 UNK         0.0600 
    161 H161       -1.1575  -17.4844  -39.2437 H         1 UNK         0.0600 
    162 H162        0.0912  -16.4852  -39.9783 H         1 UNK         0.0600 
    163 H163        0.4086  -17.3257  -38.4651 H         1 UNK         0.0600 
    164 H164       -0.0611  -17.9015  -42.1369 H         1 UNK         0.3000 
    165 H165       -1.6734  -20.3312  -43.8484 H         1 UNK         0.0600 
    166 H166       -3.9467  -19.2647  -43.8233 H         1 UNK         0.0600 
    167 H167       -3.7061  -20.2864  -42.4198 H         1 UNK         0.0600 
    168 H168       -3.5903  -18.5403  -42.2592 H         1 UNK         0.0600 
    169 H169       -1.8618  -17.3731  -43.5946 H         1 UNK         0.3000 
    170 H170        0.6865  -16.7923  -45.9150 H         1 UNK         0.0600 
    171 H171       -1.1253  -17.2572  -47.5363 H         1 UNK         0.0600 
    172 H172       -2.3108  -16.4951  -46.4809 H         1 UNK         0.0600 
    173 H173       -1.0308  -15.5367  -47.2210 H         1 UNK         0.0600 
    174 H174       -1.1523  -14.9752  -44.7890 H         1 UNK         0.3000 
    175 H175       -0.8316  -14.6480  -41.9075 H         1 UNK         0.0600 
    176 H176        2.0556  -13.7089  -42.3226 H         1 UNK         0.0600 
    177 H177        0.9659  -13.1052  -41.0771 H         1 UNK         0.0600 
    178 H178        1.4836  -14.7789  -41.0446 H         1 UNK         0.0600 
    179 H179        0.2292  -12.9429  -44.1150 H         1 UNK         0.3000 
    180 H180       -2.6746  -10.8653  -43.9926 H         1 UNK         0.0600 
    181 H181        0.2511  -10.1769  -43.3835 H         1 UNK         0.0600 
    182 H182       -1.1315   -9.7547  -42.3802 H         1 UNK         0.0600 
    183 H183       -0.9724   -9.0570  -43.9842 H         1 UNK         0.0600 
    184 H184       -0.2594  -11.0351  -45.6073 H         1 UNK         0.3000 
    185 H185       -1.8851  -12.8071  -48.2808 H         1 UNK         0.0600 
    186 H186       -1.9716  -10.2778  -48.4817 H         1 UNK         0.0600 
    187 H187       -0.3266  -10.1845  -47.8621 H         1 UNK         0.0600 
    188 H188       -0.6509  -10.9728  -49.4028 H         1 UNK         0.0600 
    189 H189        0.3130  -12.9297  -46.4691 H         1 UNK         0.3000 
    190 H190       -0.8427  -20.5307  -46.8188 H         1 UNK         0.3000 
    191 H191       -3.0666  -21.4042  -48.4023 H         1 UNK         0.0600 
    192 H192       -3.0546  -19.5981  -45.9350 H         1 UNK         0.0600 
    193 H193       -4.3307  -19.7105  -47.1354 H         1 UNK         0.0600 
    194 H194       -2.7606  -19.0544  -47.5804 H         1 UNK         0.0600 
    195 H195       -1.9817  -22.1940  -45.1349 H         1 UNK         0.3000 
    196 H196       -4.4135  -23.5586  -44.3139 H         1 UNK         0.0600 
    197 H197       -2.9934  -24.3049  -42.3964 H         1 UNK         0.0600 
    198 H198       -2.9094  -22.5675  -42.6230 H         1 UNK         0.0600 
    199 H199       -1.5752  -23.5899  -43.1499 H         1 UNK         0.0600 
    200 H200       -1.1974  -24.5346  -45.5800 H         1 UNK         0.3000 
    201 H201       -1.6386  -27.3349  -45.5303 H         1 UNK         0.0600 
    202 H202        0.3843  -27.3875  -47.0041 H         1 UNK         0.0600 
    203 H203        0.6124  -26.3166  -45.6293 H         1 UNK         0.0600 
    204 H204        0.2778  -25.6440  -47.2227 H         1 UNK         0.0600 
    205 H205       -2.0182  -24.9485  -48.2062 H         1 UNK         0.3000 
    206 H206       -2.8643  -26.9564  -50.1171 H         1 UNK         0.0600 
    207 H207       -1.5824  -24.9155  -50.7633 H         1 UNK         0.0600 
    208 H208       -3.1277  -24.9914  -51.5997 H         1 UNK         0.0600 
    209 H209       -2.9253  -23.8947  -50.2437 H         1 UNK         0.0600 
    210 H210       -4.5314  -25.0284  -47.7700 H         1 UNK         0.3000 
    211 H211       -6.6199  -24.4916  -47.2690 H         1 UNK         0.0600 
    212 H212       -7.6422  -26.5978  -49.2458 H         1 UNK         0.0600 
    213 H213       -8.5555  -25.8127  -47.9694 H         1 UNK         0.0600 
    214 H214       -7.2417  -26.9033  -47.5558 H         1 UNK         0.0600 
    215 H215       -5.2835  -22.8673  -48.6861 H         1 UNK         0.3000 
    216 H216       -5.0881  -21.1857  -50.0907 H         1 UNK         0.0600 
    217 H217       -8.1432  -21.1806  -50.3475 H         1 UNK         0.0600 
    218 H218       -7.0609  -19.8124  -50.5929 H         1 UNK         0.0600 
    219 H219       -7.2585  -20.4882  -48.9912 H         1 UNK         0.0600 
    220 H220       -6.6793  -20.4539  -52.3970 H         1 UNK         0.3000 
    221 H221       -6.9117  -20.6388  -54.5479 H         1 UNK         0.0600 
    222 H222       -7.0799  -23.6648  -54.1199 H         1 UNK         0.0600 
    223 H223       -8.4193  -22.5254  -53.9956 H         1 UNK         0.0600 
    224 H224       -7.6300  -22.7915  -55.5423 H         1 UNK         0.0600 
    225 H225       -4.3018  -22.7040  -53.4073 H         1 UNK         0.3000 
    226 H226       -2.9449  -23.2837  -55.7719 H         1 UNK         0.0600 
    227 H227       -2.3144  -24.3449  -53.6985 H         1 UNK         0.0600 
    228 H228       -0.9090  -23.4344  -54.2237 H         1 UNK         0.0600 
    229 H229       -1.9287  -22.8042  -52.9322 H         1 UNK         0.0600 
    230 H230       -1.9698  -22.1201  -57.2637 H         1 UNK         0.3000 
    231 H231       -1.1752  -20.4679  -58.4969 H         1 UNK         0.0600 
    232 H232        0.8325  -20.7540  -57.0131 H         1 UNK         0.0600 
    233 H233        0.2311  -19.4744  -55.9598 H         1 UNK         0.0600 
    234 H234        0.6878  -19.1132  -57.6187 H         1 UNK         0.0600 
    235 H235       -3.7597  -20.0727  -57.1313 H         1 UNK         0.3000 
    236 H236       -5.4034  -18.6641  -56.7875 H         1 UNK         0.0600 
    237 H237       -5.5953  -16.6059  -58.1226 H         1 UNK         0.0600 
    238 H238       -3.8716  -16.6085  -58.4671 H         1 UNK         0.0600 
    239 H239       -4.9091  -17.8756  -59.1209 H         1 UNK         0.0600 
    240 H240       -3.0092  -18.6982  -54.9590 H         1 UNK         0.3000 
    241 H241       -2.1366  -17.7849  -53.2029 H         1 UNK         0.0600 
    242 H242       -1.5264  -16.5128  -55.9272 H         1 UNK         0.3800 
    243 H243       -0.7424  -15.0272  -55.4495 H         1 UNK         0.3800 
    244 H244       -3.4584  -16.1199  -51.7659 H         1 UNK         0.0800 
    245 H245       -4.6881  -16.1132  -52.9897 H         1 UNK         0.0800 
    246 H246       -3.8379  -17.4185  -49.6938 H         1 UNK         0.0800 
    247 H247       -4.1273  -19.1333  -49.6619 H         1 UNK         0.0800 
@<TRIPOS>BOND
     1    1    2 1    
     2    1  127 1    
     3    1  128 1    
     4    1  129 1    
     5    2    3 2    
     6    2    4 am   BACKBONE|DICT|INTERRES
     7    4    5 1    
     8    4  130 1    
     9    5    6 1    
    10    5   65 1    
    11    5  131 1    
    12    6    7 1    
    13    6  132 1    
    14    6  133 1    
    15    7    8 1    
    16    8    9 1    
    17    8  134 1    
    18    8  135 1    
    19    9   10 ar   
    20    9   14 ar   
    21   10   11 ar   
    22   10  136 1    
    23   11   12 ar   
    24   11  126 1    
    25   12   13 ar   
    26   12  137 1    
    27   13   14 ar   
    28   13   15 1    
    29   14  138 1    
    30   15   16 1    
    31   15  139 1    
    32   15  140 1    
    33   16   17 1    
    34   17   18 1    
    35   17  141 1    
    36   17  142 1    
    37   18   19 1    
    38   18   67 1    
    39   18  143 1    
    40   19   20 am   BACKBONE|DICT|INTERRES
    41   19  144 1    
    42   20   21 2    
    43   20   22 1    
    44   22   23 1    
    45   22   24 1    
    46   22  145 1    
    47   23  146 1    
    48   23  147 1    
    49   23  148 1    
    50   24   25 am   BACKBONE|DICT|INTERRES
    51   24  149 1    
    52   25   26 2    
    53   25   27 1    
    54   27   28 1    
    55   27   29 1    
    56   27  150 1    
    57   28  151 1    
    58   28  152 1    
    59   28  153 1    
    60   29   30 am   BACKBONE|DICT|INTERRES
    61   29  154 1    
    62   30   31 2    
    63   30   32 1    
    64   32   33 1    
    65   32   34 1    
    66   32  155 1    
    67   33  156 1    
    68   33  157 1    
    69   33  158 1    
    70   34   35 am   BACKBONE|DICT|INTERRES
    71   34  159 1    
    72   35   36 2    
    73   35   37 1    
    74   37   38 1    
    75   37   39 1    
    76   37  160 1    
    77   38  161 1    
    78   38  162 1    
    79   38  163 1    
    80   39   40 am   BACKBONE|DICT|INTERRES
    81   39  164 1    
    82   40   41 2    
    83   40   42 1    
    84   42   43 1    
    85   42   44 1    
    86   42  165 1    
    87   43  166 1    
    88   43  167 1    
    89   43  168 1    
    90   44   45 am   BACKBONE|DICT|INTERRES
    91   44  169 1    
    92   45   46 2    
    93   45   47 1    
    94   47   48 1    
    95   47   49 1    
    96   47  170 1    
    97   48  171 1    
    98   48  172 1    
    99   48  173 1    
   100   49   50 am   BACKBONE|DICT|INTERRES
   101   49  174 1    
   102   50   51 2    
   103   50   52 1    
   104   52   53 1    
   105   52   54 1    
   106   52  175 1    
   107   53  176 1    
   108   53  177 1    
   109   53  178 1    
   110   54   55 am   BACKBONE|DICT|INTERRES
   111   54  179 1    
   112   55   56 2    
   113   55   57 1    
   114   57   58 1    
   115   57   59 1    
   116   57  180 1    
   117   58  181 1    
   118   58  182 1    
   119   58  183 1    
   120   59   60 am   BACKBONE|DICT|INTERRES
   121   59  184 1    
   122   60   61 2    
   123   60   62 1    
   124   62   63 1    
   125   62   64 1    
   126   62  185 1    
   127   63  186 1    
   128   63  187 1    
   129   63  188 1    
   130   64   65 am   BACKBONE|DICT|INTERRES
   131   64  189 1    
   132   65   66 2    
   133   67   68 2    
   134   67   69 am   BACKBONE|DICT|INTERRES
   135   69   70 1    
   136   69  190 1    
   137   70   71 1    
   138   70   72 1    
   139   70  191 1    
   140   71  192 1    
   141   71  193 1    
   142   71  194 1    
   143   72   73 2    
   144   72   74 am   BACKBONE|DICT|INTERRES
   145   74   75 1    
   146   74  195 1    
   147   75   76 1    
   148   75   77 1    
   149   75  196 1    
   150   76  197 1    
   151   76  198 1    
   152   76  199 1    
   153   77   78 2    
   154   77   79 am   BACKBONE|DICT|INTERRES
   155   79   80 1    
   156   79  200 1    
   157   80   81 1    
   158   80   82 1    
   159   80  201 1    
   160   81  202 1    
   161   81  203 1    
   162   81  204 1    
   163   82   83 2    
   164   82   84 am   BACKBONE|DICT|INTERRES
   165   84   85 1    
   166   84  205 1    
   167   85   86 1    
   168   85   87 1    
   169   85  206 1    
   170   86  207 1    
   171   86  208 1    
   172   86  209 1    
   173   87   88 2    
   174   87   89 am   BACKBONE|DICT|INTERRES
   175   89   90 1    
   176   89  210 1    
   177   90   91 1    
   178   90   92 1    
   179   90  211 1    
   180   91  212 1    
   181   91  213 1    
   182   91  214 1    
   183   92   93 2    
   184   92   94 am   BACKBONE|DICT|INTERRES
   185   94   95 1    
   186   94  215 1    
   187   95   96 1    
   188   95   97 1    
   189   95  216 1    
   190   96  217 1    
   191   96  218 1    
   192   96  219 1    
   193   97   98 2    
   194   97   99 am   BACKBONE|DICT|INTERRES
   195   99  100 1    
   196   99  220 1    
   197  100  101 1    
   198  100  102 1    
   199  100  221 1    
   200  101  222 1    
   201  101  223 1    
   202  101  224 1    
   203  102  103 2    
   204  102  104 am   BACKBONE|DICT|INTERRES
   205  104  105 1    
   206  104  225 1    
   207  105  106 1    
   208  105  107 1    
   209  105  226 1    
   210  106  227 1    
   211  106  228 1    
   212  106  229 1    
   213  107  108 2    
   214  107  109 am   BACKBONE|DICT|INTERRES
   215  109  110 1    
   216  109  230 1    
   217  110  111 1    
   218  110  112 1    
   219  110  231 1    
   220  111  232 1    
   221  111  233 1    
   222  111  234 1    
   223  112  113 2    
   224  112  114 am   BACKBONE|DICT|INTERRES
   225  114  115 1    
   226  114  235 1    
   227  115  116 1    
   228  115  117 1    
   229  115  236 1    
   230  116  237 1    
   231  116  238 1    
   232  116  239 1    
   233  117  118 2    
   234  117  119 am   BACKBONE|DICT|INTERRES
   235  119  120 1    
   236  119  240 1    
   237  120  121 1    
   238  120  124 1    
   239  120  241 1    
   240  121  122 am   BACKBONE|DICT|INTERRES
   241  121  123 2    
   242  122  242 1    
   243  122  243 1    
   244  124  125 1    
   245  124  244 1    
   246  124  245 1    
   247  125  126 1    
   248  126  246 1    
   249  126  247 1    
@<TRIPOS>SUBSTRUCTURE
     1 UNK         1 GROUP             0       ****    0 ROOT    
