@<TRIPOS>MOLECULE
3R540
247   249    1
SMALL
USER_CHARGES


@<TRIPOS>ATOM
      1 CA         -4.6165  -15.0318  -49.3866 C.3       0 UNK        -0.1800 
      2 C          -4.2304  -16.1806  -48.4565 C.2       0 UNK         0.5000 
      3 O          -5.0353  -17.0870  -48.2639 O.2       0 UNK        -0.5000 
      4 N          -3.0341  -16.1910  -47.8476 N.am      1 UNK        -0.5000 
      5 CA         -1.9576  -15.1881  -47.9438 C.3       1 UNK         0.1400 
      6 C6         -0.5707  -15.7692  -47.5607 C.3       23 UNK        -0.0398 
      7 S7         -0.1916  -17.3735  -48.3540 S.3       23 UNK        -0.2404 
      8 C8          1.1652  -16.9307  -49.4840 C.3       23 UNK        -0.0205 
      9 C9          1.6802  -18.1542  -50.2301 C.ar      23 UNK        -0.0193 
     10 C10         1.3491  -18.3648  -51.5722 C.ar      23 UNK        -0.1150 
     11 C11         1.8044  -19.4951  -52.2586 C.ar      23 UNK        -0.0193 
     12 C12         2.6171  -20.4127  -51.5784 C.ar      23 UNK        -0.1150 
     13 C13         2.9591  -20.2222  -50.2365 C.ar      23 UNK        -0.0193 
     14 C14         2.4951  -19.0798  -49.5738 C.ar      23 UNK        -0.1150 
     15 C15         3.8476  -21.2602  -49.5486 C.3       23 UNK        -0.0205 
     16 S16         3.5678  -21.4593  -47.7553 S.3       23 UNK        -0.2404 
     17 C17         1.7884  -21.8732  -47.7014 C.3       23 UNK        -0.0398 
     18 CA          1.4100  -22.8227  -46.5327 C.3       11 UNK         0.1400 
     19 N           1.8730  -22.3111  -45.2418 N.am      11 UNK        -0.5000 
     20 C           2.5243  -23.0131  -44.3100 C.2       10 UNK         0.5000 
     21 O           2.7443  -24.2219  -44.3901 O.2       10 UNK        -0.5000 
     22 CA          2.9934  -22.2322  -43.0702 C.3       10 UNK         0.1400 
     23 CB          4.2871  -21.4635  -43.3795 C.3       10 UNK        -0.1800 
     24 N           1.9810  -21.3046  -42.5604 N.am      10 UNK        -0.5000 
     25 C           0.8325  -21.6853  -41.9829 C.2       9 UNK         0.5000 
     26 O           0.5077  -22.8626  -41.8270 O.2       9 UNK        -0.5000 
     27 CA         -0.1099  -20.5712  -41.4917 C.3       9 UNK         0.1400 
     28 CB          0.3784  -19.9939  -40.1544 C.3       9 UNK        -0.1800 
     29 N          -0.2541  -19.4898  -42.4634 N.am      9 UNK        -0.5000 
     30 C          -0.9388  -19.5849  -43.6117 C.2       8 UNK         0.5000 
     31 O          -1.5869  -20.5756  -43.9443 O.2       8 UNK        -0.5000 
     32 CA         -0.8740  -18.3715  -44.5589 C.3       8 UNK         0.1400 
     33 CB         -1.9389  -17.3321  -44.1706 C.3       8 UNK        -0.1800 
     34 N           0.4510  -17.7463  -44.5882 N.am      8 UNK        -0.5000 
     35 C           1.5696  -18.3664  -44.9941 C.2       7 UNK         0.5000 
     36 O           1.5968  -19.5207  -45.4129 O.2       7 UNK        -0.5000 
     37 CA          2.8902  -17.5951  -44.8457 C.3       7 UNK         0.1400 
     38 CB          3.1164  -16.6489  -46.0337 C.3       7 UNK        -0.1800 
     39 N           2.9376  -16.8475  -43.5899 N.am      7 UNK        -0.5000 
     40 C           3.0539  -17.4171  -42.3814 C.2       6 UNK         0.5000 
     41 O           3.1710  -18.6292  -42.2056 O.2       6 UNK        -0.5000 
     42 CA          2.9754  -16.4795  -41.1632 C.3       6 UNK         0.1400 
     43 CB          4.3385  -15.8269  -40.8900 C.3       6 UNK        -0.1800 
     44 N           1.9607  -15.4388  -41.3283 N.am      6 UNK        -0.5000 
     45 C           0.6433  -15.6743  -41.4033 C.2       5 UNK         0.5000 
     46 O           0.1416  -16.7910  -41.2785 O.2       5 UNK        -0.5000 
     47 CA         -0.2580  -14.4674  -41.7203 C.3       5 UNK         0.1400 
     48 CB         -0.7020  -13.7670  -40.4283 C.3       5 UNK        -0.1800 
     49 N           0.3652  -13.4855  -42.6111 N.am      5 UNK        -0.5000 
     50 C           0.7681  -13.7253  -43.8657 C.2       4 UNK         0.5000 
     51 O           0.7204  -14.8373  -44.3932 O.2       4 UNK        -0.5000 
     52 CA          1.2682  -12.5030  -44.6587 C.3       4 UNK         0.1400 
     53 CB          1.9173  -12.8785  -46.0006 C.3       4 UNK        -0.1800 
     54 N           0.1472  -11.6007  -44.9060 N.am      4 UNK        -0.5000 
     55 C          -0.3030  -10.6918  -44.0303 C.2       3 UNK         0.5000 
     56 O           0.2717  -10.4220  -42.9744 O.2       3 UNK        -0.5000 
     57 CA         -1.6471  -10.0149  -44.3551 C.3       3 UNK         0.1400 
     58 CB         -1.4195   -8.6998  -45.1152 C.3       3 UNK        -0.1800 
     59 N          -2.5573  -10.8641  -45.1269 N.am      3 UNK        -0.5000 
     60 C          -3.0647  -12.0385  -44.7235 C.2       2 UNK         0.5000 
     61 O          -2.8265  -12.5521  -43.6300 O.2       2 UNK        -0.5000 
     62 CA         -4.0068  -12.7648  -45.7023 C.3       2 UNK         0.1400 
     63 CB         -4.6673  -11.8264  -46.7376 C.3       2 UNK        -0.1800 
     64 N          -3.3689  -13.8975  -46.3807 N.am      2 UNK        -0.5000 
     65 C          -2.2669  -13.8933  -47.1495 C.2       1 UNK         0.5000 
     66 O          -1.5282  -12.9161  -47.2806 O.2       1 UNK        -0.5000 
     67 C          -0.1103  -23.0857  -46.4862 C.2       11 UNK         0.5000 
     68 O          -0.7865  -22.8950  -47.4947 O.2       11 UNK        -0.5000 
     69 N          -0.6307  -23.5050  -45.3213 N.am      12 UNK        -0.5000 
     70 CA         -2.0585  -23.7113  -45.0483 C.3       12 UNK         0.1400 
     71 CB         -2.2453  -24.0327  -43.5581 C.3       12 UNK        -0.1800 
     72 C          -2.7342  -24.7947  -45.9118 C.2       12 UNK         0.5000 
     73 O          -3.9475  -24.7279  -46.1234 O.2       12 UNK        -0.5000 
     74 N          -1.9431  -25.7633  -46.3930 N.am      13 UNK        -0.5000 
     75 CA         -2.3623  -26.8520  -47.2756 C.3       13 UNK         0.1400 
     76 CB         -1.1462  -27.7433  -47.5695 C.3       13 UNK        -0.1800 
     77 C          -2.9903  -26.3527  -48.5913 C.2       13 UNK         0.5000 
     78 O          -2.6084  -25.2942  -49.0957 O.2       13 UNK        -0.5000 
     79 N          -3.9416  -27.1362  -49.1187 N.am      14 UNK        -0.5000 
     80 CA         -4.7138  -26.8705  -50.3389 C.3       14 UNK         0.1400 
     81 CB         -3.8092  -26.9636  -51.5867 C.3       14 UNK        -0.1800 
     82 C          -5.5028  -25.5454  -50.2669 C.2       14 UNK         0.5000 
     83 O          -5.5277  -24.7924  -51.2400 O.2       14 UNK        -0.5000 
     84 N          -6.1116  -25.2811  -49.1000 N.am      15 UNK        -0.5000 
     85 CA         -6.8741  -24.0752  -48.7565 C.3       15 UNK         0.1400 
     86 CB         -8.1790  -24.0009  -49.5777 C.3       15 UNK        -0.1800 
     87 C          -6.0154  -22.8001  -48.8734 C.2       15 UNK         0.5000 
     88 O          -6.3280  -21.9085  -49.6655 O.2       15 UNK        -0.5000 
     89 N          -4.9210  -22.7675  -48.0996 N.am      16 UNK        -0.5000 
     90 CA         -3.9105  -21.7057  -48.0582 C.3       16 UNK         0.1400 
     91 CB         -4.4930  -20.4159  -47.4439 C.3       16 UNK        -0.1800 
     92 C          -3.2428  -21.4795  -49.4294 C.2       16 UNK         0.5000 
     93 O          -3.1782  -20.3445  -49.9027 O.2       16 UNK        -0.5000 
     94 N          -2.8070  -22.5795  -50.0620 N.am      17 UNK        -0.5000 
     95 CA         -2.2086  -22.6456  -51.3974 C.3       17 UNK         0.1400 
     96 CB         -0.8088  -21.9995  -51.3885 C.3       17 UNK        -0.1800 
     97 C          -3.1383  -22.0631  -52.4825 C.2       17 UNK         0.5000 
     98 O          -2.7177  -21.2167  -53.2736 O.2       17 UNK        -0.5000 
     99 N          -4.4035  -22.5080  -52.4677 N.am      18 UNK        -0.5000 
    100 CA        -5.5192  -22.0486  -53.2982 C.3       18 UNK         0.1400 
    101 CB        -5.3041  -22.4669  -54.7682 C.3       18 UNK        -0.1800 
    102 C         -5.7860  -20.5394  -53.1257 C.2       18 UNK         0.5000 
    103 O         -5.8820  -19.8132  -54.1148 O.2       18 UNK        -0.5000 
    104 N         -5.8506  -20.0904  -51.8633 N.am      19 UNK        -0.5000 
    105 CA        -5.9380  -18.6913  -51.4284 C.3       19 UNK         0.1400 
    106 CB        -7.3357  -18.1146  -51.7312 C.3       19 UNK        -0.1800 
    107 C         -4.7877  -17.8307  -51.9971 C.2       19 UNK         0.5000 
    108 O         -5.0241  -16.7647  -52.5684 O.2       19 UNK        -0.5000 
    109 N         -3.5622  -18.3503  -51.8520 N.am      20 UNK        -0.5000 
    110 CA        -2.2806  -17.8152  -52.3147 C.3       20 UNK         0.1400 
    111 CB        -1.9808  -16.4608  -51.6456 C.3       20 UNK        -0.1800 
    112 C         -2.1005  -17.7528  -53.8459 C.2       20 UNK         0.5000 
    113 O         -1.1405  -17.1312  -54.3051 O.2       20 UNK        -0.5000 
    114 N         -2.9821  -18.3989  -54.6213 N.am      21 UNK        -0.5000 
    115 CA        -2.8735  -18.4689  -56.0795 C.3       21 UNK         0.1400 
    116 CB        -4.2401  -18.8186  -56.6856 C.3       21 UNK        -0.1800 
    117 C         -1.8065  -19.4732  -56.5532 C.2       21 UNK         0.5000 
    118 O         -1.2346  -19.2731  -57.6254 O.2       21 UNK        -0.5000 
    119 N         -1.5673  -20.5332  -55.7661 N.am      22 UNK        -0.5000 
    120 CA        -0.6469  -21.6479  -56.0594 C.3       22 UNK         0.1400 
    121 C         -1.0368  -22.5176  -57.2983 C.2       22 UNK         0.5000 
    122 N         -2.2611  -22.4392  -57.8062 N.am      22 UNK        -0.7600 
    123 O         -0.2370  -23.3119  -57.7862 O.2       22 UNK        -0.5000 
    124 C124        0.8500  -21.2045  -56.0476 C.3       23 UNK        -0.0398 
    125 S125        1.5901  -21.3614  -54.3894 S.3       23 UNK        -0.2404 
    126 C126        1.4067  -19.6700  -53.7282 C.3       23 UNK        -0.0205 
    127 H127       -5.4765  -15.3138  -49.9945 H         1 UNK         0.0600 
    128 H128       -3.8136  -14.7665  -50.0709 H         1 UNK         0.0600 
    129 H129       -4.8923  -14.1487  -48.8129 H         1 UNK         0.0600 
    130 H130       -2.8072  -16.9922  -47.2775 H         1 UNK         0.3000 
    131 H131       -1.8757  -14.8793  -48.9856 H         1 UNK         0.0600 
    132 H132       -0.4950  -15.9089  -46.4845 H         1 UNK         0.0800 
    133 H133        0.2134  -15.0584  -47.8211 H         1 UNK         0.0800 
    134 H134        0.8189  -16.1702  -50.1847 H         1 UNK         0.0800 
    135 H135        1.9812  -16.4804  -48.9180 H         1 UNK         0.0800 
    136 H136        0.7349  -17.6439  -52.0905 H         1 UNK         0.1150 
    137 H137        2.9947  -21.2867  -52.0878 H         1 UNK         0.1150 
    138 H138        2.7521  -18.9125  -48.5382 H         1 UNK         0.1150 
    139 H139        3.7159  -22.2354  -50.0201 H         1 UNK         0.0800 
    140 H140        4.8895  -20.9799  -49.7070 H         1 UNK         0.0800 
    141 H141        1.5104  -22.3266  -48.6544 H         1 UNK         0.0800 
    142 H142        1.2267  -20.9395  -47.6364 H         1 UNK         0.0800 
    143 H143        1.8808  -23.7865  -46.7357 H         1 UNK         0.0600 
    144 H144        1.7439  -21.3091  -45.1092 H         1 UNK         0.3000 
    145 H145        3.2126  -22.9575  -42.2838 H         1 UNK         0.0600 
    146 H146        5.0616  -22.1344  -43.7532 H         1 UNK         0.0600 
    147 H147        4.1259  -20.6946  -44.1360 H         1 UNK         0.0600 
    148 H148        4.6806  -20.9780  -42.4864 H         1 UNK         0.0600 
    149 H149        2.2070  -20.3159  -42.6082 H         1 UNK         0.3000 
    150 H150       -1.0938  -21.0157  -41.3271 H         1 UNK         0.0600 
    151 H151        0.4824  -20.7786  -39.4041 H         1 UNK         0.0600 
    152 H152       -0.3261  -19.2598  -39.7627 H         1 UNK         0.0600 
    153 H153        1.3474  -19.5038  -40.2554 H         1 UNK         0.0600 
    154 H154        0.1873  -18.6062  -42.2328 H         1 UNK         0.3000 
    155 H155       -1.0922  -18.7251  -45.5689 H         1 UNK         0.0600 
    156 H156       -1.9122  -16.4555  -44.8152 H         1 UNK         0.0600 
    157 H157       -1.8108  -16.9912  -43.1438 H         1 UNK         0.0600 
    158 H158       -2.9396  -17.7593  -44.2468 H         1 UNK         0.0600 
    159 H159        0.5161  -16.7764  -44.2944 H         1 UNK         0.3000 
    160 H160        3.7058  -18.3214  -44.8376 H         1 UNK         0.0600 
    161 H161        2.2792  -15.9670  -46.1789 H         1 UNK         0.0600 
    162 H162        3.2350  -17.2173  -46.9556 H         1 UNK         0.0600 
    163 H163        4.0198  -16.0536  -45.9025 H         1 UNK         0.0600 
    164 H164        2.7675  -15.8543  -43.6481 H         1 UNK         0.3000 
    165 H165        2.7047  -17.0837  -40.2946 H         1 UNK         0.0600 
    166 H166        4.3102  -15.2192  -39.9854 H         1 UNK         0.0600 
    167 H167        5.1110  -16.5839  -40.7476 H         1 UNK         0.0600 
    168 H168        4.6538  -15.1872  -41.7152 H         1 UNK         0.0600 
    169 H169        2.2869  -14.4902  -41.4396 H         1 UNK         0.3000 
    170 H170       -1.1495  -14.8447  -42.2248 H         1 UNK         0.0600 
    171 H171       -1.1917  -14.4688  -39.7518 H         1 UNK         0.0600 
    172 H172        0.1434  -13.3304  -39.8952 H         1 UNK         0.0600 
    173 H173       -1.4150  -12.9696  -40.6397 H         1 UNK         0.0600 
    174 H174        0.3998  -12.5294  -42.2798 H         1 UNK         0.3000 
    175 H175        2.0261  -11.9999  -44.0547 H         1 UNK         0.0600 
    176 H176        2.3012  -11.9949  -46.5105 H         1 UNK         0.0600 
    177 H177        2.7573  -13.5578  -45.8530 H         1 UNK         0.0600 
    178 H178        1.2086  -13.3642  -46.6689 H         1 UNK         0.0600 
    179 H179       -0.4211  -11.8072  -45.7198 H         1 UNK         0.3000 
    180 H180       -2.1349   -9.7833  -43.4060 H         1 UNK         0.0600 
    181 H181       -0.9585   -8.8725  -46.0886 H         1 UNK         0.0600 
    182 H182       -0.7630   -8.0330  -44.5545 H         1 UNK         0.0600 
    183 H183       -2.3581   -8.1691  -45.2765 H         1 UNK         0.0600 
    184 H184       -2.7933  -10.5411  -46.0539 H         1 UNK         0.3000 
    185 H185       -4.8072  -13.1839  -45.0906 H         1 UNK         0.0600 
    186 H186       -5.1372  -10.9705  -46.2511 H         1 UNK         0.0600 
    187 H187       -3.9536  -11.4448  -47.4685 H         1 UNK         0.0600 
    188 H188       -5.4522  -12.3463  -47.2862 H         1 UNK         0.0600 
    189 H189       -3.8644  -14.7745  -46.3037 H         1 UNK         0.3000 
    190 H190       -0.0049  -23.6113  -44.5355 H         1 UNK         0.3000 
    191 H191       -2.5720  -22.7707  -45.2523 H         1 UNK         0.0600 
    192 H192       -1.6730  -24.9118  -43.2595 H         1 UNK         0.0600 
    193 H193       -1.9296  -23.1965  -42.9351 H         1 UNK         0.0600 
    194 H194       -3.2933  -24.2257  -43.3248 H         1 UNK         0.0600 
    195 H195       -0.9575  -25.7066  -46.1868 H         1 UNK         0.3000 
    196 H196       -3.1071  -27.4408  -46.7365 H         1 UNK         0.0600 
    197 H197       -1.4218  -28.5872  -48.2034 H         1 UNK         0.0600 
    198 H198       -0.7242  -28.1530  -46.6516 H         1 UNK         0.0600 
    199 H199       -0.3594  -27.1901  -48.0843 H         1 UNK         0.0600 
    200 H200       -4.1836  -27.9886  -48.6323 H         1 UNK         0.3000 
    201 H201       -5.4593  -27.6633  -50.4138 H         1 UNK         0.0600 
    202 H202       -3.2774  -27.9144  -51.6177 H         1 UNK         0.0600 
    203 H203       -3.0681  -26.1643  -51.6130 H         1 UNK         0.0600 
    204 H204       -4.3976  -26.8920  -52.5021 H         1 UNK         0.0600 
    205 H205       -5.9970  -25.9503  -48.3519 H         1 UNK         0.3000 
    206 H206       -7.1521  -24.1683  -47.7056 H         1 UNK         0.0600 
    207 H207       -8.7797  -24.9006  -49.4449 H         1 UNK         0.0600 
    208 H208       -8.7885  -23.1536  -49.2615 H         1 UNK         0.0600 
    209 H209       -7.9860  -23.8817  -50.6443 H         1 UNK         0.0600 
    210 H210       -4.7269  -23.5673  -47.5033 H         1 UNK         0.3000 
    211 H211       -3.1301  -22.0511  -47.3865 H         1 UNK         0.0600 
    212 H212       -5.2721  -19.9813  -48.0707 H         1 UNK         0.0600 
    213 H213       -3.7168  -19.6596  -47.3208 H         1 UNK         0.0600 
    214 H214       -4.9195  -20.6054  -46.4592 H         1 UNK         0.0600 
    215 H215       -2.8751  -23.4743  -49.5818 H         1 UNK         0.3000 
    216 H216       -2.0852  -23.7046  -51.6274 H         1 UNK         0.0600 
    217 H217       -0.3077  -22.1564  -52.3423 H         1 UNK         0.0600 
    218 H218       -0.1772  -22.4349  -50.6143 H         1 UNK         0.0600 
    219 H219       -0.8542  -20.9238  -51.2154 H         1 UNK         0.0600 
    220 H220       -4.6580  -23.2272  -51.7943 H         1 UNK         0.3000 
    221 H221       -6.4089  -22.5628  -52.9318 H         1 UNK         0.0600 
    222 H222       -4.4303  -21.9841  -55.2057 H         1 UNK         0.0600 
    223 H223       -5.1662  -23.5448  -54.8522 H         1 UNK         0.0600 
    224 H224       -6.1664  -22.2013  -55.3806 H         1 UNK         0.0600 
    225 H225       -5.7914  -20.7728  -51.1104 H         1 UNK         0.3000 
    226 H226       -5.8106  -18.7014  -50.3451 H         1 UNK         0.0600 
    227 H227       -8.1189  -18.7301  -51.2887 H         1 UNK         0.0600 
    228 H228       -7.4392  -17.1106  -51.3180 H         1 UNK         0.0600 
    229 H229       -7.5245  -18.0495  -52.8032 H         1 UNK         0.0600 
    230 H230       -3.4849  -19.2173  -51.3211 H         1 UNK         0.3000 
    231 H231       -1.5363  -18.5292  -51.9611 H         1 UNK         0.0600 
    232 H232       -2.6757  -15.6857  -51.9674 H         1 UNK         0.0600 
    233 H233       -0.9776  -16.1073  -51.8811 H         1 UNK         0.0600 
    234 H234       -2.0448  -16.5531  -50.5646 H         1 UNK         0.0600 
    235 H235       -3.7445  -18.9050  -54.1876 H         1 UNK         0.3000 
    236 H236       -2.5899  -17.4825  -56.4527 H         1 UNK         0.0600 
    237 H237       -5.0102  -18.1214  -56.3548 H         1 UNK         0.0600 
    238 H238       -4.2054  -18.7735  -57.7747 H         1 UNK         0.0600 
    239 H239       -4.5575  -19.8245  -56.4115 H         1 UNK         0.0600 
    240 H240       -2.0791  -20.6213  -54.8895 H         1 UNK         0.3000 
    241 H241       -0.7940  -22.3447  -55.2334 H         1 UNK         0.0600 
    242 H242       -2.5074  -23.0150  -58.5959 H         1 UNK         0.3800 
    243 H243       -2.9384  -21.8059  -57.4149 H         1 UNK         0.3800 
    244 H244        1.4640  -21.8222  -56.7039 H         1 UNK         0.0800 
    245 H245        0.9768  -20.1870  -56.4177 H         1 UNK         0.0800 
    246 H246        0.3631  -19.3808  -53.8479 H         1 UNK         0.0800 
    247 H247        1.9963  -18.9832  -54.3365 H         1 UNK         0.0800 
@<TRIPOS>BOND
     1    1    2 1    
     2    1  127 1    
     3    1  128 1    
     4    1  129 1    
     5    2    3 2    
     6    2    4 am   BACKBONE|DICT|INTERRES
     7    4    5 1    
     8    4  130 1    
     9    5    6 1    
    10    5   65 1    
    11    5  131 1    
    12    6    7 1    
    13    6  132 1    
    14    6  133 1    
    15    7    8 1    
    16    8    9 1    
    17    8  134 1    
    18    8  135 1    
    19    9   10 ar   
    20    9   14 ar   
    21   10   11 ar   
    22   10  136 1    
    23   11   12 ar   
    24   11  126 1    
    25   12   13 ar   
    26   12  137 1    
    27   13   14 ar   
    28   13   15 1    
    29   14  138 1    
    30   15   16 1    
    31   15  139 1    
    32   15  140 1    
    33   16   17 1    
    34   17   18 1    
    35   17  141 1    
    36   17  142 1    
    37   18   19 1    
    38   18   67 1    
    39   18  143 1    
    40   19   20 am   BACKBONE|DICT|INTERRES
    41   19  144 1    
    42   20   21 2    
    43   20   22 1    
    44   22   23 1    
    45   22   24 1    
    46   22  145 1    
    47   23  146 1    
    48   23  147 1    
    49   23  148 1    
    50   24   25 am   BACKBONE|DICT|INTERRES
    51   24  149 1    
    52   25   26 2    
    53   25   27 1    
    54   27   28 1    
    55   27   29 1    
    56   27  150 1    
    57   28  151 1    
    58   28  152 1    
    59   28  153 1    
    60   29   30 am   BACKBONE|DICT|INTERRES
    61   29  154 1    
    62   30   31 2    
    63   30   32 1    
    64   32   33 1    
    65   32   34 1    
    66   32  155 1    
    67   33  156 1    
    68   33  157 1    
    69   33  158 1    
    70   34   35 am   BACKBONE|DICT|INTERRES
    71   34  159 1    
    72   35   36 2    
    73   35   37 1    
    74   37   38 1    
    75   37   39 1    
    76   37  160 1    
    77   38  161 1    
    78   38  162 1    
    79   38  163 1    
    80   39   40 am   BACKBONE|DICT|INTERRES
    81   39  164 1    
    82   40   41 2    
    83   40   42 1    
    84   42   43 1    
    85   42   44 1    
    86   42  165 1    
    87   43  166 1    
    88   43  167 1    
    89   43  168 1    
    90   44   45 am   BACKBONE|DICT|INTERRES
    91   44  169 1    
    92   45   46 2    
    93   45   47 1    
    94   47   48 1    
    95   47   49 1    
    96   47  170 1    
    97   48  171 1    
    98   48  172 1    
    99   48  173 1    
   100   49   50 am   BACKBONE|DICT|INTERRES
   101   49  174 1    
   102   50   51 2    
   103   50   52 1    
   104   52   53 1    
   105   52   54 1    
   106   52  175 1    
   107   53  176 1    
   108   53  177 1    
   109   53  178 1    
   110   54   55 am   BACKBONE|DICT|INTERRES
   111   54  179 1    
   112   55   56 2    
   113   55   57 1    
   114   57   58 1    
   115   57   59 1    
   116   57  180 1    
   117   58  181 1    
   118   58  182 1    
   119   58  183 1    
   120   59   60 am   BACKBONE|DICT|INTERRES
   121   59  184 1    
   122   60   61 2    
   123   60   62 1    
   124   62   63 1    
   125   62   64 1    
   126   62  185 1    
   127   63  186 1    
   128   63  187 1    
   129   63  188 1    
   130   64   65 am   BACKBONE|DICT|INTERRES
   131   64  189 1    
   132   65   66 2    
   133   67   68 2    
   134   67   69 am   BACKBONE|DICT|INTERRES
   135   69   70 1    
   136   69  190 1    
   137   70   71 1    
   138   70   72 1    
   139   70  191 1    
   140   71  192 1    
   141   71  193 1    
   142   71  194 1    
   143   72   73 2    
   144   72   74 am   BACKBONE|DICT|INTERRES
   145   74   75 1    
   146   74  195 1    
   147   75   76 1    
   148   75   77 1    
   149   75  196 1    
   150   76  197 1    
   151   76  198 1    
   152   76  199 1    
   153   77   78 2    
   154   77   79 am   BACKBONE|DICT|INTERRES
   155   79   80 1    
   156   79  200 1    
   157   80   81 1    
   158   80   82 1    
   159   80  201 1    
   160   81  202 1    
   161   81  203 1    
   162   81  204 1    
   163   82   83 2    
   164   82   84 am   BACKBONE|DICT|INTERRES
   165   84   85 1    
   166   84  205 1    
   167   85   86 1    
   168   85   87 1    
   169   85  206 1    
   170   86  207 1    
   171   86  208 1    
   172   86  209 1    
   173   87   88 2    
   174   87   89 am   BACKBONE|DICT|INTERRES
   175   89   90 1    
   176   89  210 1    
   177   90   91 1    
   178   90   92 1    
   179   90  211 1    
   180   91  212 1    
   181   91  213 1    
   182   91  214 1    
   183   92   93 2    
   184   92   94 am   BACKBONE|DICT|INTERRES
   185   94   95 1    
   186   94  215 1    
   187   95   96 1    
   188   95   97 1    
   189   95  216 1    
   190   96  217 1    
   191   96  218 1    
   192   96  219 1    
   193   97   98 2    
   194   97   99 am   BACKBONE|DICT|INTERRES
   195   99  100 1    
   196   99  220 1    
   197  100  101 1    
   198  100  102 1    
   199  100  221 1    
   200  101  222 1    
   201  101  223 1    
   202  101  224 1    
   203  102  103 2    
   204  102  104 am   BACKBONE|DICT|INTERRES
   205  104  105 1    
   206  104  225 1    
   207  105  106 1    
   208  105  107 1    
   209  105  226 1    
   210  106  227 1    
   211  106  228 1    
   212  106  229 1    
   213  107  108 2    
   214  107  109 am   BACKBONE|DICT|INTERRES
   215  109  110 1    
   216  109  230 1    
   217  110  111 1    
   218  110  112 1    
   219  110  231 1    
   220  111  232 1    
   221  111  233 1    
   222  111  234 1    
   223  112  113 2    
   224  112  114 am   BACKBONE|DICT|INTERRES
   225  114  115 1    
   226  114  235 1    
   227  115  116 1    
   228  115  117 1    
   229  115  236 1    
   230  116  237 1    
   231  116  238 1    
   232  116  239 1    
   233  117  118 2    
   234  117  119 am   BACKBONE|DICT|INTERRES
   235  119  120 1    
   236  119  240 1    
   237  120  121 1    
   238  120  124 1    
   239  120  241 1    
   240  121  122 am   BACKBONE|DICT|INTERRES
   241  121  123 2    
   242  122  242 1    
   243  122  243 1    
   244  124  125 1    
   245  124  244 1    
   246  124  245 1    
   247  125  126 1    
   248  126  246 1    
   249  126  247 1    
@<TRIPOS>SUBSTRUCTURE
     1 UNK         1 GROUP             0       ****    0 ROOT    
