@<TRIPOS>MOLECULE
3R540
247   249    1
SMALL
USER_CHARGES


@<TRIPOS>ATOM
      1 CA         -4.0763  -18.1528  -44.4753 C.3       0 UNK        -0.1800 
      2 C          -4.3507  -16.9701  -45.3921 C.2       0 UNK         0.5000 
      3 O          -5.5106  -16.6273  -45.6207 O.2       0 UNK        -0.5000 
      4 N          -3.2864  -16.3593  -45.9265 N.am      1 UNK        -0.5000 
      5 CA         -3.3403  -15.1955  -46.8177 C.3       1 UNK         0.1400 
      6 C6         -1.9733  -14.9101  -47.4856 C.3       23 UNK        -0.0398 
      7 S7         -1.3747  -16.3453  -48.4333 S.3       23 UNK        -0.2404 
      8 C8          0.3206  -15.8261  -48.8384 C.3       23 UNK        -0.0205 
      9 C9          1.0971  -16.9240  -49.5575 C.ar      23 UNK        -0.0193 
     10 C10         1.6442  -16.6915  -50.8238 C.ar      23 UNK        -0.1150 
     11 C11         2.3932  -17.6757  -51.4793 C.ar      23 UNK        -0.0193 
     12 C12         2.5865  -18.9099  -50.8439 C.ar      23 UNK        -0.1150 
     13 C13         2.0364  -19.1626  -49.5844 C.ar      23 UNK        -0.0193 
     14 C14         1.2967  -18.1655  -48.9462 C.ar      23 UNK        -0.1150 
     15 C15         2.2694  -20.5059  -48.9102 C.3       23 UNK        -0.0205 
     16 S16         1.0468  -21.7481  -49.4274 S.3       23 UNK        -0.2404 
     17 C17        -0.3780  -21.3847  -48.3460 C.3       23 UNK        -0.0398 
     18 CA         -0.7286  -22.5669  -47.4120 C.3       11 UNK         0.1400 
     19 N           0.3861  -22.9946  -46.5614 N.am      11 UNK        -0.5000 
     20 C           0.4206  -24.1693  -45.9170 C.2       10 UNK         0.5000 
     21 O          -0.4890  -24.9973  -45.9730 O.2       10 UNK        -0.5000 
     22 CA          1.6466  -24.4501  -45.0293 C.3       10 UNK         0.1400 
     23 CB          2.7174  -25.2070  -45.8284 C.3       10 UNK        -0.1800 
     24 N           2.2570  -23.2600  -44.4292 N.am      10 UNK        -0.5000 
     25 C           1.6521  -22.3560  -43.6486 C.2       9 UNK         0.5000 
     26 O           0.4429  -22.3616  -43.4201 O.2       9 UNK        -0.5000 
     27 CA          2.5289  -21.2383  -43.0461 C.3       9 UNK         0.1400 
     28 CB          3.2274  -21.7165  -41.7599 C.3       9 UNK        -0.1800 
     29 N           3.4834  -20.6284  -43.9847 N.am      9 UNK        -0.5000 
     30 C           4.5513  -21.1758  -44.5884 C.2       8 UNK         0.5000 
     31 O           4.9115  -22.3393  -44.4057 O.2       8 UNK        -0.5000 
     32 CA          5.3196  -20.3065  -45.6044 C.3       8 UNK         0.1400 
     33 CB          5.5429  -21.0735  -46.9194 C.3       8 UNK        -0.1800 
     34 N           4.6132  -19.0583  -45.9053 N.am      8 UNK        -0.5000 
     35 C           4.9673  -17.8473  -45.4583 C.2       7 UNK         0.5000 
     36 O           5.9576  -17.6313  -44.7594 O.2       7 UNK        -0.5000 
     37 CA          4.0383  -16.6796  -45.8419 C.3       7 UNK         0.1400 
     38 CB          4.4429  -16.0991  -47.2063 C.3       7 UNK        -0.1800 
     39 N           2.6140  -17.0273  -45.8837 N.am      7 UNK        -0.5000 
     40 C           1.8896  -17.4692  -44.8470 C.2       6 UNK         0.5000 
     41 O           2.3620  -17.7600  -43.7472 O.2       6 UNK        -0.5000 
     42 CA          0.3815  -17.6579  -45.0938 C.3       6 UNK         0.1400 
     43 CB          0.0344  -19.1503  -45.1938 C.3       6 UNK        -0.1800 
     44 N          -0.4304  -17.0436  -44.0436 N.am      6 UNK        -0.5000 
     45 C          -0.4677  -15.7293  -43.7899 C.2       5 UNK         0.5000 
     46 O           0.1055  -14.8834  -44.4834 O.2       5 UNK        -0.5000 
     47 CA         -1.2815  -15.2904  -42.5629 C.3       5 UNK         0.1400 
     48 CB         -0.6659  -15.8364  -41.2588 C.3       5 UNK        -0.1800 
     49 N          -1.3045  -13.8338  -42.5399 N.am      5 UNK        -0.5000 
     50 C          -2.1138  -13.0521  -41.8190 C.2       4 UNK         0.5000 
     51 O          -2.9778  -13.4692  -41.0471 O.2       4 UNK        -0.5000 
     52 CA         -1.9192  -11.5434  -42.0125 C.3       4 UNK         0.1400 
     53 CB         -0.5810  -11.1031  -41.3775 C.3       4 UNK        -0.1800 
     54 N          -1.9912  -11.2309  -43.4415 N.am      4 UNK        -0.5000 
     55 C          -1.8656  -10.0209  -44.0040 C.2       3 UNK         0.5000 
     56 O          -1.6255   -8.9871  -43.3795 O.2       3 UNK        -0.5000 
     57 CA         -2.0692   -9.9420  -45.5306 C.3       3 UNK         0.1400 
     58 CB         -0.7497  -10.2287  -46.2640 C.3       3 UNK        -0.1800 
     59 N          -3.0993  -10.8546  -46.0291 N.am      3 UNK        -0.5000 
     60 C          -4.3973  -10.8128  -45.6958 C.2       2 UNK         0.5000 
     61 O          -4.8869   -9.9445  -44.9725 O.2       2 UNK        -0.5000 
     62 CA         -5.3102  -11.9233  -46.2565 C.3       2 UNK         0.1400 
     63 CB         -6.2229  -11.3603  -47.3575 C.3       2 UNK        -0.1800 
     64 N          -4.6167  -13.1054  -46.7830 N.am      2 UNK        -0.5000 
     65 C          -3.8519  -13.9455  -46.0725 C.2       1 UNK         0.5000 
     66 O          -3.5265  -13.7509  -44.8989 O.2       1 UNK        -0.5000 
     67 C          -2.0205  -22.2840  -46.6136 C.2       11 UNK         0.5000 
     68 O          -3.1006  -22.3483  -47.2006 O.2       11 UNK        -0.5000 
     69 N          -1.9140  -22.0230  -45.2996 N.am      12 UNK        -0.5000 
     70 CA         -3.0675  -21.8762  -44.4084 C.3       12 UNK         0.1400 
     71 CB         -2.6350  -21.2326  -43.0822 C.3       12 UNK        -0.1800 
     72 C          -3.7673  -23.2230  -44.1561 C.2       12 UNK         0.5000 
     73 O          -4.9969  -23.2745  -44.1444 O.2       12 UNK        -0.5000 
     74 N          -2.9776  -24.2997  -44.0231 N.am      13 UNK        -0.5000 
     75 CA         -3.4672  -25.6772  -43.9069 C.3       13 UNK         0.1400 
     76 CB         -2.3220  -26.5944  -43.4519 C.3       13 UNK        -0.1800 
     77 C          -4.0979  -26.1883  -45.2175 C.2       13 UNK         0.5000 
     78 O          -5.0195  -27.0030  -45.1740 O.2       13 UNK        -0.5000 
     79 N          -3.6269  -25.6556  -46.3536 N.am      14 UNK        -0.5000 
     80 CA         -4.1952  -25.8571  -47.6879 C.3       14 UNK         0.1400 
     81 CB         -3.0952  -25.6176  -48.7356 C.3       14 UNK        -0.1800 
     82 C          -5.4204  -24.9591  -47.9728 C.2       14 UNK         0.5000 
     83 O          -5.9090  -24.9639  -49.1026 O.2       14 UNK        -0.5000 
     84 N          -5.8777  -24.1790  -46.9794 N.am      15 UNK        -0.5000 
     85 CA         -7.0232  -23.2612  -47.0256 C.3       15 UNK         0.1400 
     86 CB         -8.3427  -24.0525  -47.1397 C.3       15 UNK        -0.1800 
     87 C          -6.8838  -22.1648  -48.1039 C.2       15 UNK         0.5000 
     88 O          -7.8736  -21.7787  -48.7272 O.2       15 UNK        -0.5000 
     89 N          -5.6417  -21.7055  -48.3134 N.am      16 UNK        -0.5000 
     90 CA         -5.1967  -20.7149  -49.2959 C.3       16 UNK         0.1400 
     91 CB         -5.8758  -19.3480  -49.0733 C.3       16 UNK        -0.1800 
     92 C          -5.2718  -21.1828  -50.7653 C.2       16 UNK         0.5000 
     93 O          -4.9976  -20.3789  -51.6563 O.2       16 UNK        -0.5000 
     94 N          -5.5625  -22.4685  -51.0216 N.am      17 UNK        -0.5000 
     95 CA         -5.5516  -23.0469  -52.3708 C.3       17 UNK         0.1400 
     96 CB         -6.1823  -24.4463  -52.3463 C.3       17 UNK        -0.1800 
     97 C          -4.1305  -23.0997  -52.9614 C.2       17 UNK         0.5000 
     98 O          -3.9395  -22.8006  -54.1403 O.2       17 UNK        -0.5000 
     99 N          -3.1490  -23.4203  -52.1071 N.am      18 UNK        -0.5000 
    100 CA        -1.7259  -23.3859  -52.4408 C.3       18 UNK         0.1400 
    101 CB        -0.9320  -24.1285  -51.3586 C.3       18 UNK        -0.1800 
    102 C         -1.2014  -21.9498  -52.6280 C.2       18 UNK         0.5000 
    103 O         -0.3386  -21.7320  -53.4762 O.2       18 UNK        -0.5000 
    104 N         -1.7615  -20.9875  -51.8792 N.am      19 UNK        -0.5000 
    105 CA        -1.4558  -19.5624  -52.0217 C.3       19 UNK         0.1400 
    106 CB        -2.0043  -18.7716  -50.8297 C.3       19 UNK        -0.1800 
    107 C         -1.9926  -18.9855  -53.3424 C.2       19 UNK         0.5000 
    108 O         -1.3005  -18.1966  -53.9843 O.2       19 UNK        -0.5000 
    109 N         -3.1945  -19.4197  -53.7473 N.am      20 UNK        -0.5000 
    110 CA        -3.8090  -19.0824  -55.0320 C.3       20 UNK         0.1400 
    111 CB        -5.2653  -19.5707  -55.0478 C.3       20 UNK        -0.1800 
    112 C         -3.0246  -19.6434  -56.2344 C.2       20 UNK         0.5000 
    113 O         -2.9399  -18.9737  -57.2643 O.2       20 UNK        -0.5000 
    114 N         -2.4448  -20.8423  -56.0754 N.am      21 UNK        -0.5000 
    115 CA        -1.5358  -21.4546  -57.0463 C.3       21 UNK         0.1400 
    116 CB        -1.3633  -22.9457  -56.7180 C.3       21 UNK        -0.1800 
    117 C         -0.1715  -20.7374  -57.1024 C.2       21 UNK         0.5000 
    118 O          0.3585  -20.5251  -58.1937 O.2       21 UNK        -0.5000 
    119 N          0.3601  -20.3736  -55.9282 N.am      22 UNK        -0.5000 
    120 CA         1.5831  -19.5795  -55.7397 C.3       22 UNK         0.1400 
    121 C          1.4781  -18.1474  -56.3406 C.2       22 UNK         0.5000 
    122 N          0.4320  -17.3929  -56.0301 N.am      22 UNK        -0.7600 
    123 O          2.3429  -17.7241  -57.1031 O.2       22 UNK        -0.5000 
    124 C124        1.9773  -19.5695  -54.2399 C.3       23 UNK        -0.0398 
    125 S125        3.5682  -18.7659  -53.8486 S.3       23 UNK        -0.2404 
    126 C126        2.9999  -17.3424  -52.8475 C.3       23 UNK        -0.0205 
    127 H127       -4.2203  -17.8639  -43.4342 H         1 UNK         0.0600 
    128 H128       -3.0587  -18.5221  -44.5938 H         1 UNK         0.0600 
    129 H129       -4.7614  -18.9698  -44.7017 H         1 UNK         0.0600 
    130 H130       -2.3599  -16.6898  -45.7066 H         1 UNK         0.3000 
    131 H131       -4.0571  -15.4307  -47.6079 H         1 UNK         0.0600 
    132 H132       -1.2255  -14.6393  -46.7394 H         1 UNK         0.0800 
    133 H133       -2.0480  -14.0637  -48.1707 H         1 UNK         0.0800 
    134 H134        0.8484  -15.5502  -47.9253 H         1 UNK         0.0800 
    135 H135        0.2724  -14.9243  -49.4509 H         1 UNK         0.0800 
    136 H136        1.4989  -15.7314  -51.2991 H         1 UNK         0.1150 
    137 H137        3.1699  -19.6850  -51.3183 H         1 UNK         0.1150 
    138 H138        0.8689  -18.3569  -47.9753 H         1 UNK         0.1150 
    139 H139        3.2604  -20.8720  -49.1808 H         1 UNK         0.0800 
    140 H140        2.2673  -20.4054  -47.8248 H         1 UNK         0.0800 
    141 H141       -1.2251  -21.1718  -48.9982 H         1 UNK         0.0800 
    142 H142       -0.2000  -20.4734  -47.7794 H         1 UNK         0.0800 
    143 H143       -0.9598  -23.4156  -48.0565 H         1 UNK         0.0600 
    144 H144        1.1756  -22.3732  -46.4803 H         1 UNK         0.3000 
    145 H145        1.3118  -25.0906  -44.2111 H         1 UNK         0.0600 
    146 H146        3.5492  -25.5046  -45.1897 H         1 UNK         0.0600 
    147 H147        2.3074  -26.1157  -46.2715 H         1 UNK         0.0600 
    148 H148        3.1189  -24.5970  -46.6388 H         1 UNK         0.0600 
    149 H149        3.2627  -23.1575  -44.5431 H         1 UNK         0.3000 
    150 H150        1.8499  -20.4341  -42.7592 H         1 UNK         0.0600 
    151 H151        2.4966  -22.0629  -41.0281 H         1 UNK         0.0600 
    152 H152        3.7930  -20.9083  -41.2962 H         1 UNK         0.0600 
    153 H153        3.9141  -22.5422  -41.9475 H         1 UNK         0.0600 
    154 H154        3.3046  -19.6489  -44.1714 H         1 UNK         0.3000 
    155 H155        6.2980  -20.0950  -45.1687 H         1 UNK         0.0600 
    156 H156        4.6072  -21.4529  -47.3286 H         1 UNK         0.0600 
    157 H157        6.1989  -21.9309  -46.7640 H         1 UNK         0.0600 
    158 H158        6.0120  -20.4418  -47.6740 H         1 UNK         0.0600 
    159 H159        3.7894  -19.1299  -46.4823 H         1 UNK         0.3000 
    160 H160        4.1644  -15.9003  -45.0873 H         1 UNK         0.0600 
    161 H161        4.2923  -16.8191  -48.0121 H         1 UNK         0.0600 
    162 H162        5.4955  -15.8130  -47.2138 H         1 UNK         0.0600 
    163 H163        3.8640  -15.2062  -47.4433 H         1 UNK         0.0600 
    164 H164        2.1461  -16.8185  -46.7518 H         1 UNK         0.3000 
    165 H165        0.1229  -17.1795  -46.0385 H         1 UNK         0.0600 
    166 H166       -0.9611  -19.2931  -45.6133 H         1 UNK         0.0600 
    167 H167        0.7410  -19.6808  -45.8315 H         1 UNK         0.0600 
    168 H168        0.0596  -19.6332  -44.2173 H         1 UNK         0.0600 
    169 H169       -0.8726  -17.6757  -43.3930 H         1 UNK         0.3000 
    170 H170       -2.3026  -15.6592  -42.6793 H         1 UNK         0.0600 
    171 H171       -0.6444  -16.9266  -41.2539 H         1 UNK         0.0600 
    172 H172        0.3587  -15.4872  -41.1247 H         1 UNK         0.0600 
    173 H173       -1.2398  -15.5273  -40.3854 H         1 UNK         0.0600 
    174 H174       -0.6455  -13.4157  -43.1860 H         1 UNK         0.3000 
    175 H175       -2.7391  -11.0290  -41.5077 H         1 UNK         0.0600 
    176 H176        0.2753  -11.4575  -41.9521 H         1 UNK         0.0600 
    177 H177       -0.5063  -10.0192  -41.2995 H         1 UNK         0.0600 
    178 H178       -0.4810  -11.4956  -40.3646 H         1 UNK         0.0600 
    179 H179       -2.2645  -12.0077  -44.0334 H         1 UNK         0.3000 
    180 H180       -2.3810   -8.9235  -45.7713 H         1 UNK         0.0600 
    181 H181       -0.8582  -10.0928  -47.3402 H         1 UNK         0.0600 
    182 H182       -0.4028  -11.2477  -46.0866 H         1 UNK         0.0600 
    183 H183        0.0374   -9.5513  -45.9300 H         1 UNK         0.0600 
    184 H184       -2.7926  -11.5954  -46.6405 H         1 UNK         0.3000 
    185 H185       -5.9414  -12.2579  -45.4307 H         1 UNK         0.0600 
    186 H186       -6.9464  -12.1045  -47.6908 H         1 UNK         0.0600 
    187 H187       -6.7894  -10.5004  -46.9973 H         1 UNK         0.0600 
    188 H188       -5.6497  -11.0344  -48.2263 H         1 UNK         0.0600 
    189 H189       -4.8164  -13.3317  -47.7468 H         1 UNK         0.3000 
    190 H190       -1.0016  -22.0370  -44.8562 H         1 UNK         0.3000 
    191 H191       -3.7867  -21.2105  -44.8895 H         1 UNK         0.0600 
    192 H192       -3.5029  -21.0082  -42.4611 H         1 UNK         0.0600 
    193 H193       -2.1025  -20.2970  -43.2456 H         1 UNK         0.0600 
    194 H194       -1.9846  -21.8903  -42.5051 H         1 UNK         0.0600 
    195 H195       -1.9762  -24.1777  -44.0773 H         1 UNK         0.3000 
    196 H196       -4.2422  -25.6971  -43.1377 H         1 UNK         0.0600 
    197 H197       -1.5198  -26.6395  -44.1883 H         1 UNK         0.0600 
    198 H198       -1.8940  -26.2540  -42.5089 H         1 UNK         0.0600 
    199 H199       -2.6794  -27.6132  -43.2972 H         1 UNK         0.0600 
    200 H200       -2.8342  -25.0313  -46.2890 H         1 UNK         0.3000 
    201 H201       -4.5249  -26.8943  -47.7746 H         1 UNK         0.0600 
    202 H202       -2.8288  -24.5639  -48.7990 H         1 UNK         0.0600 
    203 H203       -3.4266  -25.9288  -49.7271 H         1 UNK         0.0600 
    204 H204       -2.1917  -26.1824  -48.5043 H         1 UNK         0.0600 
    205 H205       -5.3919  -24.2066  -46.0920 H         1 UNK         0.3000 
    206 H206       -7.0342  -22.7401  -46.0674 H         1 UNK         0.0600 
    207 H207       -8.4180  -24.8071  -46.3567 H         1 UNK         0.0600 
    208 H208       -9.2054  -23.3934  -47.0368 H         1 UNK         0.0600 
    209 H209       -8.4300  -24.5578  -48.1021 H         1 UNK         0.0600 
    210 H210       -4.8861  -22.1075  -47.7625 H         1 UNK         0.3000 
    211 H211       -4.1340  -20.5748  -49.0944 H         1 UNK         0.0600 
    212 H212       -5.4189  -18.5774  -49.6951 H         1 UNK         0.0600 
    213 H213       -5.7790  -19.0233  -48.0370 H         1 UNK         0.0600 
    214 H214       -6.9370  -19.3748  -49.3208 H         1 UNK         0.0600 
    215 H215       -5.7830  -23.0943  -50.2556 H         1 UNK         0.3000 
    216 H216       -6.1604  -22.4114  -53.0176 H         1 UNK         0.0600 
    217 H217       -5.5904  -25.1472  -51.7568 H         1 UNK         0.0600 
    218 H218       -6.2616  -24.8539  -53.3548 H         1 UNK         0.0600 
    219 H219       -7.1875  -24.4196  -51.9251 H         1 UNK         0.0600 
    220 H220       -3.3966  -23.6646  -51.1605 H         1 UNK         0.3000 
    221 H221       -1.5826  -23.9141  -53.3859 H         1 UNK         0.0600 
    222 H222       -1.2283  -25.1759  -51.2999 H         1 UNK         0.0600 
    223 H223       -1.0820  -23.6821  -50.3773 H         1 UNK         0.0600 
    224 H224        0.1377  -24.1041  -51.5711 H         1 UNK         0.0600 
    225 H225       -2.5013  -21.2373  -51.2438 H         1 UNK         0.3000 
    226 H226       -0.3706  -19.4469  -52.0162 H         1 UNK         0.0600 
    227 H227       -3.0812  -18.8808  -50.7174 H         1 UNK         0.0600 
    228 H228       -1.5295  -19.0730  -49.8977 H         1 UNK         0.0600 
    229 H229       -1.8016  -17.7085  -50.9617 H         1 UNK         0.0600 
    230 H230       -3.7399  -20.0039  -53.1212 H         1 UNK         0.3000 
    231 H231       -3.8161  -17.9941  -55.1210 H         1 UNK         0.0600 
    232 H232       -5.3295  -20.6548  -54.9558 H         1 UNK         0.0600 
    233 H233       -5.7603  -19.2906  -55.9783 H         1 UNK         0.0600 
    234 H234       -5.8368  -19.1322  -54.2295 H         1 UNK         0.0600 
    235 H235       -2.6205  -21.3555  -55.2207 H         1 UNK         0.3000 
    236 H236       -1.9935  -21.3797  -58.0350 H         1 UNK         0.0600 
    237 H237       -2.3233  -23.4623  -56.7158 H         1 UNK         0.0600 
    238 H238       -0.7304  -23.4360  -57.4585 H         1 UNK         0.0600 
    239 H239       -0.9015  -23.0958  -55.7423 H         1 UNK         0.0600 
    240 H240       -0.1135  -20.6606  -55.0777 H         1 UNK         0.3000 
    241 H241        2.3778  -20.0951  -56.2820 H         1 UNK         0.0600 
    242 H242        0.3499  -16.4700  -56.4242 H         1 UNK         0.3800 
    243 H243       -0.2629  -17.7183  -55.3589 H         1 UNK         0.3800 
    244 H244        2.0469  -20.5950  -53.8753 H         1 UNK         0.0800 
    245 H245        1.1881  -19.1023  -53.6537 H         1 UNK         0.0800 
    246 H246        3.8515  -16.6802  -52.6870 H         1 UNK         0.0800 
    247 H247        2.2775  -16.7758  -53.4376 H         1 UNK         0.0800 
@<TRIPOS>BOND
     1    1    2 1    
     2    1  127 1    
     3    1  128 1    
     4    1  129 1    
     5    2    3 2    
     6    2    4 am   BACKBONE|DICT|INTERRES
     7    4    5 1    
     8    4  130 1    
     9    5    6 1    
    10    5   65 1    
    11    5  131 1    
    12    6    7 1    
    13    6  132 1    
    14    6  133 1    
    15    7    8 1    
    16    8    9 1    
    17    8  134 1    
    18    8  135 1    
    19    9   10 ar   
    20    9   14 ar   
    21   10   11 ar   
    22   10  136 1    
    23   11   12 ar   
    24   11  126 1    
    25   12   13 ar   
    26   12  137 1    
    27   13   14 ar   
    28   13   15 1    
    29   14  138 1    
    30   15   16 1    
    31   15  139 1    
    32   15  140 1    
    33   16   17 1    
    34   17   18 1    
    35   17  141 1    
    36   17  142 1    
    37   18   19 1    
    38   18   67 1    
    39   18  143 1    
    40   19   20 am   BACKBONE|DICT|INTERRES
    41   19  144 1    
    42   20   21 2    
    43   20   22 1    
    44   22   23 1    
    45   22   24 1    
    46   22  145 1    
    47   23  146 1    
    48   23  147 1    
    49   23  148 1    
    50   24   25 am   BACKBONE|DICT|INTERRES
    51   24  149 1    
    52   25   26 2    
    53   25   27 1    
    54   27   28 1    
    55   27   29 1    
    56   27  150 1    
    57   28  151 1    
    58   28  152 1    
    59   28  153 1    
    60   29   30 am   BACKBONE|DICT|INTERRES
    61   29  154 1    
    62   30   31 2    
    63   30   32 1    
    64   32   33 1    
    65   32   34 1    
    66   32  155 1    
    67   33  156 1    
    68   33  157 1    
    69   33  158 1    
    70   34   35 am   BACKBONE|DICT|INTERRES
    71   34  159 1    
    72   35   36 2    
    73   35   37 1    
    74   37   38 1    
    75   37   39 1    
    76   37  160 1    
    77   38  161 1    
    78   38  162 1    
    79   38  163 1    
    80   39   40 am   BACKBONE|DICT|INTERRES
    81   39  164 1    
    82   40   41 2    
    83   40   42 1    
    84   42   43 1    
    85   42   44 1    
    86   42  165 1    
    87   43  166 1    
    88   43  167 1    
    89   43  168 1    
    90   44   45 am   BACKBONE|DICT|INTERRES
    91   44  169 1    
    92   45   46 2    
    93   45   47 1    
    94   47   48 1    
    95   47   49 1    
    96   47  170 1    
    97   48  171 1    
    98   48  172 1    
    99   48  173 1    
   100   49   50 am   BACKBONE|DICT|INTERRES
   101   49  174 1    
   102   50   51 2    
   103   50   52 1    
   104   52   53 1    
   105   52   54 1    
   106   52  175 1    
   107   53  176 1    
   108   53  177 1    
   109   53  178 1    
   110   54   55 am   BACKBONE|DICT|INTERRES
   111   54  179 1    
   112   55   56 2    
   113   55   57 1    
   114   57   58 1    
   115   57   59 1    
   116   57  180 1    
   117   58  181 1    
   118   58  182 1    
   119   58  183 1    
   120   59   60 am   BACKBONE|DICT|INTERRES
   121   59  184 1    
   122   60   61 2    
   123   60   62 1    
   124   62   63 1    
   125   62   64 1    
   126   62  185 1    
   127   63  186 1    
   128   63  187 1    
   129   63  188 1    
   130   64   65 am   BACKBONE|DICT|INTERRES
   131   64  189 1    
   132   65   66 2    
   133   67   68 2    
   134   67   69 am   BACKBONE|DICT|INTERRES
   135   69   70 1    
   136   69  190 1    
   137   70   71 1    
   138   70   72 1    
   139   70  191 1    
   140   71  192 1    
   141   71  193 1    
   142   71  194 1    
   143   72   73 2    
   144   72   74 am   BACKBONE|DICT|INTERRES
   145   74   75 1    
   146   74  195 1    
   147   75   76 1    
   148   75   77 1    
   149   75  196 1    
   150   76  197 1    
   151   76  198 1    
   152   76  199 1    
   153   77   78 2    
   154   77   79 am   BACKBONE|DICT|INTERRES
   155   79   80 1    
   156   79  200 1    
   157   80   81 1    
   158   80   82 1    
   159   80  201 1    
   160   81  202 1    
   161   81  203 1    
   162   81  204 1    
   163   82   83 2    
   164   82   84 am   BACKBONE|DICT|INTERRES
   165   84   85 1    
   166   84  205 1    
   167   85   86 1    
   168   85   87 1    
   169   85  206 1    
   170   86  207 1    
   171   86  208 1    
   172   86  209 1    
   173   87   88 2    
   174   87   89 am   BACKBONE|DICT|INTERRES
   175   89   90 1    
   176   89  210 1    
   177   90   91 1    
   178   90   92 1    
   179   90  211 1    
   180   91  212 1    
   181   91  213 1    
   182   91  214 1    
   183   92   93 2    
   184   92   94 am   BACKBONE|DICT|INTERRES
   185   94   95 1    
   186   94  215 1    
   187   95   96 1    
   188   95   97 1    
   189   95  216 1    
   190   96  217 1    
   191   96  218 1    
   192   96  219 1    
   193   97   98 2    
   194   97   99 am   BACKBONE|DICT|INTERRES
   195   99  100 1    
   196   99  220 1    
   197  100  101 1    
   198  100  102 1    
   199  100  221 1    
   200  101  222 1    
   201  101  223 1    
   202  101  224 1    
   203  102  103 2    
   204  102  104 am   BACKBONE|DICT|INTERRES
   205  104  105 1    
   206  104  225 1    
   207  105  106 1    
   208  105  107 1    
   209  105  226 1    
   210  106  227 1    
   211  106  228 1    
   212  106  229 1    
   213  107  108 2    
   214  107  109 am   BACKBONE|DICT|INTERRES
   215  109  110 1    
   216  109  230 1    
   217  110  111 1    
   218  110  112 1    
   219  110  231 1    
   220  111  232 1    
   221  111  233 1    
   222  111  234 1    
   223  112  113 2    
   224  112  114 am   BACKBONE|DICT|INTERRES
   225  114  115 1    
   226  114  235 1    
   227  115  116 1    
   228  115  117 1    
   229  115  236 1    
   230  116  237 1    
   231  116  238 1    
   232  116  239 1    
   233  117  118 2    
   234  117  119 am   BACKBONE|DICT|INTERRES
   235  119  120 1    
   236  119  240 1    
   237  120  121 1    
   238  120  124 1    
   239  120  241 1    
   240  121  122 am   BACKBONE|DICT|INTERRES
   241  121  123 2    
   242  122  242 1    
   243  122  243 1    
   244  124  125 1    
   245  124  244 1    
   246  124  245 1    
   247  125  126 1    
   248  126  246 1    
   249  126  247 1    
@<TRIPOS>SUBSTRUCTURE
     1 UNK         1 GROUP             0       ****    0 ROOT    
