@<TRIPOS>MOLECULE
3R540
247   249    1
SMALL
USER_CHARGES


@<TRIPOS>ATOM
      1 CA          5.3163  -14.4262  -50.1930 C.3       0 UNK        -0.1800 
      2 C           3.8472  -14.4421  -49.7960 C.2       0 UNK         0.5000 
      3 O           3.5093  -14.9362  -48.7216 O.2       0 UNK        -0.5000 
      4 N           2.9765  -13.8999  -50.6571 N.am      1 UNK        -0.5000 
      5 CA          1.5207  -13.8368  -50.4611 C.3       1 UNK         0.1400 
      6 C6          0.7757  -13.4365  -51.7584 C.3       23 UNK        -0.0398 
      7 S7          1.1758  -14.5296  -53.1646 S.3       23 UNK        -0.2404 
      8 C8         -0.4047  -15.3929  -53.4386 C.3       23 UNK        -0.0205 
      9 C9         -0.8208  -16.2870  -52.2764 C.ar      23 UNK        -0.0193 
     10 C10        -2.0994  -16.1647  -51.7249 C.ar      23 UNK        -0.1150 
     11 C11        -2.5272  -17.0360  -50.7194 C.ar      23 UNK        -0.0193 
     12 C12        -1.6544  -18.0188  -50.2452 C.ar      23 UNK        -0.1150 
     13 C13        -0.3623  -18.1336  -50.7649 C.ar      23 UNK        -0.0193 
     14 C14         0.0443  -17.2713  -51.7873 C.ar      23 UNK        -0.1150 
     15 C15         0.5814  -19.2141  -50.2590 C.3       23 UNK        -0.0205 
     16 S16         1.5632  -18.6739  -48.8187 S.3       23 UNK        -0.2404 
     17 C17         0.3933  -18.8330  -47.4231 C.3       23 UNK        -0.0398 
     18 CA          0.0904  -20.3148  -47.0560 C.3       11 UNK         0.1400 
     19 N           0.4517  -20.6745  -45.6803 N.am      11 UNK        -0.5000 
     20 C           0.4851  -21.9380  -45.2268 C.2       10 UNK         0.5000 
     21 O           0.2592  -22.9213  -45.9329 O.2       10 UNK        -0.5000 
     22 CA          0.7692  -22.1430  -43.7280 C.3       10 UNK         0.1400 
     23 CB          2.2723  -22.0341  -43.4330 C.3       10 UNK        -0.1800 
     24 N           0.0247  -21.2113  -42.8809 N.am      10 UNK        -0.5000 
     25 C          -1.3128  -21.1713  -42.7904 C.2       9 UNK         0.5000 
     26 O          -2.0607  -21.9558  -43.3737 O.2       9 UNK        -0.5000 
     27 CA         -1.9197  -20.0276  -41.9556 C.3       9 UNK         0.1400 
     28 CB         -1.8775  -20.3549  -40.4560 C.3       9 UNK        -0.1800 
     29 N          -1.2603  -18.7441  -42.2010 N.am      9 UNK        -0.5000 
     30 C          -1.2274  -18.1262  -43.3906 C.2       8 UNK         0.5000 
     31 O          -1.7937  -18.5437  -44.3992 O.2       8 UNK        -0.5000 
     32 CA         -0.3675  -16.8588  -43.4879 C.3       8 UNK         0.1400 
     33 CB         -1.1381  -15.6374  -42.9689 C.3       8 UNK        -0.1800 
     34 N           0.9074  -17.0088  -42.7828 N.am      8 UNK        -0.5000 
     35 C           1.8801  -17.8452  -43.1764 C.2       7 UNK         0.5000 
     36 O           1.8244  -18.5177  -44.2052 O.2       7 UNK        -0.5000 
     37 CA          3.0921  -17.9980  -42.2418 C.3       7 UNK         0.1400 
     38 CB          4.1475  -16.9157  -42.5119 C.3       7 UNK        -0.1800 
     39 N           2.7008  -17.9784  -40.8324 N.am      7 UNK        -0.5000 
     40 C           2.0328  -18.9776  -40.2376 C.2       6 UNK         0.5000 
     41 O           1.7179  -20.0191  -40.8123 O.2       6 UNK        -0.5000 
     42 CA          1.6103  -18.7733  -38.7713 C.3       6 UNK         0.1400 
     43 CB          2.6969  -19.2983  -37.8215 C.3       6 UNK        -0.1800 
     44 N           1.3068  -17.3822  -38.4336 N.am      6 UNK        -0.5000 
     45 C           0.3291  -16.6483  -38.9821 C.2       5 UNK         0.5000 
     46 O          -0.4268  -17.0742  -39.8579 O.2       5 UNK        -0.5000 
     47 CA          0.1714  -15.1930  -38.4853 C.3       5 UNK         0.1400 
     48 CB          1.1941  -14.7824  -37.4011 C.3       5 UNK        -0.1800 
     49 N           0.1893  -14.2106  -39.5752 N.am      5 UNK        -0.5000 
     50 C           1.1341  -14.0640  -40.5139 C.2       4 UNK         0.5000 
     51 O           2.1096  -14.8097  -40.6393 O.2       4 UNK        -0.5000 
     52 CA          0.9620  -12.8705  -41.4646 C.3       4 UNK         0.1400 
     53 CB          1.4238  -11.5637  -40.7982 C.3       4 UNK        -0.1800 
     54 N           1.7506  -13.1012  -42.6715 N.am      4 UNK        -0.5000 
     55 C           1.3872  -12.7529  -43.9095 C.2       3 UNK         0.5000 
     56 O           0.3441  -12.1464  -44.1686 O.2       3 UNK        -0.5000 
     57 CA          2.3345  -13.1947  -45.0423 C.3       3 UNK         0.1400 
     58 CB          2.2757  -14.7160  -45.2447 C.3       3 UNK        -0.1800 
     59 N           1.9952  -12.5589  -46.3117 N.am      3 UNK        -0.5000 
     60 C           2.3045  -11.3078  -46.6647 C.2       2 UNK         0.5000 
     61 O           2.9924  -10.5588  -45.9679 O.2       2 UNK        -0.5000 
     62 CA          1.7690  -10.8298  -48.0340 C.3       2 UNK         0.1400 
     63 CB          2.4290   -9.5206  -48.5040 C.3       2 UNK        -0.1800 
     64 N           1.9354  -11.8393  -49.0840 N.am      2 UNK        -0.5000 
     65 C           1.1260  -12.8840  -49.3119 C.2       1 UNK         0.5000 
     66 O           0.1218  -13.1202  -48.6401 O.2       1 UNK        -0.5000 
     67 C          -1.3701  -20.6906  -47.3743 C.2       11 UNK         0.5000 
     68 O          -1.6197  -21.2569  -48.4341 O.2       11 UNK        -0.5000 
     69 N          -2.3024  -20.4173  -46.4511 N.am      12 UNK        -0.5000 
     70 CA         -3.7150  -20.7846  -46.5718 C.3       12 UNK         0.1400 
     71 CB         -4.5116  -20.1797  -45.4068 C.3       12 UNK        -0.1800 
     72 C          -3.9330  -22.3071  -46.6565 C.2       12 UNK         0.5000 
     73 O          -4.7243  -22.7600  -47.4836 O.2       12 UNK        -0.5000 
     74 N          -3.1968  -23.0708  -45.8365 N.am      13 UNK        -0.5000 
     75 CA         -3.1857  -24.5342  -45.8566 C.3       13 UNK         0.1400 
     76 CB         -2.3956  -25.0612  -44.6495 C.3       13 UNK        -0.1800 
     77 C          -2.6279  -25.1090  -47.1724 C.2       13 UNK         0.5000 
     78 O          -3.1757  -26.0847  -47.6856 O.2       13 UNK        -0.5000 
     79 N          -1.5736  -24.4808  -47.7115 N.am      14 UNK        -0.5000 
     80 CA         -0.9985  -24.8123  -49.0149 C.3       14 UNK         0.1400 
     81 CB          0.3641  -24.1199  -49.1705 C.3       14 UNK        -0.1800 
     82 C          -1.9400  -24.4428  -50.1750 C.2       14 UNK         0.5000 
     83 O          -2.1122  -25.2371  -51.0985 O.2       14 UNK        -0.5000 
     84 N          -2.5493  -23.2526  -50.1077 N.am      15 UNK        -0.5000 
     85 CA         -3.4957  -22.7279  -51.0924 C.3       15 UNK         0.1400 
     86 CB         -3.8233  -21.2678  -50.7602 C.3       15 UNK        -0.1800 
     87 C          -4.7834  -23.5596  -51.2145 C.2       15 UNK         0.5000 
     88 O          -5.3468  -23.6443  -52.3046 O.2       15 UNK        -0.5000 
     89 N          -5.2050  -24.1910  -50.1111 N.am      16 UNK        -0.5000 
     90 CA         -6.3630  -25.0821  -50.0522 C.3       16 UNK         0.1400 
     91 CB         -6.6489  -25.4433  -48.5867 C.3       16 UNK        -0.1800 
     92 C          -6.2211  -26.3591  -50.9062 C.2       16 UNK         0.5000 
     93 O          -7.2428  -26.9086  -51.3210 O.2       16 UNK        -0.5000 
     94 N          -4.9844  -26.8088  -51.1641 N.am      17 UNK        -0.5000 
     95 CA         -4.6914  -27.9977  -51.9608 C.3       17 UNK         0.1400 
     96 CB         -4.9777  -29.2681  -51.1304 C.3       17 UNK        -0.1800 
     97 C          -3.2380  -27.9510  -52.4748 C.2       17 UNK         0.5000 
     98 O          -2.3891  -28.6563  -51.9295 O.2       17 UNK        -0.5000 
     99 N          -2.8988  -27.1413  -53.4871 N.am      18 UNK        -0.5000 
    100 CA        -3.7136  -26.1779  -54.2302 C.3       18 UNK         0.1400 
    101 CB        -4.4815  -26.8908  -55.3636 C.3       18 UNK        -0.1800 
    102 C         -2.7795  -25.0688  -54.7599 C.2       18 UNK         0.5000 
    103 O         -2.8141  -24.7418  -55.9470 O.2       18 UNK        -0.5000 
    104 N         -1.8938  -24.5696  -53.8856 N.am      19 UNK        -0.5000 
    105 CA        -0.7328  -23.7429  -54.2362 C.3       19 UNK         0.1400 
    106 CB         0.1789  -23.6177  -53.0054 C.3       19 UNK        -0.1800 
    107 C         -1.0385  -22.3417  -54.8028 C.2       19 UNK         0.5000 
    108 O         -0.1790  -21.7795  -55.4832 O.2       19 UNK        -0.5000 
    109 N         -2.2201  -21.7883  -54.5110 N.am      20 UNK        -0.5000 
    110 CA        -2.6347  -20.4490  -54.9180 C.3       20 UNK         0.1400 
    111 CB        -2.0243  -19.3979  -53.9706 C.3       20 UNK        -0.1800 
    112 C         -4.1645  -20.3644  -54.9006 C.2       20 UNK         0.5000 
    113 O         -4.8072  -21.0978  -54.1484 O.2       20 UNK        -0.5000 
    114 N         -4.7167  -19.4560  -55.7128 N.am      21 UNK        -0.5000 
    115 CA        -6.1502  -19.1529  -55.7490 C.3       21 UNK         0.1400 
    116 CB        -6.5185  -18.6700  -57.1609 C.3       21 UNK        -0.1800 
    117 C         -6.5588  -18.0993  -54.6997 C.2       21 UNK         0.5000 
    118 O         -7.7372  -18.0251  -54.3502 O.2       21 UNK        -0.5000 
    119 N         -5.5878  -17.2964  -54.2392 N.am      22 UNK        -0.5000 
    120 CA        -5.7397  -16.1864  -53.2782 C.3       22 UNK         0.1400 
    121 C         -6.5658  -14.9707  -53.8045 C.2       22 UNK         0.5000 
    122 N         -6.7937  -14.8372  -55.1055 N.am      22 UNK        -0.7600 
    123 O         -6.9801  -14.1120  -53.0304 O.2       22 UNK        -0.5000 
    124 C124       -6.1939  -16.6438  -51.8622 C.3       23 UNK        -0.0398 
    125 S125       -5.1142  -17.9184  -51.1228 S.3       23 UNK        -0.2404 
    126 C126       -3.9333  -16.9274  -50.1507 C.3       23 UNK        -0.0205 
    127 H127        5.7028  -15.4444  -50.2386 H         1 UNK         0.0600 
    128 H128        5.8977  -13.8721  -49.4562 H         1 UNK         0.0600 
    129 H129        5.4685  -13.9608  -51.1671 H         1 UNK         0.0600 
    130 H130        3.3121  -13.5355  -51.5375 H         1 UNK         0.3000 
    131 H131        1.1844  -14.8368  -50.1770 H         1 UNK         0.0600 
    132 H132       -0.3035  -13.4416  -51.5941 H         1 UNK         0.0800 
    133 H133        1.0318  -12.4157  -52.0479 H         1 UNK         0.0800 
    134 H134       -0.3120  -16.0120  -54.3317 H         1 UNK         0.0800 
    135 H135       -1.1762  -14.6535  -53.6593 H         1 UNK         0.0800 
    136 H136       -2.7715  -15.4040  -52.0932 H         1 UNK         0.1150 
    137 H137       -1.9885  -18.7017  -49.4781 H         1 UNK         0.1150 
    138 H138        1.0331  -17.3723  -52.2121 H         1 UNK         0.1150 
    139 H139        0.0294  -20.1243  -50.0299 H         1 UNK         0.0800 
    140 H140        1.2734  -19.4900  -51.0560 H         1 UNK         0.0800 
    141 H141       -0.5055  -18.2554  -47.6444 H         1 UNK         0.0800 
    142 H142        0.8467  -18.3149  -46.5790 H         1 UNK         0.0800 
    143 H143        0.7059  -20.9567  -47.6901 H         1 UNK         0.0600 
    144 H144        0.6996  -19.9159  -45.0527 H         1 UNK         0.3000 
    145 H145        0.4484  -23.1537  -43.4672 H         1 UNK         0.0600 
    146 H146        2.4853  -22.2556  -42.3871 H         1 UNK         0.0600 
    147 H147        2.8404  -22.7421  -44.0376 H         1 UNK         0.0600 
    148 H148        2.6561  -21.0372  -43.6483 H         1 UNK         0.0600 
    149 H149        0.5746  -20.5693  -42.3184 H         1 UNK         0.3000 
    150 H150       -2.9659  -19.9210  -42.2491 H         1 UNK         0.0600 
    151 H151       -2.4310  -21.2703  -40.2432 H         1 UNK         0.0600 
    152 H152       -2.3263  -19.5568  -39.8643 H         1 UNK         0.0600 
    153 H153       -0.8574  -20.5010  -40.1026 H         1 UNK         0.0600 
    154 H154       -0.8032  -18.3001  -41.4107 H         1 UNK         0.3000 
    155 H155       -0.1538  -16.6939  -44.5456 H         1 UNK         0.0600 
    156 H156       -1.3219  -15.6917  -41.8964 H         1 UNK         0.0600 
    157 H157       -2.1075  -15.5513  -43.4615 H         1 UNK         0.0600 
    158 H158       -0.5966  -14.7180  -43.1751 H         1 UNK         0.0600 
    159 H159        1.0120  -16.5249  -41.9012 H         1 UNK         0.3000 
    160 H160        3.5508  -18.9661  -42.4543 H         1 UNK         0.0600 
    161 H161        4.4662  -16.9355  -43.5549 H         1 UNK         0.0600 
    162 H162        5.0352  -17.0715  -41.8988 H         1 UNK         0.0600 
    163 H163        3.7705  -15.9153  -42.3040 H         1 UNK         0.0600 
    164 H164        2.8775  -17.1262  -40.3172 H         1 UNK         0.3000 
    165 H165        0.7035  -19.3582  -38.6063 H         1 UNK         0.0600 
    166 H166        2.3733  -19.2430  -36.7819 H         1 UNK         0.0600 
    167 H167        2.9286  -20.3431  -38.0329 H         1 UNK         0.0600 
    168 H168        3.6235  -18.7307  -37.9165 H         1 UNK         0.0600 
    169 H169        1.8917  -16.9513  -37.7325 H         1 UNK         0.3000 
    170 H170       -0.8220  -15.1386  -38.0380 H         1 UNK         0.0600 
    171 H171        1.1299  -15.4301  -36.5258 H         1 UNK         0.0600 
    172 H172        2.2196  -14.8141  -37.7716 H         1 UNK         0.0600 
    173 H173        1.0038  -13.7664  -37.0549 H         1 UNK         0.0600 
    174 H174       -0.5914  -13.5694  -39.5822 H         1 UNK         0.3000 
    175 H175       -0.0975  -12.7918  -41.7169 H         1 UNK         0.0600 
    176 H176        0.8514  -11.3587  -39.8927 H         1 UNK         0.0600 
    177 H177        1.2890  -10.7127  -41.4660 H         1 UNK         0.0600 
    178 H178        2.4774  -11.6064  -40.5192 H         1 UNK         0.0600 
    179 H179        2.5833  -13.6560  -42.5213 H         1 UNK         0.3000 
    180 H180        3.3537  -12.9164  -44.7660 H         1 UNK         0.0600 
    181 H181        1.2771  -15.0454  -45.5325 H         1 UNK         0.0600 
    182 H182        2.5506  -15.2425  -44.3333 H         1 UNK         0.0600 
    183 H183        2.9695  -15.0385  -46.0210 H         1 UNK         0.0600 
    184 H184        1.3843  -13.0794  -46.9289 H         1 UNK         0.3000 
    185 H185        0.7031  -10.6324  -47.9030 H         1 UNK         0.0600 
    186 H186        2.2682   -8.7181  -47.7831 H         1 UNK         0.0600 
    187 H187        3.5057   -9.6371  -48.6335 H         1 UNK         0.0600 
    188 H188        2.0107   -9.1871  -49.4539 H         1 UNK         0.0600 
    189 H189        2.7664  -11.7569  -49.6515 H         1 UNK         0.3000 
    190 H190       -2.0367  -19.9016  -45.6145 H         1 UNK         0.3000 
    191 H191       -4.0902  -20.3447  -47.4978 H         1 UNK         0.0600 
    192 H192       -5.5717  -20.4216  -45.4915 H         1 UNK         0.0600 
    193 H193       -4.1647  -20.5539  -44.4436 H         1 UNK         0.0600 
    194 H194       -4.4256  -19.0930  -45.3936 H         1 UNK         0.0600 
    195 H195       -2.6067  -22.6189  -45.1439 H         1 UNK         0.3000 
    196 H196       -4.2186  -24.8752  -45.7599 H         1 UNK         0.0600 
    197 H197       -2.3921  -26.1517  -44.6306 H         1 UNK         0.0600 
    198 H198       -2.8356  -24.7206  -43.7121 H         1 UNK         0.0600 
    199 H199       -1.3574  -24.7292  -44.6705 H         1 UNK         0.0600 
    200 H200       -1.1445  -23.7159  -47.2011 H         1 UNK         0.3000 
    201 H201       -0.8347  -25.8914  -49.0494 H         1 UNK         0.0600 
    202 H202        1.0410  -24.3973  -48.3624 H         1 UNK         0.0600 
    203 H203        0.2714  -23.0338  -49.1688 H         1 UNK         0.0600 
    204 H204        0.8424  -24.4070  -50.1072 H         1 UNK         0.0600 
    205 H205       -2.3029  -22.6214  -49.3464 H         1 UNK         0.3000 
    206 H206       -3.0021  -22.7469  -52.0625 H         1 UNK         0.0600 
    207 H207       -4.2748  -21.1700  -49.7735 H         1 UNK         0.0600 
    208 H208       -2.9279  -20.6478  -50.7849 H         1 UNK         0.0600 
    209 H209       -4.5249  -20.8521  -51.4832 H         1 UNK         0.0600 
    210 H210       -4.7214  -24.0113  -49.2386 H         1 UNK         0.3000 
    211 H211       -7.2221  -24.5289  -50.4371 H         1 UNK         0.0600 
    212 H212       -5.8188  -25.9887  -48.1379 H         1 UNK         0.0600 
    213 H213       -7.5363  -26.0722  -48.5049 H         1 UNK         0.0600 
    214 H214       -6.8280  -24.5509  -47.9868 H         1 UNK         0.0600 
    215 H215       -4.1822  -26.2935  -50.8207 H         1 UNK         0.3000 
    216 H216       -5.3531  -28.0188  -52.8257 H         1 UNK         0.0600 
    217 H217       -4.7120  -30.1676  -51.6872 H         1 UNK         0.0600 
    218 H218       -6.0341  -29.3511  -50.8758 H         1 UNK         0.0600 
    219 H219       -4.4097  -29.2757  -50.1993 H         1 UNK         0.0600 
    220 H220       -1.9261  -27.1364  -53.7596 H         1 UNK         0.3000 
    221 H221       -4.4307  -25.7019  -53.5641 H         1 UNK         0.0600 
    222 H222       -5.1046  -26.1844  -55.9137 H         1 UNK         0.0600 
    223 H223       -5.1416  -27.6729  -54.9940 H         1 UNK         0.0600 
    224 H224       -3.7982  -27.3505  -56.0787 H         1 UNK         0.0600 
    225 H225       -1.9416  -24.8893  -52.9199 H         1 UNK         0.3000 
    226 H226       -0.1784  -24.2815  -55.0075 H         1 UNK         0.0600 
    227 H227        1.1085  -23.1062  -53.2580 H         1 UNK         0.0600 
    228 H228       -0.2991  -23.0460  -52.2095 H         1 UNK         0.0600 
    229 H229        0.4463  -24.5969  -52.6081 H         1 UNK         0.0600 
    230 H230       -2.9242  -22.3191  -54.0156 H         1 UNK         0.3000 
    231 H231       -2.2936  -20.2628  -55.9386 H         1 UNK         0.0600 
    232 H232       -0.9350  -19.4323  -53.9815 H         1 UNK         0.0600 
    233 H233       -2.3507  -19.5476  -52.9409 H         1 UNK         0.0600 
    234 H234       -2.3156  -18.3877  -54.2595 H         1 UNK         0.0600 
    235 H235       -4.1235  -18.9102  -56.3215 H         1 UNK         0.3000 
    236 H236       -6.7209  -20.0614  -55.5441 H         1 UNK         0.0600 
    237 H237       -6.2932  -19.4311  -57.9081 H         1 UNK         0.0600 
    238 H238       -7.5848  -18.4514  -57.2338 H         1 UNK         0.0600 
    239 H239       -5.9778  -17.7625  -57.4324 H         1 UNK         0.0600 
    240 H240       -4.6523  -17.4443  -54.5845 H         1 UNK         0.3000 
    241 H241       -4.7358  -15.7806  -53.1669 H         1 UNK         0.0600 
    242 H242       -7.3184  -14.0430  -55.4375 H         1 UNK         0.3800 
    243 H243       -6.4528  -15.5216  -55.7606 H         1 UNK         0.3800 
    244 H244       -7.2060  -17.0473  -51.9065 H         1 UNK         0.0800 
    245 H245       -6.2499  -15.7965  -51.1777 H         1 UNK         0.0800 
    246 H246       -3.9450  -17.2842  -49.1197 H         1 UNK         0.0800 
    247 H247       -4.2365  -15.8808  -50.1094 H         1 UNK         0.0800 
@<TRIPOS>BOND
     1    1    2 1    
     2    1  127 1    
     3    1  128 1    
     4    1  129 1    
     5    2    3 2    
     6    2    4 am   BACKBONE|DICT|INTERRES
     7    4    5 1    
     8    4  130 1    
     9    5    6 1    
    10    5   65 1    
    11    5  131 1    
    12    6    7 1    
    13    6  132 1    
    14    6  133 1    
    15    7    8 1    
    16    8    9 1    
    17    8  134 1    
    18    8  135 1    
    19    9   10 ar   
    20    9   14 ar   
    21   10   11 ar   
    22   10  136 1    
    23   11   12 ar   
    24   11  126 1    
    25   12   13 ar   
    26   12  137 1    
    27   13   14 ar   
    28   13   15 1    
    29   14  138 1    
    30   15   16 1    
    31   15  139 1    
    32   15  140 1    
    33   16   17 1    
    34   17   18 1    
    35   17  141 1    
    36   17  142 1    
    37   18   19 1    
    38   18   67 1    
    39   18  143 1    
    40   19   20 am   BACKBONE|DICT|INTERRES
    41   19  144 1    
    42   20   21 2    
    43   20   22 1    
    44   22   23 1    
    45   22   24 1    
    46   22  145 1    
    47   23  146 1    
    48   23  147 1    
    49   23  148 1    
    50   24   25 am   BACKBONE|DICT|INTERRES
    51   24  149 1    
    52   25   26 2    
    53   25   27 1    
    54   27   28 1    
    55   27   29 1    
    56   27  150 1    
    57   28  151 1    
    58   28  152 1    
    59   28  153 1    
    60   29   30 am   BACKBONE|DICT|INTERRES
    61   29  154 1    
    62   30   31 2    
    63   30   32 1    
    64   32   33 1    
    65   32   34 1    
    66   32  155 1    
    67   33  156 1    
    68   33  157 1    
    69   33  158 1    
    70   34   35 am   BACKBONE|DICT|INTERRES
    71   34  159 1    
    72   35   36 2    
    73   35   37 1    
    74   37   38 1    
    75   37   39 1    
    76   37  160 1    
    77   38  161 1    
    78   38  162 1    
    79   38  163 1    
    80   39   40 am   BACKBONE|DICT|INTERRES
    81   39  164 1    
    82   40   41 2    
    83   40   42 1    
    84   42   43 1    
    85   42   44 1    
    86   42  165 1    
    87   43  166 1    
    88   43  167 1    
    89   43  168 1    
    90   44   45 am   BACKBONE|DICT|INTERRES
    91   44  169 1    
    92   45   46 2    
    93   45   47 1    
    94   47   48 1    
    95   47   49 1    
    96   47  170 1    
    97   48  171 1    
    98   48  172 1    
    99   48  173 1    
   100   49   50 am   BACKBONE|DICT|INTERRES
   101   49  174 1    
   102   50   51 2    
   103   50   52 1    
   104   52   53 1    
   105   52   54 1    
   106   52  175 1    
   107   53  176 1    
   108   53  177 1    
   109   53  178 1    
   110   54   55 am   BACKBONE|DICT|INTERRES
   111   54  179 1    
   112   55   56 2    
   113   55   57 1    
   114   57   58 1    
   115   57   59 1    
   116   57  180 1    
   117   58  181 1    
   118   58  182 1    
   119   58  183 1    
   120   59   60 am   BACKBONE|DICT|INTERRES
   121   59  184 1    
   122   60   61 2    
   123   60   62 1    
   124   62   63 1    
   125   62   64 1    
   126   62  185 1    
   127   63  186 1    
   128   63  187 1    
   129   63  188 1    
   130   64   65 am   BACKBONE|DICT|INTERRES
   131   64  189 1    
   132   65   66 2    
   133   67   68 2    
   134   67   69 am   BACKBONE|DICT|INTERRES
   135   69   70 1    
   136   69  190 1    
   137   70   71 1    
   138   70   72 1    
   139   70  191 1    
   140   71  192 1    
   141   71  193 1    
   142   71  194 1    
   143   72   73 2    
   144   72   74 am   BACKBONE|DICT|INTERRES
   145   74   75 1    
   146   74  195 1    
   147   75   76 1    
   148   75   77 1    
   149   75  196 1    
   150   76  197 1    
   151   76  198 1    
   152   76  199 1    
   153   77   78 2    
   154   77   79 am   BACKBONE|DICT|INTERRES
   155   79   80 1    
   156   79  200 1    
   157   80   81 1    
   158   80   82 1    
   159   80  201 1    
   160   81  202 1    
   161   81  203 1    
   162   81  204 1    
   163   82   83 2    
   164   82   84 am   BACKBONE|DICT|INTERRES
   165   84   85 1    
   166   84  205 1    
   167   85   86 1    
   168   85   87 1    
   169   85  206 1    
   170   86  207 1    
   171   86  208 1    
   172   86  209 1    
   173   87   88 2    
   174   87   89 am   BACKBONE|DICT|INTERRES
   175   89   90 1    
   176   89  210 1    
   177   90   91 1    
   178   90   92 1    
   179   90  211 1    
   180   91  212 1    
   181   91  213 1    
   182   91  214 1    
   183   92   93 2    
   184   92   94 am   BACKBONE|DICT|INTERRES
   185   94   95 1    
   186   94  215 1    
   187   95   96 1    
   188   95   97 1    
   189   95  216 1    
   190   96  217 1    
   191   96  218 1    
   192   96  219 1    
   193   97   98 2    
   194   97   99 am   BACKBONE|DICT|INTERRES
   195   99  100 1    
   196   99  220 1    
   197  100  101 1    
   198  100  102 1    
   199  100  221 1    
   200  101  222 1    
   201  101  223 1    
   202  101  224 1    
   203  102  103 2    
   204  102  104 am   BACKBONE|DICT|INTERRES
   205  104  105 1    
   206  104  225 1    
   207  105  106 1    
   208  105  107 1    
   209  105  226 1    
   210  106  227 1    
   211  106  228 1    
   212  106  229 1    
   213  107  108 2    
   214  107  109 am   BACKBONE|DICT|INTERRES
   215  109  110 1    
   216  109  230 1    
   217  110  111 1    
   218  110  112 1    
   219  110  231 1    
   220  111  232 1    
   221  111  233 1    
   222  111  234 1    
   223  112  113 2    
   224  112  114 am   BACKBONE|DICT|INTERRES
   225  114  115 1    
   226  114  235 1    
   227  115  116 1    
   228  115  117 1    
   229  115  236 1    
   230  116  237 1    
   231  116  238 1    
   232  116  239 1    
   233  117  118 2    
   234  117  119 am   BACKBONE|DICT|INTERRES
   235  119  120 1    
   236  119  240 1    
   237  120  121 1    
   238  120  124 1    
   239  120  241 1    
   240  121  122 am   BACKBONE|DICT|INTERRES
   241  121  123 2    
   242  122  242 1    
   243  122  243 1    
   244  124  125 1    
   245  124  244 1    
   246  124  245 1    
   247  125  126 1    
   248  126  246 1    
   249  126  247 1    
@<TRIPOS>SUBSTRUCTURE
     1 UNK         1 GROUP             0       ****    0 ROOT    
