@<TRIPOS>MOLECULE
3R540
247   249    1
SMALL
USER_CHARGES


@<TRIPOS>ATOM
      1 CA         -4.9787  -16.2647  -42.6977 C.3       0 UNK        -0.1800 
      2 C          -4.4569  -17.5306  -43.3760 C.2       0 UNK         0.5000 
      3 O          -4.4891  -18.5956  -42.7640 O.2       0 UNK        -0.5000 
      4 N          -3.9854  -17.4806  -44.6293 N.am      1 UNK        -0.5000 
      5 CA         -3.7971  -16.2969  -45.4764 C.3       1 UNK         0.1400 
      6 C6         -3.4344  -16.6979  -46.9258 C.3       23 UNK        -0.0398 
      7 S7         -4.7598  -17.6424  -47.7431 S.3       23 UNK        -0.2404 
      8 C8         -4.3876  -17.3190  -49.4929 C.3       23 UNK        -0.0205 
      9 C9         -3.0152  -17.8185  -49.9318 C.ar      23 UNK        -0.0193 
     10 C10        -2.1074  -16.9303  -50.5150 C.ar      23 UNK        -0.1150 
     11 C11        -0.9196  -17.4000  -51.0828 C.ar      23 UNK        -0.0193 
     12 C12        -0.6174  -18.7618  -51.0198 C.ar      23 UNK        -0.1150 
     13 C13        -1.4972  -19.6597  -50.4104 C.ar      23 UNK        -0.0193 
     14 C14        -2.6933  -19.1785  -49.8641 C.ar      23 UNK        -0.1150 
     15 C15        -1.2316  -21.1615  -50.4446 C.3       23 UNK        -0.0205 
     16 S16         0.4970  -21.6611  -50.1218 S.3       23 UNK        -0.2404 
     17 C17         0.6907  -21.2362  -48.3605 C.3       23 UNK        -0.0398 
     18 CA          0.3973  -22.4161  -47.3981 C.3       11 UNK         0.1400 
     19 N           0.9250  -22.1756  -46.0530 N.am      11 UNK        -0.5000 
     20 C           0.8990  -23.0596  -45.0435 C.2       10 UNK         0.5000 
     21 O           0.5326  -24.2290  -45.1635 O.2       10 UNK        -0.5000 
     22 CA          1.3020  -22.5340  -43.6528 C.3       10 UNK         0.1400 
     23 CB          2.8266  -22.5738  -43.4728 C.3       10 UNK        -0.1800 
     24 N           0.8107  -21.1777  -43.4000 N.am      10 UNK        -0.5000 
     25 C          -0.4856  -20.8377  -43.3285 C.2       9 UNK         0.5000 
     26 O          -1.4089  -21.6500  -43.3995 O.2       9 UNK        -0.5000 
     27 CA         -0.7996  -19.3323  -43.2257 C.3       9 UNK         0.1400 
     28 CB         -0.6294  -18.8208  -41.7888 C.3       9 UNK        -0.1800 
     29 N           0.0251  -18.5381  -44.1378 N.am      9 UNK        -0.5000 
     30 C          -0.0622  -18.6103  -45.4724 C.2       8 UNK         0.5000 
     31 O          -0.9013  -19.2917  -46.0571 O.2       8 UNK        -0.5000 
     32 CA          0.9929  -17.8596  -46.3012 C.3       8 UNK         0.1400 
     33 CB          0.5300  -16.4503  -46.6793 C.3       8 UNK        -0.1800 
     34 N           2.2872  -17.7989  -45.6246 N.am      8 UNK        -0.5000 
     35 C           3.1220  -18.8424  -45.5310 C.2       7 UNK         0.5000 
     36 O           2.8993  -19.9398  -46.0418 O.2       7 UNK        -0.5000 
     37 CA          4.3915  -18.6409  -44.6860 C.3       7 UNK         0.1400 
     38 CB          5.5063  -17.9923  -45.5193 C.3       7 UNK        -0.1800 
     39 N           4.1357  -17.8412  -43.4866 N.am      7 UNK        -0.5000 
     40 C           3.4123  -18.2782  -42.4452 C.2       6 UNK         0.5000 
     41 O           2.9124  -19.4017  -42.3913 O.2       6 UNK        -0.5000 
     42 CA          3.1709  -17.2954  -41.2830 C.3       6 UNK         0.1400 
     43 CB          4.2682  -17.4456  -40.2192 C.3       6 UNK        -0.1800 
     44 N           3.0833  -15.8906  -41.6869 N.am      6 UNK        -0.5000 
     45 C           2.1968  -15.3844  -42.5548 C.2       5 UNK         0.5000 
     46 O           1.3659  -16.0708  -43.1510 O.2       5 UNK        -0.5000 
     47 CA          2.2619  -13.8666  -42.8371 C.3       5 UNK         0.1400 
     48 CB          3.3461  -13.1160  -42.0316 C.3       5 UNK        -0.1800 
     49 N           2.4125  -13.5804  -44.2667 N.am      5 UNK        -0.5000 
     50 C           3.3571  -14.0624  -45.0909 C.2       4 UNK         0.5000 
     51 O           4.2551  -14.8246  -44.7293 O.2       4 UNK        -0.5000 
     52 CA          3.2502  -13.6490  -46.5697 C.3       4 UNK         0.1400 
     53 CB          3.9525  -14.6354  -47.5229 C.3       4 UNK        -0.1800 
     54 N           1.8442  -13.5132  -46.9430 N.am      4 UNK        -0.5000 
     55 C           1.3346  -12.5913  -47.7631 C.2       3 UNK         0.5000 
     56 O           2.0130  -11.7613  -48.3693 O.2       3 UNK        -0.5000 
     57 CA         -0.2003  -12.5851  -47.9267 C.3       3 UNK         0.1400 
     58 CB         -0.6041  -13.4363  -49.1423 C.3       3 UNK        -0.1800 
     59 N          -0.9874  -13.0303  -46.7656 N.am      3 UNK        -0.5000 
     60 C          -0.8887  -12.5997  -45.4974 C.2       2 UNK         0.5000 
     61 O           0.0251  -11.8854  -45.0838 O.2       2 UNK        -0.5000 
     62 CA         -2.0006  -13.0237  -44.5167 C.3       2 UNK         0.1400 
     63 CB         -2.8449  -11.8045  -44.1127 C.3       2 UNK        -0.1800 
     64 N          -2.8993  -14.0501  -45.0566 N.am      2 UNK        -0.5000 
     65 C          -2.7121  -15.3654  -44.8967 C.2       1 UNK         0.5000 
     66 O          -1.7354  -15.8463  -44.3250 O.2       1 UNK        -0.5000 
     67 C          -1.1090  -22.7348  -47.3464 C.2       11 UNK         0.5000 
     68 O          -1.5272  -23.7809  -47.8406 O.2       11 UNK        -0.5000 
     69 N          -1.8913  -21.8348  -46.7346 N.am      12 UNK        -0.5000 
     70 CA         -3.3478  -21.9045  -46.6345 C.3       12 UNK         0.1400 
     71 CB         -3.8655  -20.6684  -45.8929 C.3       12 UNK        -0.1800 
     72 C          -3.8655  -23.1810  -45.9588 C.2       12 UNK         0.5000 
     73 O          -4.8749  -23.7239  -46.4066 O.2       12 UNK        -0.5000 
     74 N          -3.1464  -23.6537  -44.9329 N.am      13 UNK        -0.5000 
     75 CA         -3.4250  -24.9023  -44.2243 C.3       13 UNK         0.1400 
     76 CB         -2.4847  -25.0098  -43.0144 C.3       13 UNK        -0.1800 
     77 C          -3.3099  -26.1578  -45.1132 C.2       13 UNK         0.5000 
     78 O          -4.0400  -27.1232  -44.8858 O.2       13 UNK        -0.5000 
     79 N          -2.4116  -26.1236  -46.1065 N.am      14 UNK        -0.5000 
     80 CA         -2.2036  -27.2033  -47.0702 C.3       14 UNK         0.1400 
     81 CB         -0.7206  -27.2385  -47.4723 C.3       14 UNK        -0.1800 
     82 C          -3.0978  -27.0398  -48.3117 C.2       14 UNK         0.5000 
     83 O          -3.6727  -28.0213  -48.7829 O.2       14 UNK        -0.5000 
     84 N          -3.1916  -25.8061  -48.8239 N.am      15 UNK        -0.5000 
     85 CA         -3.8828  -25.4596  -50.0675 C.3       15 UNK         0.1400 
     86 CB         -3.2823  -24.1505  -50.6037 C.3       15 UNK        -0.1800 
     87 C          -5.4091  -25.3107  -49.9231 C.2       15 UNK         0.5000 
     88 O          -6.0854  -25.1517  -50.9389 O.2       15 UNK        -0.5000 
     89 N          -5.9193  -25.3080  -48.6827 N.am      16 UNK        -0.5000 
     90 CA         -7.3038  -25.0020  -48.2983 C.3       16 UNK         0.1400 
     91 CB         -8.2884  -26.0559  -48.8472 C.3       16 UNK        -0.1800 
     92 C          -7.6847  -23.5507  -48.6640 C.2       16 UNK         0.5000 
     93 O          -8.7604  -23.2990  -49.2091 O.2       16 UNK        -0.5000 
     94 N          -6.7551  -22.6309  -48.3666 N.am      17 UNK        -0.5000 
     95 CA         -6.8013  -21.1821  -48.5997 C.3       17 UNK         0.1400 
     96 CB         -7.9066  -20.5276  -47.7467 C.3       17 UNK        -0.1800 
     97 C          -6.8650  -20.7558  -50.0844 C.2       17 UNK         0.5000 
     98 O          -7.1939  -19.6024  -50.3657 O.2       17 UNK        -0.5000 
     99 N          -6.5233  -21.6599  -51.0136 N.am      18 UNK        -0.5000 
    100 CA        -6.3406  -21.3438  -52.4305 C.3       18 UNK         0.1400 
    101 CB        -6.3708  -22.6403  -53.2528 C.3       18 UNK        -0.1800 
    102 C         -5.0082  -20.6017  -52.6294 C.2       18 UNK         0.5000 
    103 O         -3.9884  -21.0560  -52.1098 O.2       18 UNK        -0.5000 
    104 N         -5.0366  -19.4862  -53.3687 N.am      19 UNK        -0.5000 
    105 CA        -3.9101  -18.5725  -53.5848 C.3       19 UNK         0.1400 
    106 CB        -4.4694  -17.1995  -53.9985 C.3       19 UNK        -0.1800 
    107 C         -2.8652  -19.1160  -54.5824 C.2       19 UNK         0.5000 
    108 O         -2.6561  -18.5334  -55.6499 O.2       19 UNK        -0.5000 
    109 N         -2.2385  -20.2423  -54.2249 N.am      20 UNK        -0.5000 
    110 CA        -1.1699  -20.8909  -54.9822 C.3       20 UNK         0.1400 
    111 CB        -0.8144  -22.2275  -54.3137 C.3       20 UNK        -0.1800 
    112 C          0.0778  -19.9951  -55.0969 C.2       20 UNK         0.5000 
    113 O          0.4520  -19.3357  -54.1255 O.2       20 UNK        -0.5000 
    114 N          0.6945  -19.9947  -56.2851 N.am      21 UNK        -0.5000 
    115 CA         1.8830  -19.2372  -56.7015 C.3       21 UNK         0.1400 
    116 CB         3.1119  -19.5826  -55.8379 C.3       21 UNK        -0.1800 
    117 C          1.6770  -17.7112  -56.7978 C.2       21 UNK         0.5000 
    118 O          2.0833  -17.1198  -57.7994 O.2       21 UNK        -0.5000 
    119 N          1.0605  -17.0976  -55.7808 N.am      22 UNK        -0.5000 
    120 CA         0.7430  -15.6612  -55.7424 C.3       22 UNK         0.1400 
    121 C         -0.4360  -15.2322  -56.6656 C.2       22 UNK         0.5000 
    122 N         -1.3622  -16.1155  -57.0207 N.am      22 UNK        -0.7600 
    123 O         -0.5005  -14.0780  -57.0805 O.2       22 UNK        -0.5000 
    124 C124        0.5680  -15.1354  -54.2938 C.3       23 UNK        -0.0398 
    125 S125       -0.8058  -15.9287  -53.3912 S.3       23 UNK        -0.2404 
    126 C126       -0.0072  -16.4525  -51.8431 C.3       23 UNK        -0.0205 
    127 H127       -5.5795  -15.6587  -43.3747 H         1 UNK         0.0600 
    128 H128       -5.6099  -16.5249  -41.8478 H         1 UNK         0.0600 
    129 H129       -4.1503  -15.6625  -42.3247 H         1 UNK         0.0600 
    130 H130       -3.6479  -18.3383  -45.0387 H         1 UNK         0.3000 
    131 H131       -4.7403  -15.7487  -45.5068 H         1 UNK         0.0600 
    132 H132       -3.2198  -15.8141  -47.5295 H         1 UNK         0.0800 
    133 H133       -2.5359  -17.3144  -46.9431 H         1 UNK         0.0800 
    134 H134       -4.4927  -16.2499  -49.6832 H         1 UNK         0.0800 
    135 H135       -5.1442  -17.8094  -50.1065 H         1 UNK         0.0800 
    136 H136       -2.3547  -15.8813  -50.5983 H         1 UNK         0.1150 
    137 H137        0.2831  -19.1315  -51.4891 H         1 UNK         0.1150 
    138 H138       -3.4067  -19.8709  -49.4406 H         1 UNK         0.1150 
    139 H139       -1.8945  -21.6710  -49.7497 H         1 UNK         0.0800 
    140 H140       -1.5071  -21.5274  -51.4320 H         1 UNK         0.0800 
    141 H141        0.0788  -20.3643  -48.1353 H         1 UNK         0.0800 
    142 H142        1.7245  -20.9132  -48.2354 H         1 UNK         0.0800 
    143 H143        0.9091  -23.3018  -47.7806 H         1 UNK         0.0600 
    144 H144        1.3161  -21.2570  -45.8779 H         1 UNK         0.3000 
    145 H145        0.8541  -23.1944  -42.9073 H         1 UNK         0.0600 
    146 H146        3.1114  -22.2768  -42.4633 H         1 UNK         0.0600 
    147 H147        3.2134  -23.5802  -43.6375 H         1 UNK         0.0600 
    148 H148        3.3334  -21.9081  -44.1717 H         1 UNK         0.0600 
    149 H149        1.5146  -20.4567  -43.2713 H         1 UNK         0.3000 
    150 H150       -1.8427  -19.1902  -43.5116 H         1 UNK         0.0600 
    151 H151       -1.3109  -19.3372  -41.1120 H         1 UNK         0.0600 
    152 H152       -0.8491  -17.7547  -41.7233 H         1 UNK         0.0600 
    153 H153        0.3829  -18.9805  -41.4197 H         1 UNK         0.0600 
    154 H154        0.6699  -17.8717  -43.7263 H         1 UNK         0.3000 
    155 H155        1.1202  -18.4119  -47.2341 H         1 UNK         0.0600 
    156 H156        0.5049  -15.7886  -45.8137 H         1 UNK         0.0600 
    157 H157       -0.4654  -16.4643  -47.1189 H         1 UNK         0.0600 
    158 H158        1.1926  -16.0285  -47.4324 H         1 UNK         0.0600 
    159 H159        2.5012  -16.9577  -45.1071 H         1 UNK         0.3000 
    160 H160        4.7394  -19.6266  -44.3694 H         1 UNK         0.0600 
    161 H161        6.4200  -17.8782  -44.9359 H         1 UNK         0.0600 
    162 H162        5.2182  -17.0079  -45.8874 H         1 UNK         0.0600 
    163 H163        5.7492  -18.6064  -46.3873 H         1 UNK         0.0600 
    164 H164        4.4732  -16.8871  -43.4885 H         1 UNK         0.3000 
    165 H165        2.2170  -17.5606  -40.8243 H         1 UNK         0.0600 
    166 H166        4.0575  -16.8304  -39.3442 H         1 UNK         0.0600 
    167 H167        4.3422  -18.4790  -39.8774 H         1 UNK         0.0600 
    168 H168        5.2462  -17.1570  -40.6065 H         1 UNK         0.0600 
    169 H169        3.7501  -15.2606  -41.2655 H         1 UNK         0.3000 
    170 H170        1.2914  -13.4642  -42.5433 H         1 UNK         0.0600 
    171 H171        3.1968  -13.2343  -40.9576 H         1 UNK         0.0600 
    172 H172        4.3519  -13.4621  -42.2731 H         1 UNK         0.0600 
    173 H173        3.3102  -12.0465  -42.2393 H         1 UNK         0.0600 
    174 H174        1.7145  -12.9539  -44.6549 H         1 UNK         0.3000 
    175 H175        3.7443  -12.6788  -46.6510 H         1 UNK         0.0600 
    176 H176        3.5493  -15.6439  -47.4306 H         1 UNK         0.0600 
    177 H177        3.8450  -14.3249  -48.5622 H         1 UNK         0.0600 
    178 H178        5.0210  -14.6895  -47.3114 H         1 UNK         0.0600 
    179 H179        1.2020  -14.1402  -46.4806 H         1 UNK         0.3000 
    180 H180       -0.4905  -11.5517  -48.1254 H         1 UNK         0.0600 
    181 H181       -0.0583  -13.1306  -50.0361 H         1 UNK         0.0600 
    182 H182       -1.6664  -13.3334  -49.3641 H         1 UNK         0.0600 
    183 H183       -0.3971  -14.4944  -48.9780 H         1 UNK         0.0600 
    184 H184       -1.7747  -13.6218  -46.9802 H         1 UNK         0.3000 
    185 H185       -1.5090  -13.4008  -43.6170 H         1 UNK         0.0600 
    186 H186       -2.2236  -11.0261  -43.6675 H         1 UNK         0.0600 
    187 H187       -3.3564  -11.3655  -44.9702 H         1 UNK         0.0600 
    188 H188       -3.5994  -12.0755  -43.3739 H         1 UNK         0.0600 
    189 H189       -3.7283  -13.7152  -45.5277 H         1 UNK         0.3000 
    190 H190       -1.4649  -20.9837  -46.3720 H         1 UNK         0.3000 
    191 H191       -3.7370  -21.8852  -47.6538 H         1 UNK         0.0600 
    192 H192       -3.5258  -20.6471  -44.8569 H         1 UNK         0.0600 
    193 H193       -4.9557  -20.6367  -45.8836 H         1 UNK         0.0600 
    194 H194       -3.5122  -19.7616  -46.3770 H         1 UNK         0.0600 
    195 H195       -2.3582  -23.1061  -44.6037 H         1 UNK         0.3000 
    196 H196       -4.4519  -24.8526  -43.8567 H         1 UNK         0.0600 
    197 H197       -2.6841  -25.9167  -42.4423 H         1 UNK         0.0600 
    198 H198       -2.6131  -24.1636  -42.3389 H         1 UNK         0.0600 
    199 H199       -1.4384  -25.0365  -43.3208 H         1 UNK         0.0600 
    200 H200       -1.8724  -25.2783  -46.2494 H         1 UNK         0.3000 
    201 H201       -2.4445  -28.1621  -46.6061 H         1 UNK         0.0600 
    202 H202       -0.4037  -26.3051  -47.9393 H         1 UNK         0.0600 
    203 H203       -0.0828  -27.4086  -46.6047 H         1 UNK         0.0600 
    204 H204       -0.5272  -28.0437  -48.1821 H         1 UNK         0.0600 
    205 H205       -2.6485  -25.0599  -48.3918 H         1 UNK         0.3000 
    206 H206       -3.6963  -26.2464  -50.8012 H         1 UNK         0.0600 
    207 H207       -3.5240  -23.3093  -49.9536 H         1 UNK         0.0600 
    208 H208       -2.1969  -24.2127  -50.6863 H         1 UNK         0.0600 
    209 H209       -3.6674  -23.9159  -51.5962 H         1 UNK         0.0600 
    210 H210       -5.2658  -25.3818  -47.9133 H         1 UNK         0.3000 
    211 H211       -7.3372  -25.0602  -47.2094 H         1 UNK         0.0600 
    212 H212       -8.3687  -26.0156  -49.9336 H         1 UNK         0.0600 
    213 H213       -9.2888  -25.8996  -48.4422 H         1 UNK         0.0600 
    214 H214       -7.9801  -27.0641  -48.5705 H         1 UNK         0.0600 
    215 H215       -5.9396  -22.9718  -47.8671 H         1 UNK         0.3000 
    216 H216       -5.8493  -20.7941  -48.2374 H         1 UNK         0.0600 
    217 H217       -8.9025  -20.8092  -48.0895 H         1 UNK         0.0600 
    218 H218       -7.8413  -19.4396  -47.7880 H         1 UNK         0.0600 
    219 H219       -7.8168  -20.8143  -46.6989 H         1 UNK         0.0600 
    220 H220       -6.2626  -22.5905  -50.7209 H         1 UNK         0.3000 
    221 H221       -7.1653  -20.7087  -52.7609 H         1 UNK         0.0600 
    222 H222       -5.5507  -23.3075  -52.9865 H         1 UNK         0.0600 
    223 H223       -7.3042  -23.1827  -53.1005 H         1 UNK         0.0600 
    224 H224       -6.2861  -22.4272  -54.3189 H         1 UNK         0.0600 
    225 H225       -5.9119  -19.2066  -53.7866 H         1 UNK         0.3000 
    226 H226       -3.3897  -18.4391  -52.6366 H         1 UNK         0.0600 
    227 H227       -5.1213  -16.7918  -53.2257 H         1 UNK         0.0600 
    228 H228       -3.6663  -16.4787  -54.1542 H         1 UNK         0.0600 
    229 H229       -5.0402  -17.2593  -54.9259 H         1 UNK         0.0600 
    230 H230       -2.5040  -20.6617  -53.3396 H         1 UNK         0.3000 
    231 H231       -1.5569  -21.0960  -55.9823 H         1 UNK         0.0600 
    232 H232       -1.6989  -22.8469  -54.1627 H         1 UNK         0.0600 
    233 H233       -0.3365  -22.0786  -53.3452 H         1 UNK         0.0600 
    234 H234       -0.1192  -22.7964  -54.9321 H         1 UNK         0.0600 
    235 H235        0.2849  -20.5558  -57.0191 H         1 UNK         0.3000 
    236 H236        2.0995  -19.5813  -57.7141 H         1 UNK         0.0600 
    237 H237        4.0099  -19.1089  -56.2362 H         1 UNK         0.0600 
    238 H238        2.9987  -19.2442  -54.8077 H         1 UNK         0.0600 
    239 H239        3.2921  -20.6575  -55.8203 H         1 UNK         0.0600 
    240 H240        0.7431  -17.6634  -54.9980 H         1 UNK         0.3000 
    241 H241        1.6173  -15.1422  -56.1408 H         1 UNK         0.0600 
    242 H242       -2.1140  -15.8229  -57.6236 H         1 UNK         0.3800 
    243 H243       -1.3875  -17.0417  -56.6135 H         1 UNK         0.3800 
    244 H244        0.3997  -14.0572  -54.2971 H         1 UNK         0.0800 
    245 H245        1.4974  -15.2838  -53.7431 H         1 UNK         0.0800 
    246 H246        0.9424  -16.9401  -52.0698 H         1 UNK         0.0800 
    247 H247        0.2209  -15.5797  -51.2306 H         1 UNK         0.0800 
@<TRIPOS>BOND
     1    1    2 1    
     2    1  127 1    
     3    1  128 1    
     4    1  129 1    
     5    2    3 2    
     6    2    4 am   BACKBONE|DICT|INTERRES
     7    4    5 1    
     8    4  130 1    
     9    5    6 1    
    10    5   65 1    
    11    5  131 1    
    12    6    7 1    
    13    6  132 1    
    14    6  133 1    
    15    7    8 1    
    16    8    9 1    
    17    8  134 1    
    18    8  135 1    
    19    9   10 ar   
    20    9   14 ar   
    21   10   11 ar   
    22   10  136 1    
    23   11   12 ar   
    24   11  126 1    
    25   12   13 ar   
    26   12  137 1    
    27   13   14 ar   
    28   13   15 1    
    29   14  138 1    
    30   15   16 1    
    31   15  139 1    
    32   15  140 1    
    33   16   17 1    
    34   17   18 1    
    35   17  141 1    
    36   17  142 1    
    37   18   19 1    
    38   18   67 1    
    39   18  143 1    
    40   19   20 am   BACKBONE|DICT|INTERRES
    41   19  144 1    
    42   20   21 2    
    43   20   22 1    
    44   22   23 1    
    45   22   24 1    
    46   22  145 1    
    47   23  146 1    
    48   23  147 1    
    49   23  148 1    
    50   24   25 am   BACKBONE|DICT|INTERRES
    51   24  149 1    
    52   25   26 2    
    53   25   27 1    
    54   27   28 1    
    55   27   29 1    
    56   27  150 1    
    57   28  151 1    
    58   28  152 1    
    59   28  153 1    
    60   29   30 am   BACKBONE|DICT|INTERRES
    61   29  154 1    
    62   30   31 2    
    63   30   32 1    
    64   32   33 1    
    65   32   34 1    
    66   32  155 1    
    67   33  156 1    
    68   33  157 1    
    69   33  158 1    
    70   34   35 am   BACKBONE|DICT|INTERRES
    71   34  159 1    
    72   35   36 2    
    73   35   37 1    
    74   37   38 1    
    75   37   39 1    
    76   37  160 1    
    77   38  161 1    
    78   38  162 1    
    79   38  163 1    
    80   39   40 am   BACKBONE|DICT|INTERRES
    81   39  164 1    
    82   40   41 2    
    83   40   42 1    
    84   42   43 1    
    85   42   44 1    
    86   42  165 1    
    87   43  166 1    
    88   43  167 1    
    89   43  168 1    
    90   44   45 am   BACKBONE|DICT|INTERRES
    91   44  169 1    
    92   45   46 2    
    93   45   47 1    
    94   47   48 1    
    95   47   49 1    
    96   47  170 1    
    97   48  171 1    
    98   48  172 1    
    99   48  173 1    
   100   49   50 am   BACKBONE|DICT|INTERRES
   101   49  174 1    
   102   50   51 2    
   103   50   52 1    
   104   52   53 1    
   105   52   54 1    
   106   52  175 1    
   107   53  176 1    
   108   53  177 1    
   109   53  178 1    
   110   54   55 am   BACKBONE|DICT|INTERRES
   111   54  179 1    
   112   55   56 2    
   113   55   57 1    
   114   57   58 1    
   115   57   59 1    
   116   57  180 1    
   117   58  181 1    
   118   58  182 1    
   119   58  183 1    
   120   59   60 am   BACKBONE|DICT|INTERRES
   121   59  184 1    
   122   60   61 2    
   123   60   62 1    
   124   62   63 1    
   125   62   64 1    
   126   62  185 1    
   127   63  186 1    
   128   63  187 1    
   129   63  188 1    
   130   64   65 am   BACKBONE|DICT|INTERRES
   131   64  189 1    
   132   65   66 2    
   133   67   68 2    
   134   67   69 am   BACKBONE|DICT|INTERRES
   135   69   70 1    
   136   69  190 1    
   137   70   71 1    
   138   70   72 1    
   139   70  191 1    
   140   71  192 1    
   141   71  193 1    
   142   71  194 1    
   143   72   73 2    
   144   72   74 am   BACKBONE|DICT|INTERRES
   145   74   75 1    
   146   74  195 1    
   147   75   76 1    
   148   75   77 1    
   149   75  196 1    
   150   76  197 1    
   151   76  198 1    
   152   76  199 1    
   153   77   78 2    
   154   77   79 am   BACKBONE|DICT|INTERRES
   155   79   80 1    
   156   79  200 1    
   157   80   81 1    
   158   80   82 1    
   159   80  201 1    
   160   81  202 1    
   161   81  203 1    
   162   81  204 1    
   163   82   83 2    
   164   82   84 am   BACKBONE|DICT|INTERRES
   165   84   85 1    
   166   84  205 1    
   167   85   86 1    
   168   85   87 1    
   169   85  206 1    
   170   86  207 1    
   171   86  208 1    
   172   86  209 1    
   173   87   88 2    
   174   87   89 am   BACKBONE|DICT|INTERRES
   175   89   90 1    
   176   89  210 1    
   177   90   91 1    
   178   90   92 1    
   179   90  211 1    
   180   91  212 1    
   181   91  213 1    
   182   91  214 1    
   183   92   93 2    
   184   92   94 am   BACKBONE|DICT|INTERRES
   185   94   95 1    
   186   94  215 1    
   187   95   96 1    
   188   95   97 1    
   189   95  216 1    
   190   96  217 1    
   191   96  218 1    
   192   96  219 1    
   193   97   98 2    
   194   97   99 am   BACKBONE|DICT|INTERRES
   195   99  100 1    
   196   99  220 1    
   197  100  101 1    
   198  100  102 1    
   199  100  221 1    
   200  101  222 1    
   201  101  223 1    
   202  101  224 1    
   203  102  103 2    
   204  102  104 am   BACKBONE|DICT|INTERRES
   205  104  105 1    
   206  104  225 1    
   207  105  106 1    
   208  105  107 1    
   209  105  226 1    
   210  106  227 1    
   211  106  228 1    
   212  106  229 1    
   213  107  108 2    
   214  107  109 am   BACKBONE|DICT|INTERRES
   215  109  110 1    
   216  109  230 1    
   217  110  111 1    
   218  110  112 1    
   219  110  231 1    
   220  111  232 1    
   221  111  233 1    
   222  111  234 1    
   223  112  113 2    
   224  112  114 am   BACKBONE|DICT|INTERRES
   225  114  115 1    
   226  114  235 1    
   227  115  116 1    
   228  115  117 1    
   229  115  236 1    
   230  116  237 1    
   231  116  238 1    
   232  116  239 1    
   233  117  118 2    
   234  117  119 am   BACKBONE|DICT|INTERRES
   235  119  120 1    
   236  119  240 1    
   237  120  121 1    
   238  120  124 1    
   239  120  241 1    
   240  121  122 am   BACKBONE|DICT|INTERRES
   241  121  123 2    
   242  122  242 1    
   243  122  243 1    
   244  124  125 1    
   245  124  244 1    
   246  124  245 1    
   247  125  126 1    
   248  126  246 1    
   249  126  247 1    
@<TRIPOS>SUBSTRUCTURE
     1 UNK         1 GROUP             0       ****    0 ROOT    
