@<TRIPOS>MOLECULE
3R540
247   249    1
SMALL
USER_CHARGES


@<TRIPOS>ATOM
      1 CA          3.7016  -15.7218  -46.7212 C.3       0 UNK        -0.1800 
      2 C           2.6879  -14.9114  -47.5138 C.2       0 UNK         0.5000 
      3 O           2.8613  -13.7018  -47.6706 O.2       0 UNK        -0.5000 
      4 N           1.6233  -15.5699  -47.9905 N.am      1 UNK        -0.5000 
      5 CA          0.5030  -15.0506  -48.7934 C.3       1 UNK         0.1400 
      6 C6          0.9076  -14.4487  -50.1669 C.3       23 UNK        -0.0398 
      7 S7          1.9328  -15.5499  -51.1983 S.3       23 UNK        -0.2404 
      8 C8          0.6767  -16.4245  -52.1839 C.3       23 UNK        -0.0205 
      9 C9          0.1026  -17.6088  -51.4239 C.ar      23 UNK        -0.0193 
     10 C10        -1.1769  -17.5502  -50.8620 C.ar      23 UNK        -0.1150 
     11 C11        -1.6980  -18.6476  -50.1679 C.ar      23 UNK        -0.0193 
     12 C12        -0.9216  -19.8019  -50.0327 C.ar      23 UNK        -0.1150 
     13 C13         0.3567  -19.8713  -50.5903 C.ar      23 UNK        -0.0193 
     14 C14         0.8611  -18.7741  -51.2894 C.ar      23 UNK        -0.1150 
     15 C15         1.1878  -21.1346  -50.4486 C.3       23 UNK        -0.0205 
     16 S16         2.4576  -20.9962  -49.1481 S.3       23 UNK        -0.2404 
     17 C17         1.4900  -20.6799  -47.6306 C.3       23 UNK        -0.0398 
     18 CA          1.0684  -21.9760  -46.8962 C.3       11 UNK         0.1400 
     19 N           1.0043  -21.7913  -45.4442 N.am      11 UNK        -0.5000 
     20 C           0.8806  -22.7928  -44.5620 C.2       10 UNK         0.5000 
     21 O           0.8440  -23.9810  -44.8786 O.2       10 UNK        -0.5000 
     22 CA          0.7154  -22.4026  -43.0839 C.3       10 UNK         0.1400 
     23 CB          2.0715  -22.0468  -42.4572 C.3       10 UNK        -0.1800 
     24 N          -0.2287  -21.2997  -42.9000 N.am      10 UNK        -0.5000 
     25 C          -1.5299  -21.3613  -43.2184 C.2       9 UNK         0.5000 
     26 O          -2.0768  -22.3727  -43.6561 O.2       9 UNK        -0.5000 
     27 CA         -2.3541  -20.0723  -43.0619 C.3       9 UNK         0.1400 
     28 CB         -2.7856  -19.8803  -41.6007 C.3       9 UNK        -0.1800 
     29 N          -1.6482  -18.8804  -43.5332 N.am      9 UNK        -0.5000 
     30 C          -1.2585  -18.6725  -44.8000 C.2       8 UNK         0.5000 
     31 O          -1.4639  -19.4623  -45.7211 O.2       8 UNK        -0.5000 
     32 CA         -0.4493  -17.3920  -45.0726 C.3       8 UNK         0.1400 
     33 CB         -1.3574  -16.1545  -45.0748 C.3       8 UNK        -0.1800 
     34 N           0.6287  -17.2027  -44.1039 N.am      8 UNK        -0.5000 
     35 C           1.6464  -18.0554  -43.9188 C.2       7 UNK         0.5000 
     36 O           1.8253  -19.0692  -44.5941 O.2       7 UNK        -0.5000 
     37 CA          2.5922  -17.7474  -42.7468 C.3       7 UNK         0.1400 
     38 CB          3.6166  -16.6711  -43.1340 C.3       7 UNK        -0.1800 
     39 N           1.8598  -17.3272  -41.5516 N.am      7 UNK        -0.5000 
     40 C           1.0763  -18.1370  -40.8246 C.2       6 UNK         0.5000 
     41 O           0.9042  -19.3287  -41.0753 O.2       6 UNK        -0.5000 
     42 CA          0.3293  -17.4984  -39.6407 C.3       6 UNK         0.1400 
     43 CB          1.2432  -17.4023  -38.4100 C.3       6 UNK        -0.1800 
     44 N          -0.1971  -16.1719  -39.9608 N.am      6 UNK        -0.5000 
     45 C          -1.1647  -15.9376  -40.8584 C.2       5 UNK         0.5000 
     46 O          -1.7361  -16.8193  -41.4977 O.2       5 UNK        -0.5000 
     47 CA         -1.5130  -14.4627  -41.1222 C.3       5 UNK         0.1400 
     48 CB         -2.5284  -13.9513  -40.0897 C.3       5 UNK        -0.1800 
     49 N          -0.3350  -13.5911  -41.1247 N.am      5 UNK        -0.5000 
     50 C           0.6651  -13.6821  -42.0093 C.2       4 UNK         0.5000 
     51 O           0.7205  -14.5339  -42.9016 O.2       4 UNK        -0.5000 
     52 CA          1.8054  -12.6708  -41.8682 C.3       4 UNK         0.1400 
     53 CB          2.9770  -13.2588  -41.0636 C.3       4 UNK        -0.1800 
     54 N           2.2327  -12.3259  -43.2146 N.am      4 UNK        -0.5000 
     55 C           2.8224  -11.1860  -43.5854 C.2       3 UNK         0.5000 
     56 O           3.2068  -10.3214  -42.7968 O.2       3 UNK        -0.5000 
     57 CA          2.9776  -10.9618  -45.1019 C.3       3 UNK         0.1400 
     58 CB          4.3277  -11.5105  -45.5882 C.3       3 UNK        -0.1800 
     59 N           1.8987  -11.5663  -45.8931 N.am      3 UNK        -0.5000 
     60 C           0.6103  -11.1798  -45.8507 C.2       2 UNK         0.5000 
     61 O           0.2091  -10.2663  -45.1284 O.2       2 UNK        -0.5000 
     62 CA         -0.4085  -11.9101  -46.7499 C.3       2 UNK         0.1400 
     63 CB         -1.1252  -10.9302  -47.6983 C.3       2 UNK        -0.1800 
     64 N           0.2094  -12.9807  -47.5258 N.am      2 UNK        -0.5000 
     65 C          -0.3960  -14.0617  -48.0220 C.2       1 UNK         0.5000 
     66 O          -1.5980  -14.2956  -47.8976 O.2       1 UNK        -0.5000 
     67 C          -0.2493  -22.5530  -47.4566 C.2       11 UNK         0.5000 
     68 O          -0.2108  -23.4607  -48.2876 O.2       11 UNK        -0.5000 
     69 N          -1.3938  -22.0510  -46.9707 N.am      12 UNK        -0.5000 
     70 CA         -2.7249  -22.5389  -47.3332 C.3       12 UNK         0.1400 
     71 CB         -3.7986  -21.6123  -46.7448 C.3       12 UNK        -0.1800 
     72 C          -2.9667  -23.9985  -46.9031 C.2       12 UNK         0.5000 
     73 O          -3.5535  -24.7672  -47.6631 O.2       12 UNK        -0.5000 
     74 N          -2.4879  -24.3648  -45.7068 N.am      13 UNK        -0.5000 
     75 CA         -2.5223  -25.7326  -45.1909 C.3       13 UNK         0.1400 
     76 CB         -2.1656  -25.7261  -43.6966 C.3       13 UNK        -0.1800 
     77 C          -1.5933  -26.6813  -45.9713 C.2       13 UNK         0.5000 
     78 O          -1.9735  -27.8238  -46.2307 O.2       13 UNK        -0.5000 
     79 N          -0.3976  -26.1942  -46.3297 N.am      14 UNK        -0.5000 
     80 CA          0.6121  -26.9423  -47.0762 C.3       14 UNK         0.1400 
     81 CB          1.9650  -26.2222  -46.9677 C.3       14 UNK        -0.1800 
     82 C           0.2450  -27.1655  -48.5542 C.2       14 UNK         0.5000 
     83 O           0.5484  -28.2340  -49.0877 O.2       14 UNK        -0.5000 
     84 N          -0.3713  -26.1625  -49.1922 N.am      15 UNK        -0.5000 
     85 CA         -0.6601  -26.1551  -50.6221 C.3       15 UNK         0.1400 
     86 CB          0.4626  -25.4113  -51.3717 C.3       15 UNK        -0.1800 
     87 C          -2.0496  -25.5727  -50.9169 C.2       15 UNK         0.5000 
     88 O          -2.9617  -26.3392  -51.2293 O.2       15 UNK        -0.5000 
     89 N          -2.1664  -24.2354  -50.8734 N.am      16 UNK        -0.5000 
     90 CA         -3.2567  -23.4348  -51.4494 C.3       16 UNK         0.1400 
     91 CB         -4.5909  -23.6315  -50.6920 C.3       16 UNK        -0.1800 
     92 C          -3.3576  -23.6867  -52.9697 C.2       16 UNK         0.5000 
     93 O          -2.4240  -23.3303  -53.6912 O.2       16 UNK        -0.5000 
     94 N          -4.4496  -24.3263  -53.4156 N.am      17 UNK        -0.5000 
     95 CA         -4.7091  -24.8244  -54.7697 C.3       17 UNK         0.1400 
     96 CB         -3.8035  -26.0400  -55.0696 C.3       17 UNK        -0.1800 
     97 C          -4.6261  -23.7179  -55.8399 C.2       17 UNK         0.5000 
     98 O          -5.5979  -22.9853  -56.0277 O.2       17 UNK        -0.5000 
     99 N          -3.4718  -23.6142  -56.5125 N.am      18 UNK        -0.5000 
    100 CA        -3.1656  -22.6060  -57.5276 C.3       18 UNK         0.1400 
    101 CB        -1.8595  -22.9970  -58.2361 C.3       18 UNK        -0.1800 
    102 C         -3.0690  -21.1721  -56.9698 C.2       18 UNK         0.5000 
    103 O         -3.2295  -20.2207  -57.7362 O.2       18 UNK        -0.5000 
    104 N         -2.8170  -21.0312  -55.6602 N.am      19 UNK        -0.5000 
    105 CA        -2.8439  -19.7584  -54.9456 C.3       19 UNK         0.1400 
    106 CB        -2.1181  -19.9123  -53.6008 C.3       19 UNK        -0.1800 
    107 C         -4.2979  -19.2883  -54.7587 C.2       19 UNK         0.5000 
    108 O         -4.9568  -19.6831  -53.7950 O.2       19 UNK        -0.5000 
    109 N         -4.7809  -18.4597  -55.6936 N.am      20 UNK        -0.5000 
    110 CA        -6.1611  -17.9631  -55.7758 C.3       20 UNK         0.1400 
    111 CB        -6.3118  -17.1426  -57.0662 C.3       20 UNK        -0.1800 
    112 C         -6.6384  -17.1445  -54.5568 C.2       20 UNK         0.5000 
    113 O         -7.8447  -16.9786  -54.3733 O.2       20 UNK        -0.5000 
    114 N         -5.6918  -16.6660  -53.7391 N.am      21 UNK        -0.5000 
    115 CA        -5.9302  -15.9946  -52.4625 C.3       21 UNK         0.1400 
    116 CB        -4.6114  -15.3604  -51.9940 C.3       21 UNK        -0.1800 
    117 C         -6.5005  -16.9188  -51.3647 C.2       21 UNK         0.5000 
    118 O         -7.0617  -16.4074  -50.3944 O.2       21 UNK        -0.5000 
    119 N         -6.3484  -18.2410  -51.5162 N.am      22 UNK        -0.5000 
    120 CA        -6.8048  -19.2483  -50.5446 C.3       22 UNK         0.1400 
    121 C         -7.3315  -20.5687  -51.1748 C.2       22 UNK         0.5000 
    122 N         -7.0186  -20.9004  -52.4207 N.am      22 UNK        -0.7600 
    123 O         -8.0714  -21.3005  -50.5228 O.2       22 UNK        -0.5000 
    124 C124       -5.7591  -19.5065  -49.4281 C.3       23 UNK        -0.0398 
    125 S125       -4.1241  -19.9936  -50.0792 S.3       23 UNK        -0.2404 
    126 C126       -3.0918  -18.5857  -49.5585 C.3       23 UNK        -0.0205 
    127 H127        3.9387  -15.2114  -45.7881 H         1 UNK         0.0600 
    128 H128        3.3263  -16.7169  -46.4799 H         1 UNK         0.0600 
    129 H129        4.6224  -15.8310  -47.2937 H         1 UNK         0.0600 
    130 H130        1.5704  -16.5622  -47.8134 H         1 UNK         0.3000 
    131 H131       -0.1189  -15.9229  -48.9892 H         1 UNK         0.0600 
    132 H132        0.0192  -14.1638  -50.7332 H         1 UNK         0.0800 
    133 H133        1.4742  -13.5268  -50.0267 H         1 UNK         0.0800 
    134 H134       -0.1105  -15.7371  -52.4966 H         1 UNK         0.0800 
    135 H135        1.1431  -16.7852  -53.1019 H         1 UNK         0.0800 
    136 H136       -1.7623  -16.6483  -50.9627 H         1 UNK         0.1150 
    137 H137       -1.3203  -20.6499  -49.4956 H         1 UNK         0.1150 
    138 H138        1.8512  -18.8227  -51.7207 H         1 UNK         0.1150 
    139 H139        0.5478  -21.9941  -50.2574 H         1 UNK         0.0800 
    140 H140        1.6848  -21.3441  -51.3969 H         1 UNK         0.0800 
    141 H141        0.6441  -20.0190  -47.8204 H         1 UNK         0.0800 
    142 H142        2.1562  -20.1017  -46.9900 H         1 UNK         0.0800 
    143 H143        1.8429  -22.7267  -47.0674 H         1 UNK         0.0600 
    144 H144        1.0554  -20.8368  -45.1005 H         1 UNK         0.3000 
    145 H145        0.3175  -23.2716  -42.5556 H         1 UNK         0.0600 
    146 H146        1.9751  -21.8692  -41.3861 H         1 UNK         0.0600 
    147 H147        2.7877  -22.8590  -42.5880 H         1 UNK         0.0600 
    148 H148        2.5025  -21.1523  -42.9073 H         1 UNK         0.0600 
    149 H149        0.1408  -20.4486  -42.4870 H         1 UNK         0.3000 
    150 H150       -3.2555  -20.1816  -43.6679 H         1 UNK         0.0600 
    151 H151       -3.3187  -20.7573  -41.2314 H         1 UNK         0.0600 
    152 H152       -3.4549  -19.0262  -41.4972 H         1 UNK         0.0600 
    153 H153       -1.9289  -19.7156  -40.9465 H         1 UNK         0.0600 
    154 H154       -1.4703  -18.1598  -42.8386 H         1 UNK         0.3000 
    155 H155        0.0035  -17.4854  -46.0616 H         1 UNK         0.0600 
    156 H156       -0.7869  -15.2478  -45.2755 H         1 UNK         0.0600 
    157 H157       -1.8634  -16.0202  -44.1189 H         1 UNK         0.0600 
    158 H158       -2.1252  -16.2363  -45.8450 H         1 UNK         0.0600 
    159 H159        0.5795  -16.3679  -43.5269 H         1 UNK         0.3000 
    160 H160        3.1374  -18.6626  -42.5065 H         1 UNK         0.0600 
    161 H161        3.1349  -15.7355  -43.4198 H         1 UNK         0.0600 
    162 H162        4.2221  -17.0010  -43.9788 H         1 UNK         0.0600 
    163 H163        4.2994  -16.4611  -42.3107 H         1 UNK         0.0600 
    164 H164        1.9089  -16.3506  -41.3055 H         1 UNK         0.3000 
    165 H165       -0.5135  -18.1463  -39.3903 H         1 UNK         0.0600 
    166 H166        2.0936  -16.7428  -38.5877 H         1 UNK         0.0600 
    167 H167        0.6996  -17.0236  -37.5443 H         1 UNK         0.0600 
    168 H168        1.6384  -18.3827  -38.1407 H         1 UNK         0.0600 
    169 H169        0.2183  -15.3858  -39.4835 H         1 UNK         0.3000 
    170 H170       -1.9741  -14.4050  -42.1105 H         1 UNK         0.0600 
    171 H171       -3.4230  -14.5756  -40.0805 H         1 UNK         0.0600 
    172 H172       -2.1154  -13.9545  -39.0802 H         1 UNK         0.0600 
    173 H173       -2.8464  -12.9343  -40.3197 H         1 UNK         0.0600 
    174 H174       -0.3073  -12.8679  -40.4202 H         1 UNK         0.3000 
    175 H175        1.4269  -11.7770  -41.3678 H         1 UNK         0.0600 
    176 H176        3.7782  -12.5293  -40.9446 H         1 UNK         0.0600 
    177 H177        2.6568  -13.5542  -40.0638 H         1 UNK         0.0600 
    178 H178        3.3990  -14.1384  -41.5490 H         1 UNK         0.0600 
    179 H179        1.9220  -12.9764  -43.9247 H         1 UNK         0.3000 
    180 H180        2.9620   -9.8847  -45.2804 H         1 UNK         0.0600 
    181 H181        4.3989  -12.5893  -45.4446 H         1 UNK         0.0600 
    182 H182        5.1550  -11.0512  -45.0455 H         1 UNK         0.0600 
    183 H183        4.4793  -11.3037  -46.6478 H         1 UNK         0.0600 
    184 H184        2.1853  -12.3240  -46.5023 H         1 UNK         0.3000 
    185 H185       -1.1483  -12.3520  -46.0790 H         1 UNK         0.0600 
    186 H186       -1.9018  -11.4320  -48.2755 H         1 UNK         0.0600 
    187 H187       -1.6084  -10.1252  -47.1434 H         1 UNK         0.0600 
    188 H188       -0.4273  -10.4738  -48.4011 H         1 UNK         0.0600 
    189 H189        1.2125  -12.9202  -47.6750 H         1 UNK         0.3000 
    190 H190       -1.3580  -21.2644  -46.3273 H         1 UNK         0.3000 
    191 H191       -2.7954  -22.4917  -48.4204 H         1 UNK         0.0600 
    192 H192       -3.6540  -20.5826  -47.0699 H         1 UNK         0.0600 
    193 H193       -4.7943  -21.9186  -47.0672 H         1 UNK         0.0600 
    194 H194       -3.7875  -21.6224  -45.6552 H         1 UNK         0.0600 
    195 H195       -2.0828  -23.6561  -45.1014 H         1 UNK         0.3000 
    196 H196       -3.5430  -26.1073  -45.2928 H         1 UNK         0.0600 
    197 H197       -2.2000  -26.7342  -43.2819 H         1 UNK         0.0600 
    198 H198       -2.8668  -25.1155  -43.1275 H         1 UNK         0.0600 
    199 H199       -1.1638  -25.3324  -43.5226 H         1 UNK         0.0600 
    200 H200       -0.1344  -25.2641  -46.0184 H         1 UNK         0.3000 
    201 H201        0.7175  -27.9243  -46.6101 H         1 UNK         0.0600 
    202 H202        2.2845  -26.1372  -45.9290 H         1 UNK         0.0600 
    203 H203        1.9193  -25.2171  -47.3881 H         1 UNK         0.0600 
    204 H204        2.7433  -26.7674  -47.5032 H         1 UNK         0.0600 
    205 H205       -0.5565  -25.2967  -48.6918 H         1 UNK         0.3000 
    206 H206       -0.6816  -27.1790  -51.0017 H         1 UNK         0.0600 
    207 H207        0.6367  -24.4153  -50.9637 H         1 UNK         0.0600 
    208 H208        1.4021  -25.9603  -51.3081 H         1 UNK         0.0600 
    209 H209        0.2229  -25.3001  -52.4302 H         1 UNK         0.0600 
    210 H210       -1.3525  -23.7113  -50.5854 H         1 UNK         0.3000 
    211 H211       -2.9630  -22.3918  -51.3345 H         1 UNK         0.0600 
    212 H212       -4.9152  -24.6717  -50.6705 H         1 UNK         0.0600 
    213 H213       -5.3883  -23.0428  -51.1465 H         1 UNK         0.0600 
    214 H214       -4.5142  -23.2928  -49.6617 H         1 UNK         0.0600 
    215 H215       -5.1551  -24.5598  -52.7318 H         1 UNK         0.3000 
    216 H216       -5.7410  -25.1785  -54.7765 H         1 UNK         0.0600 
    217 H217       -4.0045  -26.8524  -54.3709 H         1 UNK         0.0600 
    218 H218       -2.7428  -25.7998  -54.9907 H         1 UNK         0.0600 
    219 H219       -3.9841  -26.4273  -56.0733 H         1 UNK         0.0600 
    220 H220       -2.7177  -24.2335  -56.2532 H         1 UNK         0.3000 
    221 H221       -3.9713  -22.6152  -58.2645 H         1 UNK         0.0600 
    222 H222       -1.0186  -23.0237  -57.5418 H         1 UNK         0.0600 
    223 H223       -1.9419  -23.9785  -58.7033 H         1 UNK         0.0600 
    224 H224       -1.6128  -22.2836  -59.0235 H         1 UNK         0.0600 
    225 H225       -2.7071  -21.8656  -55.0925 H         1 UNK         0.3000 
    226 H226       -2.3033  -19.0108  -55.5300 H         1 UNK         0.0600 
    227 H227       -1.0829  -20.2251  -53.7375 H         1 UNK         0.0600 
    228 H228       -2.1044  -18.9628  -53.0679 H         1 UNK         0.0600 
    229 H229       -2.6051  -20.6397  -52.9524 H         1 UNK         0.0600 
    230 H230       -4.1818  -18.2284  -56.4742 H         1 UNK         0.3000 
    231 H231       -6.8149  -18.8347  -55.8472 H         1 UNK         0.0600 
    232 H232       -7.3353  -16.7851  -57.1873 H         1 UNK         0.0600 
    233 H233       -6.0735  -17.7420  -57.9452 H         1 UNK         0.0600 
    234 H234       -5.6570  -16.2704  -57.0655 H         1 UNK         0.0600 
    235 H235       -4.7293  -16.8496  -53.9791 H         1 UNK         0.3000 
    236 H236       -6.6569  -15.1964  -52.6275 H         1 UNK         0.0600 
    237 H237       -4.7373  -14.8463  -51.0400 H         1 UNK         0.0600 
    238 H238       -3.8349  -16.1133  -51.8627 H         1 UNK         0.0600 
    239 H239       -4.2490  -14.6253  -52.7128 H         1 UNK         0.0600 
    240 H240       -5.8630  -18.5983  -52.3307 H         1 UNK         0.3000 
    241 H241       -7.6891  -18.8400  -50.0513 H         1 UNK         0.0600 
    242 H242       -6.3195  -20.3858  -52.9533 H         1 UNK         0.3800 
    243 H243       -7.4015  -21.7469  -52.8074 H         1 UNK         0.3800 
    244 H244       -5.6523  -18.6091  -48.8177 H         1 UNK         0.0800 
    245 H245       -6.1055  -20.2826  -48.7436 H         1 UNK         0.0800 
    246 H246       -3.5908  -17.6573  -49.8396 H         1 UNK         0.0800 
    247 H247       -3.0043  -18.5817  -48.4711 H         1 UNK         0.0800 
@<TRIPOS>BOND
     1    1    2 1    
     2    1  127 1    
     3    1  128 1    
     4    1  129 1    
     5    2    3 2    
     6    2    4 am   BACKBONE|DICT|INTERRES
     7    4    5 1    
     8    4  130 1    
     9    5    6 1    
    10    5   65 1    
    11    5  131 1    
    12    6    7 1    
    13    6  132 1    
    14    6  133 1    
    15    7    8 1    
    16    8    9 1    
    17    8  134 1    
    18    8  135 1    
    19    9   10 ar   
    20    9   14 ar   
    21   10   11 ar   
    22   10  136 1    
    23   11   12 ar   
    24   11  126 1    
    25   12   13 ar   
    26   12  137 1    
    27   13   14 ar   
    28   13   15 1    
    29   14  138 1    
    30   15   16 1    
    31   15  139 1    
    32   15  140 1    
    33   16   17 1    
    34   17   18 1    
    35   17  141 1    
    36   17  142 1    
    37   18   19 1    
    38   18   67 1    
    39   18  143 1    
    40   19   20 am   BACKBONE|DICT|INTERRES
    41   19  144 1    
    42   20   21 2    
    43   20   22 1    
    44   22   23 1    
    45   22   24 1    
    46   22  145 1    
    47   23  146 1    
    48   23  147 1    
    49   23  148 1    
    50   24   25 am   BACKBONE|DICT|INTERRES
    51   24  149 1    
    52   25   26 2    
    53   25   27 1    
    54   27   28 1    
    55   27   29 1    
    56   27  150 1    
    57   28  151 1    
    58   28  152 1    
    59   28  153 1    
    60   29   30 am   BACKBONE|DICT|INTERRES
    61   29  154 1    
    62   30   31 2    
    63   30   32 1    
    64   32   33 1    
    65   32   34 1    
    66   32  155 1    
    67   33  156 1    
    68   33  157 1    
    69   33  158 1    
    70   34   35 am   BACKBONE|DICT|INTERRES
    71   34  159 1    
    72   35   36 2    
    73   35   37 1    
    74   37   38 1    
    75   37   39 1    
    76   37  160 1    
    77   38  161 1    
    78   38  162 1    
    79   38  163 1    
    80   39   40 am   BACKBONE|DICT|INTERRES
    81   39  164 1    
    82   40   41 2    
    83   40   42 1    
    84   42   43 1    
    85   42   44 1    
    86   42  165 1    
    87   43  166 1    
    88   43  167 1    
    89   43  168 1    
    90   44   45 am   BACKBONE|DICT|INTERRES
    91   44  169 1    
    92   45   46 2    
    93   45   47 1    
    94   47   48 1    
    95   47   49 1    
    96   47  170 1    
    97   48  171 1    
    98   48  172 1    
    99   48  173 1    
   100   49   50 am   BACKBONE|DICT|INTERRES
   101   49  174 1    
   102   50   51 2    
   103   50   52 1    
   104   52   53 1    
   105   52   54 1    
   106   52  175 1    
   107   53  176 1    
   108   53  177 1    
   109   53  178 1    
   110   54   55 am   BACKBONE|DICT|INTERRES
   111   54  179 1    
   112   55   56 2    
   113   55   57 1    
   114   57   58 1    
   115   57   59 1    
   116   57  180 1    
   117   58  181 1    
   118   58  182 1    
   119   58  183 1    
   120   59   60 am   BACKBONE|DICT|INTERRES
   121   59  184 1    
   122   60   61 2    
   123   60   62 1    
   124   62   63 1    
   125   62   64 1    
   126   62  185 1    
   127   63  186 1    
   128   63  187 1    
   129   63  188 1    
   130   64   65 am   BACKBONE|DICT|INTERRES
   131   64  189 1    
   132   65   66 2    
   133   67   68 2    
   134   67   69 am   BACKBONE|DICT|INTERRES
   135   69   70 1    
   136   69  190 1    
   137   70   71 1    
   138   70   72 1    
   139   70  191 1    
   140   71  192 1    
   141   71  193 1    
   142   71  194 1    
   143   72   73 2    
   144   72   74 am   BACKBONE|DICT|INTERRES
   145   74   75 1    
   146   74  195 1    
   147   75   76 1    
   148   75   77 1    
   149   75  196 1    
   150   76  197 1    
   151   76  198 1    
   152   76  199 1    
   153   77   78 2    
   154   77   79 am   BACKBONE|DICT|INTERRES
   155   79   80 1    
   156   79  200 1    
   157   80   81 1    
   158   80   82 1    
   159   80  201 1    
   160   81  202 1    
   161   81  203 1    
   162   81  204 1    
   163   82   83 2    
   164   82   84 am   BACKBONE|DICT|INTERRES
   165   84   85 1    
   166   84  205 1    
   167   85   86 1    
   168   85   87 1    
   169   85  206 1    
   170   86  207 1    
   171   86  208 1    
   172   86  209 1    
   173   87   88 2    
   174   87   89 am   BACKBONE|DICT|INTERRES
   175   89   90 1    
   176   89  210 1    
   177   90   91 1    
   178   90   92 1    
   179   90  211 1    
   180   91  212 1    
   181   91  213 1    
   182   91  214 1    
   183   92   93 2    
   184   92   94 am   BACKBONE|DICT|INTERRES
   185   94   95 1    
   186   94  215 1    
   187   95   96 1    
   188   95   97 1    
   189   95  216 1    
   190   96  217 1    
   191   96  218 1    
   192   96  219 1    
   193   97   98 2    
   194   97   99 am   BACKBONE|DICT|INTERRES
   195   99  100 1    
   196   99  220 1    
   197  100  101 1    
   198  100  102 1    
   199  100  221 1    
   200  101  222 1    
   201  101  223 1    
   202  101  224 1    
   203  102  103 2    
   204  102  104 am   BACKBONE|DICT|INTERRES
   205  104  105 1    
   206  104  225 1    
   207  105  106 1    
   208  105  107 1    
   209  105  226 1    
   210  106  227 1    
   211  106  228 1    
   212  106  229 1    
   213  107  108 2    
   214  107  109 am   BACKBONE|DICT|INTERRES
   215  109  110 1    
   216  109  230 1    
   217  110  111 1    
   218  110  112 1    
   219  110  231 1    
   220  111  232 1    
   221  111  233 1    
   222  111  234 1    
   223  112  113 2    
   224  112  114 am   BACKBONE|DICT|INTERRES
   225  114  115 1    
   226  114  235 1    
   227  115  116 1    
   228  115  117 1    
   229  115  236 1    
   230  116  237 1    
   231  116  238 1    
   232  116  239 1    
   233  117  118 2    
   234  117  119 am   BACKBONE|DICT|INTERRES
   235  119  120 1    
   236  119  240 1    
   237  120  121 1    
   238  120  124 1    
   239  120  241 1    
   240  121  122 am   BACKBONE|DICT|INTERRES
   241  121  123 2    
   242  122  242 1    
   243  122  243 1    
   244  124  125 1    
   245  124  244 1    
   246  124  245 1    
   247  125  126 1    
   248  126  246 1    
   249  126  247 1    
@<TRIPOS>SUBSTRUCTURE
     1 UNK         1 GROUP             0       ****    0 ROOT    
