@<TRIPOS>MOLECULE
3R540
247   249    1
SMALL
USER_CHARGES


@<TRIPOS>ATOM
      1 CA         -1.8235  -12.0986  -45.9772 C.3       0 UNK        -0.1800 
      2 C          -0.5318  -11.8339  -46.7382 C.2       0 UNK         0.5000 
      3 O          -0.4844  -10.9264  -47.5694 O.2       0 UNK        -0.5000 
      4 N           0.5103  -12.6267  -46.4637 N.am      1 UNK        -0.5000 
      5 CA          1.8489  -12.4831  -47.0449 C.3       1 UNK         0.1400 
      6 C6          2.6957  -13.7627  -46.8397 C.3       23 UNK        -0.0398 
      7 S7          1.9791  -15.2060  -47.6941 S.3       23 UNK        -0.2404 
      8 C8          3.3791  -15.7557  -48.7132 C.3       23 UNK        -0.0205 
      9 C9          2.9195  -16.7122  -49.8004 C.ar      23 UNK        -0.0193 
     10 C10         2.5377  -16.2102  -51.0478 C.ar      23 UNK        -0.1150 
     11 C11         2.1181  -17.0734  -52.0625 C.ar      23 UNK        -0.0193 
     12 C12         2.0935  -18.4499  -51.8256 C.ar      23 UNK        -0.1150 
     13 C13         2.4723  -18.9658  -50.5824 C.ar      23 UNK        -0.0193 
     14 C14         2.8810  -18.0914  -49.5695 C.ar      23 UNK        -0.1150 
     15 C15         2.4549  -20.4701  -50.3545 C.3       23 UNK        -0.0205 
     16 S16         0.7570  -21.1208  -50.2726 S.3       23 UNK        -0.2404 
     17 C17         0.2675  -20.6892  -48.5685 C.3       23 UNK        -0.0398 
     18 CA         -0.0681  -21.9477  -47.7308 C.3       11 UNK         0.1400 
     19 N           0.0460  -21.7061  -46.2899 N.am      11 UNK        -0.5000 
     20 C          -0.0382  -22.6593  -45.3499 C.2       10 UNK         0.5000 
     21 O          -0.1582  -23.8577  -45.6014 O.2       10 UNK        -0.5000 
     22 CA         -0.0430  -22.1973  -43.8821 C.3       10 UNK         0.1400 
     23 CB          1.3884  -21.9565  -43.3814 C.3       10 UNK        -0.1800 
     24 N          -0.8548  -20.9976  -43.6733 N.am      10 UNK        -0.5000 
     25 C          -2.1793  -20.9324  -43.8745 C.2       9 UNK         0.5000 
     26 O          -2.8676  -21.8990  -44.1992 O.2       9 UNK        -0.5000 
     27 CA         -2.8374  -19.5458  -43.7519 C.3       9 UNK         0.1400 
     28 CB         -3.0885  -19.1818  -42.2816 C.3       9 UNK        -0.1800 
     29 N          -2.0483  -18.4943  -44.3941 N.am      9 UNK        -0.5000 
     30 C          -1.7642  -18.4481  -45.7040 C.2       8 UNK         0.5000 
     31 O          -2.1862  -19.2605  -46.5267 O.2       8 UNK        -0.5000 
     32 CA         -0.7978  -17.3422  -46.1585 C.3       8 UNK         0.1400 
     33 CB         -1.5368  -16.0085  -46.3448 C.3       8 UNK        -0.1800 
     34 N           0.3097  -17.1791  -45.2157 N.am      8 UNK        -0.5000 
     35 C           1.2901  -18.0790  -45.0517 C.2       7 UNK         0.5000 
     36 O           1.3828  -19.1139  -45.7114 O.2       7 UNK        -0.5000 
     37 CA          2.3047  -17.8069  -43.9263 C.3       7 UNK         0.1400 
     38 CB          3.4455  -16.9055  -44.4165 C.3       7 UNK        -0.1800 
     39 N           1.6795  -17.2092  -42.7455 N.am      7 UNK        -0.5000 
     40 C           0.8448  -17.8692  -41.9288 C.2       6 UNK         0.5000 
     41 O           0.5509  -19.0544  -42.0723 O.2       6 UNK        -0.5000 
     42 CA          0.1928  -17.0672  -40.7867 C.3       6 UNK         0.1400 
     43 CB          1.0760  -17.1077  -39.5310 C.3       6 UNK        -0.1800 
     44 N          -0.0780  -15.6732  -41.1372 N.am      6 UNK        -0.5000 
     45 C          -0.8703  -15.2619  -42.1378 C.2       5 UNK         0.5000 
     46 O          -1.5067  -16.0287  -42.8604 O.2       5 UNK        -0.5000 
     47 CA         -0.9193  -13.7444  -42.4069 C.3       5 UNK         0.1400 
     48 CB         -2.1867  -13.1261  -41.8005 C.3       5 UNK        -0.1800 
     49 N           0.2600  -13.0339  -41.9003 N.am      5 UNK        -0.5000 
     50 C           1.4921  -13.1666  -42.4071 C.2       4 UNK         0.5000 
     51 O           1.7525  -13.8530  -43.3994 O.2       4 UNK        -0.5000 
     52 CA          2.6263  -12.4886  -41.6287 C.3       4 UNK         0.1400 
     53 CB          3.0895  -13.4002  -40.4746 C.3       4 UNK        -0.1800 
     54 N           3.7274  -12.2269  -42.5473 N.am      4 UNK        -0.5000 
     55 C           4.7877  -11.4455  -42.3065 C.2       3 UNK         0.5000 
     56 O           4.9824  -10.8524  -41.2451 O.2       3 UNK        -0.5000 
     57 CA          5.7641  -11.2547  -43.4731 C.3       3 UNK         0.1400 
     58 CB          6.4873  -12.5673  -43.8317 C.3       3 UNK        -0.1800 
     59 N           5.0171  -10.7405  -44.6137 N.am      3 UNK        -0.5000 
     60 C           5.5111  -10.1231  -45.6891 C.2       2 UNK         0.5000 
     61 O           6.7146   -9.9293  -45.8703 O.2       2 UNK        -0.5000 
     62 CA          4.4709   -9.6628  -46.7386 C.3       2 UNK         0.1400 
     63 CB          5.1226   -9.0474  -47.9903 C.3       2 UNK        -0.1800 
     64 N           3.5779  -10.7487  -47.1603 N.am      2 UNK        -0.5000 
     65 C           2.5777  -11.2683  -46.4360 C.2       1 UNK         0.5000 
     66 O           2.2779  -10.8644  -45.3081 O.2       1 UNK        -0.5000 
     67 C          -1.4484  -22.5309  -48.1031 C.2       11 UNK         0.5000 
     68 O          -1.5121  -23.5355  -48.8112 O.2       11 UNK        -0.5000 
     69 N          -2.5242  -21.9287  -47.5761 N.am      12 UNK        -0.5000 
     70 CA         -3.9000  -22.3904  -47.7613 C.3       12 UNK         0.1400 
     71 CB         -4.8778  -21.3526  -47.1928 C.3       12 UNK        -0.1800 
     72 C          -4.1581  -23.7820  -47.1580 C.2       12 UNK         0.5000 
     73 O          -4.8521  -24.5867  -47.7794 O.2       12 UNK        -0.5000 
     74 N          -3.5708  -24.0576  -45.9857 N.am      13 UNK        -0.5000 
     75 CA         -3.6057  -25.3643  -45.3297 C.3       13 UNK         0.1400 
     76 CB         -3.0472  -25.2464  -43.9038 C.3       13 UNK        -0.1800 
     77 C          -2.8540  -26.4443  -46.1290 C.2       13 UNK         0.5000 
     78 O          -3.3727  -27.5504  -46.2791 O.2       13 UNK        -0.5000 
     79 N          -1.6717  -26.0975  -46.6587 N.am      14 UNK        -0.5000 
     80 CA         -0.8540  -26.9612  -47.5144 C.3       14 UNK         0.1400 
     81 CB          0.5296  -26.3252  -47.7179 C.3       14 UNK        -0.1800 
     82 C          -1.5209  -27.2658  -48.8690 C.2       14 UNK         0.5000 
     83 O          -1.4532  -28.4029  -49.3372 O.2       14 UNK        -0.5000 
     84 N          -2.1795  -26.2569  -49.4560 N.am      15 UNK        -0.5000 
     85 CA         -2.9829  -26.3771  -50.6753 C.3       15 UNK         0.1400 
     86 CB         -3.2850  -24.9685  -51.2134 C.3       15 UNK        -0.1800 
     87 C          -4.2954  -27.1613  -50.4672 C.2       15 UNK         0.5000 
     88 O          -4.8487  -27.6716  -51.4418 O.2       15 UNK        -0.5000 
     89 N          -4.7583  -27.2360  -49.2093 N.am      16 UNK        -0.5000 
     90 CA         -6.0434  -27.7699  -48.7501 C.3       16 UNK         0.1400 
     91 CB         -6.1530  -29.2850  -49.0207 C.3       16 UNK        -0.1800 
     92 C          -7.2177  -26.9491  -49.3193 C.2       16 UNK         0.5000 
     93 O          -8.1548  -27.5099  -49.8914 O.2       16 UNK        -0.5000 
     94 N          -7.1105  -25.6207  -49.1647 N.am      17 UNK        -0.5000 
     95 CA         -7.9478  -24.5839  -49.7715 C.3       17 UNK         0.1400 
     96 CB         -9.3949  -24.6451  -49.2323 C.3       17 UNK        -0.1800 
     97 C          -7.8280  -24.6137  -51.3108 C.2       17 UNK         0.5000 
     98 O          -6.7127  -24.7583  -51.8141 O.2       17 UNK        -0.5000 
     99 N          -8.9539  -24.4644  -52.0257 N.am      18 UNK        -0.5000 
    100 CA        -9.0753  -24.4700  -53.4880 C.3       18 UNK         0.1400 
    101 CB        -8.8468  -25.8964  -54.0385 C.3       18 UNK        -0.1800 
    102 C         -8.1833  -23.3894  -54.1365 C.2       18 UNK         0.5000 
    103 O         -8.3896  -22.2031  -53.8708 O.2       18 UNK        -0.5000 
    104 N         -7.1912  -23.8007  -54.9366 N.am      19 UNK        -0.5000 
    105 CA        -6.1893  -22.9477  -55.5802 C.3       19 UNK         0.1400 
    106 CB        -5.6105  -23.7003  -56.7920 C.3       19 UNK        -0.1800 
    107 C         -5.0957  -22.4686  -54.5962 C.2       19 UNK         0.5000 
    108 O         -3.9036  -22.6245  -54.8652 O.2       19 UNK        -0.5000 
    109 N         -5.5246  -21.8931  -53.4670 N.am      20 UNK        -0.5000 
    110 CA        -4.6670  -21.3146  -52.4318 C.3       20 UNK         0.1400 
    111 CB        -5.4511  -21.2737  -51.1108 C.3       20 UNK        -0.1800 
    112 C         -4.1570  -19.9066  -52.7980 C.2       20 UNK         0.5000 
    113 O         -3.1758  -19.4483  -52.2122 O.2       20 UNK        -0.5000 
    114 N         -4.8396  -19.2385  -53.7386 N.am      21 UNK        -0.5000 
    115 CA        -4.4909  -17.9161  -54.2547 C.3       21 UNK         0.1400 
    116 CB        -5.6668  -17.3870  -55.0907 C.3       21 UNK        -0.1800 
    117 C         -3.1999  -17.9405  -55.0948 C.2       21 UNK         0.5000 
    118 O         -2.9105  -18.9401  -55.7569 O.2       21 UNK        -0.5000 
    119 N         -2.4690  -16.8214  -55.0729 N.am      22 UNK        -0.5000 
    120 CA        -1.1887  -16.6363  -55.7794 C.3       22 UNK         0.1400 
    121 C         -1.3183  -16.3801  -57.3107 C.2       22 UNK         0.5000 
    122 N         -2.5107  -16.1777  -57.8580 N.am      22 UNK        -0.7600 
    123 O         -0.3150  -16.3717  -58.0188 O.2       22 UNK        -0.5000 
    124 C124       -0.3224  -15.5380  -55.1092 C.3       23 UNK        -0.0398 
    125 S125       -0.0069  -15.8757  -53.3430 S.3       23 UNK        -0.2404 
    126 C126        1.6918  -16.5190  -53.4118 C.3       23 UNK        -0.0205 
    127 H127       -2.6851  -11.9369  -46.6251 H         1 UNK         0.0600 
    128 H128       -1.9033  -11.4229  -45.1256 H         1 UNK         0.0600 
    129 H129       -1.8707  -13.1232  -45.6112 H         1 UNK         0.0600 
    130 H130        0.4322  -13.3259  -45.7402 H         1 UNK         0.3000 
    131 H131        1.7405  -12.3067  -48.1174 H         1 UNK         0.0600 
    132 H132        3.7170  -13.6116  -47.1933 H         1 UNK         0.0800 
    133 H133        2.7824  -13.9931  -45.7794 H         1 UNK         0.0800 
    134 H134        3.8662  -14.8933  -49.1709 H         1 UNK         0.0800 
    135 H135        4.1254  -16.2331  -48.0764 H         1 UNK         0.0800 
    136 H136        2.5568  -15.1442  -51.2274 H         1 UNK         0.1150 
    137 H137        1.7713  -19.1244  -52.6068 H         1 UNK         0.1150 
    138 H138        3.1720  -18.4811  -48.6038 H         1 UNK         0.1150 
    139 H139        2.9757  -20.9576  -51.1799 H         1 UNK         0.0800 
    140 H140        3.0021  -20.7403  -49.4499 H         1 UNK         0.0800 
    141 H141       -0.5704  -19.9910  -48.6029 H         1 UNK         0.0800 
    142 H142        1.0869  -20.1413  -48.1039 H         1 UNK         0.0800 
    143 H143        0.6769  -22.7122  -47.9627 H         1 UNK         0.0600 
    144 H144        0.1989  -20.7461  -45.9999 H         1 UNK         0.3000 
    145 H145       -0.4786  -22.9999  -43.2837 H         1 UNK         0.0600 
    146 H146        1.3980  -21.7113  -42.3193 H         1 UNK         0.0600 
    147 H147        2.0035  -22.8472  -43.5146 H         1 UNK         0.0600 
    148 H148        1.8719  -21.1402  -43.9178 H         1 UNK         0.0600 
    149 H149       -0.3665  -20.1729  -43.3363 H         1 UNK         0.3000 
    150 H150       -3.8030  -19.5897  -44.2599 H         1 UNK         0.0600 
    151 H151       -3.7378  -19.9172  -41.8051 H         1 UNK         0.0600 
    152 H152       -3.5746  -18.2100  -42.1923 H         1 UNK         0.0600 
    153 H153       -2.1614  -19.1462  -41.7106 H         1 UNK         0.0600 
    154 H154       -1.6992  -17.7512  -43.7964 H         1 UNK         0.3000 
    155 H155       -0.3821  -17.6347  -47.1255 H         1 UNK         0.0600 
    156 H156       -1.9811  -15.6533  -45.4156 H         1 UNK         0.0600 
    157 H157       -2.3427  -16.1117  -47.0723 H         1 UNK         0.0600 
    158 H158       -0.8665  -15.2346  -46.7160 H         1 UNK         0.0600 
    159 H159        0.2781  -16.3772  -44.6043 H         1 UNK         0.3000 
    160 H160        2.7380  -18.7662  -43.6356 H         1 UNK         0.0600 
    161 H161        3.0878  -15.9053  -44.6509 H         1 UNK         0.0600 
    162 H162        3.9075  -17.3103  -45.3180 H         1 UNK         0.0600 
    163 H163        4.2264  -16.8122  -43.6618 H         1 UNK         0.0600 
    164 H164        1.8491  -16.2259  -42.5868 H         1 UNK         0.3000 
    165 H165       -0.7615  -17.5412  -40.5502 H         1 UNK         0.0600 
    166 H166        0.5885  -16.6156  -38.6892 H         1 UNK         0.0600 
    167 H167        1.2799  -18.1363  -39.2304 H         1 UNK         0.0600 
    168 H168        2.0362  -16.6176  -39.6972 H         1 UNK         0.0600 
    169 H169        0.3951  -14.9713  -40.5891 H         1 UNK         0.3000 
    170 H170       -0.9574  -13.6101  -43.4886 H         1 UNK         0.0600 
    171 H171       -3.0821  -13.6199  -42.1807 H         1 UNK         0.0600 
    172 H172       -2.1987  -13.2151  -40.7135 H         1 UNK         0.0600 
    173 H173       -2.2689  -12.0688  -42.0533 H         1 UNK         0.0600 
    174 H174        0.1211  -12.4549  -41.0842 H         1 UNK         0.3000 
    175 H175        2.2629  -11.5387  -41.2313 H         1 UNK         0.0600 
    176 H176        3.4787  -14.3493  -40.8458 H         1 UNK         0.0600 
    177 H177        3.8723  -12.9298  -39.8801 H         1 UNK         0.0600 
    178 H178        2.2673  -13.6249  -39.7944 H         1 UNK         0.0600 
    179 H179        3.6197  -12.6796  -43.4459 H         1 UNK         0.3000 
    180 H180        6.5062  -10.5117  -43.1733 H         1 UNK         0.0600 
    181 H181        5.7966  -13.3221  -44.2091 H         1 UNK         0.0600 
    182 H182        6.9893  -12.9862  -42.9587 H         1 UNK         0.0600 
    183 H183        7.2489  -12.4036  -44.5940 H         1 UNK         0.0600 
    184 H184        4.0038  -10.8101  -44.5494 H         1 UNK         0.3000 
    185 H185        3.8677   -8.8848  -46.2660 H         1 UNK         0.0600 
    186 H186        5.7538   -8.1978  -47.7266 H         1 UNK         0.0600 
    187 H187        5.7465   -9.7708  -48.5167 H         1 UNK         0.0600 
    188 H188        4.3689   -8.6829  -48.6886 H         1 UNK         0.0600 
    189 H189        3.7832  -11.1522  -48.0631 H         1 UNK         0.3000 
    190 H190       -2.3949  -21.0821  -47.0274 H         1 UNK         0.3000 
    191 H191       -4.0737  -22.4707  -48.8349 H         1 UNK         0.0600 
    192 H192       -4.7416  -21.2167  -46.1196 H         1 UNK         0.0600 
    193 H193       -5.9115  -21.6585  -47.3584 H         1 UNK         0.0600 
    194 H194       -4.7441  -20.3822  -47.6713 H         1 UNK         0.0600 
    195 H195       -3.0764  -23.3145  -45.4998 H         1 UNK         0.3000 
    196 H196       -4.6508  -25.6723  -45.2571 H         1 UNK         0.0600 
    197 H197       -3.0943  -26.2050  -43.3858 H         1 UNK         0.0600 
    198 H198       -3.6196  -24.5295  -43.3148 H         1 UNK         0.0600 
    199 H199       -2.0063  -24.9236  -43.9026 H         1 UNK         0.0600 
    200 H200       -1.2892  -25.1803  -46.4452 H         1 UNK         0.3000 
    201 H201       -0.7154  -27.9108  -46.9935 H         1 UNK         0.0600 
    202 H202        1.0414  -26.1836  -46.7659 H         1 UNK         0.0600 
    203 H203        0.4590  -25.3530  -48.2064 H         1 UNK         0.0600 
    204 H204        1.1644  -26.9595  -48.3377 H         1 UNK         0.0600 
    205 H205       -2.1111  -25.3277  -49.0478 H         1 UNK         0.3000 
    206 H206       -2.3927  -26.9104  -51.4231 H         1 UNK         0.0600 
    207 H207       -2.3681  -24.4146  -51.4151 H         1 UNK         0.0600 
    208 H208       -3.8482  -25.0169  -52.1466 H         1 UNK         0.0600 
    209 H209       -3.8791  -24.3886  -50.5063 H         1 UNK         0.0600 
    210 H210       -4.2207  -26.7564  -48.4995 H         1 UNK         0.3000 
    211 H211       -6.0628  -27.6279  -47.6685 H         1 UNK         0.0600 
    212 H212       -6.1972  -29.5092  -50.0866 H         1 UNK         0.0600 
    213 H213       -7.0547  -29.6952  -48.5649 H         1 UNK         0.0600 
    214 H214       -5.3027  -29.8213  -48.5995 H         1 UNK         0.0600 
    215 H215       -6.2739  -25.2738  -48.6983 H         1 UNK         0.3000 
    216 H216       -7.5198  -23.6319  -49.4548 H         1 UNK         0.0600 
    217 H217       -9.9702  -23.7734  -49.5458 H         1 UNK         0.0600 
    218 H218       -9.4030  -24.6542  -48.1423 H         1 UNK         0.0600 
    219 H219       -9.9251  -25.5349  -49.5733 H         1 UNK         0.0600 
    220 H220       -9.8166  -24.3216  -51.5203 H         1 UNK         0.3000 
    221 H221      -10.1045  -24.1900  -53.7168 H         1 UNK         0.0600 
    222 H222       -7.8441  -26.2681  -53.8237 H         1 UNK         0.0600 
    223 H223       -9.5548  -26.5982  -53.5976 H         1 UNK         0.0600 
    224 H224       -8.9943  -25.9318  -55.1187 H         1 UNK         0.0600 
    225 H225       -7.0592  -24.7956  -55.0455 H         1 UNK         0.3000 
    226 H226       -6.6884  -22.0528  -55.9577 H         1 UNK         0.0600 
    227 H227       -6.3961  -23.9821  -57.4934 H         1 UNK         0.0600 
    228 H228       -4.9001  -23.0780  -57.3379 H         1 UNK         0.0600 
    229 H229       -5.0886  -24.6089  -56.4893 H         1 UNK         0.0600 
    230 H230       -6.5278  -21.8315  -53.3255 H         1 UNK         0.3000 
    231 H231       -3.7943  -21.9563  -52.2918 H         1 UNK         0.0600 
    232 H232       -4.8684  -20.7923  -50.3247 H         1 UNK         0.0600 
    233 H233       -5.6945  -22.2794  -50.7689 H         1 UNK         0.0600 
    234 H234       -6.3835  -20.7172  -51.2124 H         1 UNK         0.0600 
    235 H235       -5.6159  -19.7059  -54.1812 H         1 UNK         0.3000 
    236 H236       -4.3415  -17.2499  -53.4022 H         1 UNK         0.0600 
    237 H237       -6.5800  -17.3321  -54.4976 H         1 UNK         0.0600 
    238 H238       -5.4630  -16.3821  -55.4625 H         1 UNK         0.0600 
    239 H239       -5.8648  -18.0231  -55.9545 H         1 UNK         0.0600 
    240 H240       -2.7763  -16.0413  -54.5105 H         1 UNK         0.3000 
    241 H241       -0.6347  -17.5732  -55.6924 H         1 UNK         0.0600 
    242 H242       -2.5807  -16.0176  -58.8510 H         1 UNK         0.3800 
    243 H243       -3.3433  -16.1874  -57.2918 H         1 UNK         0.3800 
    244 H244        0.6332  -15.4280  -55.6253 H         1 UNK         0.0800 
    245 H245       -0.8176  -14.5686  -55.1856 H         1 UNK         0.0800 
    246 H246        2.3722  -15.7226  -53.7172 H         1 UNK         0.0800 
    247 H247        1.7565  -17.2948  -54.1766 H         1 UNK         0.0800 
@<TRIPOS>BOND
     1    1    2 1    
     2    1  127 1    
     3    1  128 1    
     4    1  129 1    
     5    2    3 2    
     6    2    4 am   BACKBONE|DICT|INTERRES
     7    4    5 1    
     8    4  130 1    
     9    5    6 1    
    10    5   65 1    
    11    5  131 1    
    12    6    7 1    
    13    6  132 1    
    14    6  133 1    
    15    7    8 1    
    16    8    9 1    
    17    8  134 1    
    18    8  135 1    
    19    9   10 ar   
    20    9   14 ar   
    21   10   11 ar   
    22   10  136 1    
    23   11   12 ar   
    24   11  126 1    
    25   12   13 ar   
    26   12  137 1    
    27   13   14 ar   
    28   13   15 1    
    29   14  138 1    
    30   15   16 1    
    31   15  139 1    
    32   15  140 1    
    33   16   17 1    
    34   17   18 1    
    35   17  141 1    
    36   17  142 1    
    37   18   19 1    
    38   18   67 1    
    39   18  143 1    
    40   19   20 am   BACKBONE|DICT|INTERRES
    41   19  144 1    
    42   20   21 2    
    43   20   22 1    
    44   22   23 1    
    45   22   24 1    
    46   22  145 1    
    47   23  146 1    
    48   23  147 1    
    49   23  148 1    
    50   24   25 am   BACKBONE|DICT|INTERRES
    51   24  149 1    
    52   25   26 2    
    53   25   27 1    
    54   27   28 1    
    55   27   29 1    
    56   27  150 1    
    57   28  151 1    
    58   28  152 1    
    59   28  153 1    
    60   29   30 am   BACKBONE|DICT|INTERRES
    61   29  154 1    
    62   30   31 2    
    63   30   32 1    
    64   32   33 1    
    65   32   34 1    
    66   32  155 1    
    67   33  156 1    
    68   33  157 1    
    69   33  158 1    
    70   34   35 am   BACKBONE|DICT|INTERRES
    71   34  159 1    
    72   35   36 2    
    73   35   37 1    
    74   37   38 1    
    75   37   39 1    
    76   37  160 1    
    77   38  161 1    
    78   38  162 1    
    79   38  163 1    
    80   39   40 am   BACKBONE|DICT|INTERRES
    81   39  164 1    
    82   40   41 2    
    83   40   42 1    
    84   42   43 1    
    85   42   44 1    
    86   42  165 1    
    87   43  166 1    
    88   43  167 1    
    89   43  168 1    
    90   44   45 am   BACKBONE|DICT|INTERRES
    91   44  169 1    
    92   45   46 2    
    93   45   47 1    
    94   47   48 1    
    95   47   49 1    
    96   47  170 1    
    97   48  171 1    
    98   48  172 1    
    99   48  173 1    
   100   49   50 am   BACKBONE|DICT|INTERRES
   101   49  174 1    
   102   50   51 2    
   103   50   52 1    
   104   52   53 1    
   105   52   54 1    
   106   52  175 1    
   107   53  176 1    
   108   53  177 1    
   109   53  178 1    
   110   54   55 am   BACKBONE|DICT|INTERRES
   111   54  179 1    
   112   55   56 2    
   113   55   57 1    
   114   57   58 1    
   115   57   59 1    
   116   57  180 1    
   117   58  181 1    
   118   58  182 1    
   119   58  183 1    
   120   59   60 am   BACKBONE|DICT|INTERRES
   121   59  184 1    
   122   60   61 2    
   123   60   62 1    
   124   62   63 1    
   125   62   64 1    
   126   62  185 1    
   127   63  186 1    
   128   63  187 1    
   129   63  188 1    
   130   64   65 am   BACKBONE|DICT|INTERRES
   131   64  189 1    
   132   65   66 2    
   133   67   68 2    
   134   67   69 am   BACKBONE|DICT|INTERRES
   135   69   70 1    
   136   69  190 1    
   137   70   71 1    
   138   70   72 1    
   139   70  191 1    
   140   71  192 1    
   141   71  193 1    
   142   71  194 1    
   143   72   73 2    
   144   72   74 am   BACKBONE|DICT|INTERRES
   145   74   75 1    
   146   74  195 1    
   147   75   76 1    
   148   75   77 1    
   149   75  196 1    
   150   76  197 1    
   151   76  198 1    
   152   76  199 1    
   153   77   78 2    
   154   77   79 am   BACKBONE|DICT|INTERRES
   155   79   80 1    
   156   79  200 1    
   157   80   81 1    
   158   80   82 1    
   159   80  201 1    
   160   81  202 1    
   161   81  203 1    
   162   81  204 1    
   163   82   83 2    
   164   82   84 am   BACKBONE|DICT|INTERRES
   165   84   85 1    
   166   84  205 1    
   167   85   86 1    
   168   85   87 1    
   169   85  206 1    
   170   86  207 1    
   171   86  208 1    
   172   86  209 1    
   173   87   88 2    
   174   87   89 am   BACKBONE|DICT|INTERRES
   175   89   90 1    
   176   89  210 1    
   177   90   91 1    
   178   90   92 1    
   179   90  211 1    
   180   91  212 1    
   181   91  213 1    
   182   91  214 1    
   183   92   93 2    
   184   92   94 am   BACKBONE|DICT|INTERRES
   185   94   95 1    
   186   94  215 1    
   187   95   96 1    
   188   95   97 1    
   189   95  216 1    
   190   96  217 1    
   191   96  218 1    
   192   96  219 1    
   193   97   98 2    
   194   97   99 am   BACKBONE|DICT|INTERRES
   195   99  100 1    
   196   99  220 1    
   197  100  101 1    
   198  100  102 1    
   199  100  221 1    
   200  101  222 1    
   201  101  223 1    
   202  101  224 1    
   203  102  103 2    
   204  102  104 am   BACKBONE|DICT|INTERRES
   205  104  105 1    
   206  104  225 1    
   207  105  106 1    
   208  105  107 1    
   209  105  226 1    
   210  106  227 1    
   211  106  228 1    
   212  106  229 1    
   213  107  108 2    
   214  107  109 am   BACKBONE|DICT|INTERRES
   215  109  110 1    
   216  109  230 1    
   217  110  111 1    
   218  110  112 1    
   219  110  231 1    
   220  111  232 1    
   221  111  233 1    
   222  111  234 1    
   223  112  113 2    
   224  112  114 am   BACKBONE|DICT|INTERRES
   225  114  115 1    
   226  114  235 1    
   227  115  116 1    
   228  115  117 1    
   229  115  236 1    
   230  116  237 1    
   231  116  238 1    
   232  116  239 1    
   233  117  118 2    
   234  117  119 am   BACKBONE|DICT|INTERRES
   235  119  120 1    
   236  119  240 1    
   237  120  121 1    
   238  120  124 1    
   239  120  241 1    
   240  121  122 am   BACKBONE|DICT|INTERRES
   241  121  123 2    
   242  122  242 1    
   243  122  243 1    
   244  124  125 1    
   245  124  244 1    
   246  124  245 1    
   247  125  126 1    
   248  126  246 1    
   249  126  247 1    
@<TRIPOS>SUBSTRUCTURE
     1 UNK         1 GROUP             0       ****    0 ROOT    
