@<TRIPOS>MOLECULE
3R540
247   249    1
SMALL
USER_CHARGES


@<TRIPOS>ATOM
      1 CA          1.3998  -14.0995  -50.0240 C.3       0 UNK        -0.1800 
      2 C           0.9657  -14.4072  -48.5987 C.2       0 UNK         0.5000 
      3 O           1.7692  -14.8919  -47.8025 O.2       0 UNK        -0.5000 
      4 N          -0.2971  -14.1143  -48.2645 N.am      1 UNK        -0.5000 
      5 CA         -0.9538  -14.4193  -46.9836 C.3       1 UNK         0.1400 
      6 C6         -2.4949  -14.5717  -47.1733 C.3       23 UNK        -0.0398 
      7 S7         -3.1298  -16.1403  -46.4881 S.3       23 UNK        -0.2404 
      8 C8         -3.5344  -17.0707  -48.0084 C.3       23 UNK        -0.0205 
      9 C9         -2.3452  -17.3102  -48.9349 C.ar      23 UNK        -0.0193 
     10 C10        -2.5142  -17.1663  -50.3151 C.ar      23 UNK        -0.1150 
     11 C11        -1.4446  -17.3708  -51.1900 C.ar      23 UNK        -0.0193 
     12 C12        -0.1931  -17.7178  -50.6765 C.ar      23 UNK        -0.1150 
     13 C13        -0.0052  -17.8600  -49.2994 C.ar      23 UNK        -0.0193 
     14 C14        -1.0891  -17.6746  -48.4351 C.ar      23 UNK        -0.1150 
     15 C15         1.3847  -18.1560  -48.7564 C.3       23 UNK        -0.0205 
     16 S16         1.6922  -19.9385  -48.5792 S.3       23 UNK        -0.2404 
     17 C17         1.0742  -20.2223  -46.8899 C.3       23 UNK        -0.0398 
     18 CA          0.3921  -21.5955  -46.7128 C.3       11 UNK         0.1400 
     19 N           0.3551  -21.9783  -45.3023 N.am      11 UNK        -0.5000 
     20 C          -0.0232  -23.1729  -44.8315 C.2       10 UNK         0.5000 
     21 O          -0.3398  -24.1240  -45.5446 O.2       10 UNK        -0.5000 
     22 CA         -0.1095  -23.3015  -43.3020 C.3       10 UNK         0.1400 
     23 CB          1.2697  -23.6049  -42.6977 C.3       10 UNK        -0.1800 
     24 N          -0.6591  -22.0885  -42.6944 N.am      10 UNK        -0.5000 
     25 C          -1.9423  -21.7146  -42.7958 C.2       9 UNK         0.5000 
     26 O          -2.8043  -22.3839  -43.3667 O.2       9 UNK        -0.5000 
     27 CA         -2.3130  -20.3469  -42.1909 C.3       9 UNK         0.1400 
     28 CB         -2.5401  -20.4664  -40.6766 C.3       9 UNK        -0.1800 
     29 N          -1.3063  -19.3144  -42.4520 N.am      9 UNK        -0.5000 
     30 C          -1.0283  -18.8267  -43.6690 C.2       8 UNK         0.5000 
     31 O          -1.5918  -19.1946  -44.6952 O.2       8 UNK        -0.5000 
     32 CA          0.1013  -17.7900  -43.7776 C.3       8 UNK         0.1400 
     33 CB         -0.4392  -16.3760  -43.5383 C.3       8 UNK        -0.1800 
     34 N           1.2344  -18.0309  -42.8844 N.am      8 UNK        -0.5000 
     35 C           1.9661  -19.1498  -42.8209 C.2       7 UNK         0.5000 
     36 O           1.7101  -20.1699  -43.4636 O.2       7 UNK        -0.5000 
     37 CA          3.2113  -19.0860  -41.9128 C.3       7 UNK         0.1400 
     38 CB          3.8625  -20.4660  -41.7114 C.3       7 UNK        -0.1800 
     39 N           4.2102  -18.1647  -42.4593 N.am      7 UNK        -0.5000 
     40 C           4.1337  -16.8279  -42.4298 C.2       6 UNK         0.5000 
     41 O           3.2245  -16.2105  -41.8697 O.2       6 UNK        -0.5000 
     42 CA          5.2288  -16.0732  -43.1954 C.3       6 UNK         0.1400 
     43 CB          4.9867  -16.1692  -44.7123 C.3       6 UNK        -0.1800 
     44 N           5.2316  -14.6629  -42.8190 N.am      6 UNK        -0.5000 
     45 C           6.3195  -13.9383  -42.5375 C.2       5 UNK         0.5000 
     46 O           7.4597  -14.4038  -42.5051 O.2       5 UNK        -0.5000 
     47 CA          6.1183  -12.4392  -42.2621 C.3       5 UNK         0.1400 
     48 CB          6.1502  -11.6539  -43.5834 C.3       5 UNK        -0.1800 
     49 N           4.8549  -12.1544  -41.5787 N.am      5 UNK        -0.5000 
     50 C           4.7547  -11.6728  -40.3313 C.2       4 UNK         0.5000 
     51 O           5.7221  -11.4965  -39.5890 O.2       4 UNK        -0.5000 
     52 CA          3.3506  -11.2852  -39.8218 C.3       4 UNK         0.1400 
     53 CB          3.1655   -9.7607  -39.8819 C.3       4 UNK        -0.1800 
     54 N           2.2672  -11.9146  -40.5750 N.am      4 UNK        -0.5000 
     55 C           1.8613  -13.1794  -40.4087 C.2       3 UNK         0.5000 
     56 O           2.3031  -13.9246  -39.5337 O.2       3 UNK        -0.5000 
     57 CA          0.7825  -13.7024  -41.3807 C.3       3 UNK         0.1400 
     58 CB         -0.5975  -13.6866  -40.7054 C.3       3 UNK        -0.1800 
     59 N           0.6879  -12.9849  -42.6600 N.am      3 UNK        -0.5000 
     60 C           1.6737  -12.8435  -43.5552 C.2       2 UNK         0.5000 
     61 O           2.8182  -13.2634  -43.3799 O.2       2 UNK        -0.5000 
     62 CA          1.3155  -12.1123  -44.8598 C.3       2 UNK         0.1400 
     63 CB          2.5459  -11.4545  -45.5090 C.3       2 UNK        -0.1800 
     64 N           0.7243  -13.0397  -45.8186 N.am      2 UNK        -0.5000 
     65 C          -0.5524  -13.4397  -45.8471 C.2       1 UNK         0.5000 
     66 O          -1.3869  -13.0521  -45.0275 O.2       1 UNK        -0.5000 
     67 C          -1.0102  -21.6498  -47.3584 C.2       11 UNK         0.5000 
     68 O          -1.1574  -22.2328  -48.4313 O.2       11 UNK        -0.5000 
     69 N          -2.0242  -21.1125  -46.6631 N.am      12 UNK        -0.5000 
     70 CA         -3.4345  -21.1682  -47.0495 C.3       12 UNK         0.1400 
     71 CB         -4.2857  -20.3788  -46.0420 C.3       12 UNK        -0.1800 
     72 C          -3.9620  -22.6072  -47.1604 C.2       12 UNK         0.5000 
     73 O          -4.6753  -22.9136  -48.1149 O.2       12 UNK        -0.5000 
     74 N          -3.5838  -23.4658  -46.2025 N.am      13 UNK        -0.5000 
     75 CA         -3.9138  -24.8902  -46.1972 C.3       13 UNK         0.1400 
     76 CB         -3.5425  -25.5066  -44.8401 C.3       13 UNK        -0.1800 
     77 C          -3.2458  -25.6500  -47.3576 C.2       13 UNK         0.5000 
     78 O          -3.9184  -26.4273  -48.0348 O.2       13 UNK        -0.5000 
     79 N          -1.9548  -25.3792  -47.5986 N.am      14 UNK        -0.5000 
     80 CA         -1.1721  -25.9435  -48.7019 C.3       14 UNK         0.1400 
     81 CB          0.3056  -25.5596  -48.5314 C.3       14 UNK        -0.1800 
     82 C          -1.6910  -25.5187  -50.0893 C.2       14 UNK         0.5000 
     83 O          -1.7337  -26.3437  -51.0023 O.2       14 UNK        -0.5000 
     84 N          -2.1129  -24.2532  -50.2100 N.am      15 UNK        -0.5000 
     85 CA         -2.7401  -23.6817  -51.4033 C.3       15 UNK         0.1400 
     86 CB         -2.5781  -22.1528  -51.3604 C.3       15 UNK        -0.1800 
     87 C          -4.2274  -24.0642  -51.5624 C.2       15 UNK         0.5000 
     88 O          -4.8361  -23.6834  -52.5639 O.2       15 UNK        -0.5000 
     89 N          -4.7939  -24.7683  -50.5698 N.am      16 UNK        -0.5000 
     90 CA         -6.1860  -25.2147  -50.4626 C.3       16 UNK         0.1400 
     91 CB         -6.4640  -26.3477  -51.4702 C.3       16 UNK        -0.1800 
     92 C          -7.1916  -24.0478  -50.5510 C.2       16 UNK         0.5000 
     93 O          -8.1661  -24.1204  -51.2998 O.2       16 UNK        -0.5000 
     94 N          -6.9050  -22.9800  -49.7922 N.am      17 UNK        -0.5000 
     95 CA         -7.6073  -21.6932  -49.7621 C.3       17 UNK         0.1400 
     96 CB         -9.0549  -21.8545  -49.2520 C.3       17 UNK        -0.1800 
     97 C          -7.5062  -20.9380  -51.1047 C.2       17 UNK         0.5000 
     98 O          -8.4843  -20.3400  -51.5565 O.2       17 UNK        -0.5000 
     99 N          -6.3057  -20.9811  -51.7032 N.am      18 UNK        -0.5000 
    100 CA        -5.9186  -20.3645  -52.9766 C.3       18 UNK         0.1400 
    101 CB        -5.9792  -18.8248  -52.8854 C.3       18 UNK        -0.1800 
    102 C         -6.6971  -20.9359  -54.1794 C.2       18 UNK         0.5000 
    103 O         -7.1326  -20.1854  -55.0557 O.2       18 UNK        -0.5000 
    104 N         -6.8469  -22.2665  -54.2138 N.am      19 UNK        -0.5000 
    105 CA        -7.5218  -23.0088  -55.2787 C.3       19 UNK         0.1400 
    106 CB        -8.0175  -24.3527  -54.7214 C.3       19 UNK        -0.1800 
    107 C         -6.5873  -23.1847  -56.4896 C.2       19 UNK         0.5000 
    108 O         -6.0584  -24.2740  -56.7139 O.2       19 UNK        -0.5000 
    109 N         -6.3490  -22.0790  -57.2076 N.am      20 UNK        -0.5000 
    110 CA        -5.4955  -21.9103  -58.3946 C.3       20 UNK         0.1400 
    111 CB        -5.9426  -22.8344  -59.5441 C.3       20 UNK        -0.1800 
    112 C         -3.9780  -22.0327  -58.1369 C.2       20 UNK         0.5000 
    113 O         -3.1946  -21.5518  -58.9568 O.2       20 UNK        -0.5000 
    114 N         -3.5792  -22.6172  -56.9988 N.am      21 UNK        -0.5000 
    115 CA        -2.1953  -22.8078  -56.5509 C.3       21 UNK         0.1400 
    116 CB        -2.2172  -23.5656  -55.2153 C.3       21 UNK        -0.1800 
    117 C         -1.3910  -21.4996  -56.4082 C.2       21 UNK         0.5000 
    118 O         -0.1711  -21.5126  -56.5764 O.2       21 UNK        -0.5000 
    119 N         -2.0957  -20.3983  -56.1259 N.am      22 UNK        -0.5000 
    120 CA        -1.5604  -19.0295  -56.0930 C.3       22 UNK         0.1400 
    121 C         -1.3363  -18.3943  -57.4993 C.2       22 UNK         0.5000 
    122 N         -1.7305  -19.0224  -58.6015 N.am      22 UNK        -0.7600 
    123 O         -0.7790  -17.3042  -57.5947 O.2       22 UNK        -0.5000 
    124 C124       -2.4349  -18.1136  -55.2000 C.3       23 UNK        -0.0398 
    125 S125       -2.4131  -18.6366  -53.4508 S.3       23 UNK        -0.2404 
    126 C126       -1.6345  -17.1830  -52.6855 C.3       23 UNK        -0.0205 
    127 H127        2.2319  -13.3956  -50.0202 H         1 UNK         0.0600 
    128 H128        0.5887  -13.6677  -50.6107 H         1 UNK         0.0600 
    129 H129        1.7261  -15.0143  -50.5189 H         1 UNK         0.0600 
    130 H130       -0.8872  -13.6737  -48.9555 H         1 UNK         0.3000 
    131 H131       -0.5556  -15.3841  -46.6630 H         1 UNK         0.0600 
    132 H132       -2.7601  -14.5388  -48.2309 H         1 UNK         0.0800 
    133 H133       -3.0599  -13.7487  -46.7334 H         1 UNK         0.0800 
    134 H134       -3.9595  -18.0356  -47.7397 H         1 UNK         0.0800 
    135 H135       -4.3236  -16.5312  -48.5345 H         1 UNK         0.0800 
    136 H136       -3.4804  -16.8921  -50.7151 H         1 UNK         0.1150 
    137 H137        0.6413  -17.8615  -51.3485 H         1 UNK         0.1150 
    138 H138       -0.9522  -17.7829  -47.3694 H         1 UNK         0.1150 
    139 H139        2.1357  -17.7400  -49.4296 H         1 UNK         0.0800 
    140 H140        1.5354  -17.6509  -47.8009 H         1 UNK         0.0800 
    141 H141        0.4034  -19.4207  -46.5856 H         1 UNK         0.0800 
    142 H142        1.9401  -20.1495  -46.2301 H         1 UNK         0.0800 
    143 H143        1.0084  -22.3443  -47.2151 H         1 UNK         0.0600 
    144 H144        0.6475  -21.2727  -44.6322 H         1 UNK         0.3000 
    145 H145       -0.7741  -24.1368  -43.0708 H         1 UNK         0.0600 
    146 H146        1.2090  -23.7250  -41.6160 H         1 UNK         0.0600 
    147 H147        1.6763  -24.5312  -43.1055 H         1 UNK         0.0600 
    148 H148        1.9886  -22.8127  -42.9079 H         1 UNK         0.0600 
    149 H149        0.0007  -21.4552  -42.2665 H         1 UNK         0.3000 
    150 H150       -3.2506  -20.0268  -42.6507 H         1 UNK         0.0600 
    151 H151       -3.2986  -21.2183  -40.4543 H         1 UNK         0.0600 
    152 H152       -2.8864  -19.5228  -40.2545 H         1 UNK         0.0600 
    153 H153       -1.6282  -20.7547  -40.1523 H         1 UNK         0.0600 
    154 H154       -0.7876  -18.9643  -41.6601 H         1 UNK         0.3000 
    155 H155        0.4834  -17.8317  -44.7989 H         1 UNK         0.0600 
    156 H156       -0.7557  -16.2382  -42.5045 H         1 UNK         0.0600 
    157 H157        0.3184  -15.6279  -43.7681 H         1 UNK         0.0600 
    158 H158       -1.3007  -16.1685  -44.1725 H         1 UNK         0.0600 
    159 H159        1.5828  -17.2305  -42.3663 H         1 UNK         0.3000 
    160 H160        2.8901  -18.7221  -40.9345 H         1 UNK         0.0600 
    161 H161        4.2165  -20.8885  -42.6527 H         1 UNK         0.0600 
    162 H162        3.1527  -21.1729  -41.2800 H         1 UNK         0.0600 
    163 H163        4.7119  -20.4053  -41.0308 H         1 UNK         0.0600 
    164 H164        4.9707  -18.5936  -42.9668 H         1 UNK         0.3000 
    165 H165        6.1858  -16.5389  -42.9516 H         1 UNK         0.0600 
    166 H166        5.7662  -15.6479  -45.2682 H         1 UNK         0.0600 
    167 H167        4.9858  -17.2056  -45.0515 H         1 UNK         0.0600 
    168 H168        4.0278  -15.7300  -44.9929 H         1 UNK         0.0600 
    169 H169        4.3158  -14.2196  -42.8205 H         1 UNK         0.3000 
    170 H170        6.9651  -12.1059  -41.6586 H         1 UNK         0.0600 
    171 H171        5.3384  -11.9520  -44.2478 H         1 UNK         0.0600 
    172 H172        6.0624  -10.5818  -43.4069 H         1 UNK         0.0600 
    173 H173        7.0878  -11.8205  -44.1152 H         1 UNK         0.0600 
    174 H174        4.0092  -12.3343  -42.1088 H         1 UNK         0.3000 
    175 H175        3.2818  -11.5942  -38.7765 H         1 UNK         0.0600 
    176 H176        2.2012   -9.4635  -39.4689 H         1 UNK         0.0600 
    177 H177        3.2229   -9.3879  -40.9054 H         1 UNK         0.0600 
    178 H178        3.9361   -9.2497  -39.3030 H         1 UNK         0.0600 
    179 H179        1.8371  -11.3648  -41.3037 H         1 UNK         0.3000 
    180 H180        1.0396  -14.7378  -41.6051 H         1 UNK         0.0600 
    181 H181       -0.9115  -12.6713  -40.4601 H         1 UNK         0.0600 
    182 H182       -0.5861  -14.2605  -39.7777 H         1 UNK         0.0600 
    183 H183       -1.3599  -14.1264  -41.3485 H         1 UNK         0.0600 
    184 H184       -0.2301  -12.6429  -42.9119 H         1 UNK         0.3000 
    185 H185        0.5980  -11.3226  -44.6268 H         1 UNK         0.0600 
    186 H186        2.2640  -10.8796  -46.3913 H         1 UNK         0.0600 
    187 H187        3.0341  -10.7679  -44.8161 H         1 UNK         0.0600 
    188 H188        3.2862  -12.1946  -45.8167 H         1 UNK         0.0600 
    189 H189        1.3578  -13.4723  -46.4831 H         1 UNK         0.3000 
    190 H190       -1.8178  -20.5901  -45.8140 H         1 UNK         0.3000 
    191 H191       -3.5265  -20.6949  -48.0291 H         1 UNK         0.0600 
    192 H192       -3.9272  -19.3580  -45.9221 H         1 UNK         0.0600 
    193 H193       -5.3246  -20.3240  -46.3690 H         1 UNK         0.0600 
    194 H194       -4.2769  -20.8425  -45.0555 H         1 UNK         0.0600 
    195 H195       -3.0274  -23.1209  -45.4294 H         1 UNK         0.3000 
    196 H196       -4.9951  -24.9808  -46.3215 H         1 UNK         0.0600 
    197 H197       -3.8207  -26.5605  -44.8022 H         1 UNK         0.0600 
    198 H198       -4.0616  -25.0031  -44.0243 H         1 UNK         0.0600 
    199 H199       -2.4727  -25.4431  -44.6432 H         1 UNK         0.0600 
    200 H200       -1.4609  -24.7547  -46.9661 H         1 UNK         0.3000 
    201 H201       -1.2487  -27.0309  -48.6394 H         1 UNK         0.0600 
    202 H202        0.7000  -25.9229  -47.5822 H         1 UNK         0.0600 
    203 H203        0.4468  -24.4789  -48.5595 H         1 UNK         0.0600 
    204 H204        0.9160  -25.9919  -49.3251 H         1 UNK         0.0600 
    205 H205       -1.9674  -23.6155  -49.4303 H         1 UNK         0.3000 
    206 H206       -2.2123  -24.0560  -52.2819 H         1 UNK         0.0600 
    207 H207       -3.1205  -21.7136  -50.5221 H         1 UNK         0.0600 
    208 H208       -1.5299  -21.8692  -51.2623 H         1 UNK         0.0600 
    209 H209       -2.9478  -21.6901  -52.2751 H         1 UNK         0.0600 
    210 H210       -4.2108  -25.0031  -49.7770 H         1 UNK         0.3000 
    211 H211       -6.2984  -25.6323  -49.4612 H         1 UNK         0.0600 
    212 H212       -6.3307  -26.0162  -52.4988 H         1 UNK         0.0600 
    213 H213       -7.4836  -26.7220  -51.3725 H         1 UNK         0.0600 
    214 H214       -5.7925  -27.1901  -51.3039 H         1 UNK         0.0600 
    215 H215       -6.0698  -23.0281  -49.2075 H         1 UNK         0.3000 
    216 H216       -7.0747  -21.0804  -49.0333 H         1 UNK         0.0600 
    217 H217       -9.5202  -20.8817  -49.0890 H         1 UNK         0.0600 
    218 H218       -9.0808  -22.3888  -48.3023 H         1 UNK         0.0600 
    219 H219       -9.6796  -22.3982  -49.9609 H         1 UNK         0.0600 
    220 H220       -5.5956  -21.5506  -51.2670 H         1 UNK         0.3000 
    221 H221       -4.8765  -20.6370  -53.1438 H         1 UNK         0.0600 
    222 H222       -7.0000  -18.4619  -52.7649 H         1 UNK         0.0600 
    223 H223       -5.5756  -18.3647  -53.7880 H         1 UNK         0.0600 
    224 H224       -5.3893  -18.4572  -52.0457 H         1 UNK         0.0600 
    225 H225       -6.3896  -22.8228  -53.4970 H         1 UNK         0.3000 
    226 H226       -8.3978  -22.4475  -55.6108 H         1 UNK         0.0600 
    227 H227       -8.7360  -24.2032  -53.9159 H         1 UNK         0.0600 
    228 H228       -8.5159  -24.9379  -55.4950 H         1 UNK         0.0600 
    229 H229       -7.1951  -24.9526  -54.3331 H         1 UNK         0.0600 
    230 H230       -6.7718  -21.2238  -56.8611 H         1 UNK         0.3000 
    231 H231       -5.6590  -20.8828  -58.7232 H         1 UNK         0.0600 
    232 H232       -5.7638  -23.8856  -59.3173 H         1 UNK         0.0600 
    233 H233       -5.3976  -22.6051  -60.4606 H         1 UNK         0.0600 
    234 H234       -7.0040  -22.7119  -59.7594 H         1 UNK         0.0600 
    235 H235       -4.2981  -23.0424  -56.4283 H         1 UNK         0.3000 
    236 H236       -1.6885  -23.4262  -57.2941 H         1 UNK         0.0600 
    237 H237       -2.7003  -24.5376  -55.3183 H         1 UNK         0.0600 
    238 H238       -1.2065  -23.7417  -54.8446 H         1 UNK         0.0600 
    239 H239       -2.7563  -23.0040  -54.4520 H         1 UNK         0.0600 
    240 H240       -3.0922  -20.4900  -56.0048 H         1 UNK         0.3000 
    241 H241       -0.5683  -19.0737  -55.6392 H         1 UNK         0.0600 
    242 H242       -2.1824  -19.9307  -58.5685 H         1 UNK         0.3800 
    243 H243       -1.5659  -18.5889  -59.4961 H         1 UNK         0.3800 
    244 H244       -2.0991  -17.0770  -55.2628 H         1 UNK         0.0800 
    245 H245       -3.4684  -18.1129  -55.5500 H         1 UNK         0.0800 
    246 H246       -0.6744  -16.9913  -53.1675 H         1 UNK         0.0800 
    247 H247       -2.2533  -16.3027  -52.8663 H         1 UNK         0.0800 
@<TRIPOS>BOND
     1    1    2 1    
     2    1  127 1    
     3    1  128 1    
     4    1  129 1    
     5    2    3 2    
     6    2    4 am   BACKBONE|DICT|INTERRES
     7    4    5 1    
     8    4  130 1    
     9    5    6 1    
    10    5   65 1    
    11    5  131 1    
    12    6    7 1    
    13    6  132 1    
    14    6  133 1    
    15    7    8 1    
    16    8    9 1    
    17    8  134 1    
    18    8  135 1    
    19    9   10 ar   
    20    9   14 ar   
    21   10   11 ar   
    22   10  136 1    
    23   11   12 ar   
    24   11  126 1    
    25   12   13 ar   
    26   12  137 1    
    27   13   14 ar   
    28   13   15 1    
    29   14  138 1    
    30   15   16 1    
    31   15  139 1    
    32   15  140 1    
    33   16   17 1    
    34   17   18 1    
    35   17  141 1    
    36   17  142 1    
    37   18   19 1    
    38   18   67 1    
    39   18  143 1    
    40   19   20 am   BACKBONE|DICT|INTERRES
    41   19  144 1    
    42   20   21 2    
    43   20   22 1    
    44   22   23 1    
    45   22   24 1    
    46   22  145 1    
    47   23  146 1    
    48   23  147 1    
    49   23  148 1    
    50   24   25 am   BACKBONE|DICT|INTERRES
    51   24  149 1    
    52   25   26 2    
    53   25   27 1    
    54   27   28 1    
    55   27   29 1    
    56   27  150 1    
    57   28  151 1    
    58   28  152 1    
    59   28  153 1    
    60   29   30 am   BACKBONE|DICT|INTERRES
    61   29  154 1    
    62   30   31 2    
    63   30   32 1    
    64   32   33 1    
    65   32   34 1    
    66   32  155 1    
    67   33  156 1    
    68   33  157 1    
    69   33  158 1    
    70   34   35 am   BACKBONE|DICT|INTERRES
    71   34  159 1    
    72   35   36 2    
    73   35   37 1    
    74   37   38 1    
    75   37   39 1    
    76   37  160 1    
    77   38  161 1    
    78   38  162 1    
    79   38  163 1    
    80   39   40 am   BACKBONE|DICT|INTERRES
    81   39  164 1    
    82   40   41 2    
    83   40   42 1    
    84   42   43 1    
    85   42   44 1    
    86   42  165 1    
    87   43  166 1    
    88   43  167 1    
    89   43  168 1    
    90   44   45 am   BACKBONE|DICT|INTERRES
    91   44  169 1    
    92   45   46 2    
    93   45   47 1    
    94   47   48 1    
    95   47   49 1    
    96   47  170 1    
    97   48  171 1    
    98   48  172 1    
    99   48  173 1    
   100   49   50 am   BACKBONE|DICT|INTERRES
   101   49  174 1    
   102   50   51 2    
   103   50   52 1    
   104   52   53 1    
   105   52   54 1    
   106   52  175 1    
   107   53  176 1    
   108   53  177 1    
   109   53  178 1    
   110   54   55 am   BACKBONE|DICT|INTERRES
   111   54  179 1    
   112   55   56 2    
   113   55   57 1    
   114   57   58 1    
   115   57   59 1    
   116   57  180 1    
   117   58  181 1    
   118   58  182 1    
   119   58  183 1    
   120   59   60 am   BACKBONE|DICT|INTERRES
   121   59  184 1    
   122   60   61 2    
   123   60   62 1    
   124   62   63 1    
   125   62   64 1    
   126   62  185 1    
   127   63  186 1    
   128   63  187 1    
   129   63  188 1    
   130   64   65 am   BACKBONE|DICT|INTERRES
   131   64  189 1    
   132   65   66 2    
   133   67   68 2    
   134   67   69 am   BACKBONE|DICT|INTERRES
   135   69   70 1    
   136   69  190 1    
   137   70   71 1    
   138   70   72 1    
   139   70  191 1    
   140   71  192 1    
   141   71  193 1    
   142   71  194 1    
   143   72   73 2    
   144   72   74 am   BACKBONE|DICT|INTERRES
   145   74   75 1    
   146   74  195 1    
   147   75   76 1    
   148   75   77 1    
   149   75  196 1    
   150   76  197 1    
   151   76  198 1    
   152   76  199 1    
   153   77   78 2    
   154   77   79 am   BACKBONE|DICT|INTERRES
   155   79   80 1    
   156   79  200 1    
   157   80   81 1    
   158   80   82 1    
   159   80  201 1    
   160   81  202 1    
   161   81  203 1    
   162   81  204 1    
   163   82   83 2    
   164   82   84 am   BACKBONE|DICT|INTERRES
   165   84   85 1    
   166   84  205 1    
   167   85   86 1    
   168   85   87 1    
   169   85  206 1    
   170   86  207 1    
   171   86  208 1    
   172   86  209 1    
   173   87   88 2    
   174   87   89 am   BACKBONE|DICT|INTERRES
   175   89   90 1    
   176   89  210 1    
   177   90   91 1    
   178   90   92 1    
   179   90  211 1    
   180   91  212 1    
   181   91  213 1    
   182   91  214 1    
   183   92   93 2    
   184   92   94 am   BACKBONE|DICT|INTERRES
   185   94   95 1    
   186   94  215 1    
   187   95   96 1    
   188   95   97 1    
   189   95  216 1    
   190   96  217 1    
   191   96  218 1    
   192   96  219 1    
   193   97   98 2    
   194   97   99 am   BACKBONE|DICT|INTERRES
   195   99  100 1    
   196   99  220 1    
   197  100  101 1    
   198  100  102 1    
   199  100  221 1    
   200  101  222 1    
   201  101  223 1    
   202  101  224 1    
   203  102  103 2    
   204  102  104 am   BACKBONE|DICT|INTERRES
   205  104  105 1    
   206  104  225 1    
   207  105  106 1    
   208  105  107 1    
   209  105  226 1    
   210  106  227 1    
   211  106  228 1    
   212  106  229 1    
   213  107  108 2    
   214  107  109 am   BACKBONE|DICT|INTERRES
   215  109  110 1    
   216  109  230 1    
   217  110  111 1    
   218  110  112 1    
   219  110  231 1    
   220  111  232 1    
   221  111  233 1    
   222  111  234 1    
   223  112  113 2    
   224  112  114 am   BACKBONE|DICT|INTERRES
   225  114  115 1    
   226  114  235 1    
   227  115  116 1    
   228  115  117 1    
   229  115  236 1    
   230  116  237 1    
   231  116  238 1    
   232  116  239 1    
   233  117  118 2    
   234  117  119 am   BACKBONE|DICT|INTERRES
   235  119  120 1    
   236  119  240 1    
   237  120  121 1    
   238  120  124 1    
   239  120  241 1    
   240  121  122 am   BACKBONE|DICT|INTERRES
   241  121  123 2    
   242  122  242 1    
   243  122  243 1    
   244  124  125 1    
   245  124  244 1    
   246  124  245 1    
   247  125  126 1    
   248  126  246 1    
   249  126  247 1    
@<TRIPOS>SUBSTRUCTURE
     1 UNK         1 GROUP             0       ****    0 ROOT    
