@<TRIPOS>MOLECULE
3R540
247   249    1
SMALL
USER_CHARGES


@<TRIPOS>ATOM
      1 CA         -1.6002  -17.0789  -49.8732 C.3       0 UNK        -0.1800 
      2 C          -0.5108  -16.4368  -49.0295 C.2       0 UNK         0.5000 
      3 O           0.1384  -17.1224  -48.2438 O.2       0 UNK        -0.5000 
      4 N          -0.3275  -15.1158  -49.1724 N.am      1 UNK        -0.5000 
      5 CA          0.7206  -14.3076  -48.5226 C.3       1 UNK         0.1400 
      6 C6          2.1526  -14.6585  -49.0211 C.3       23 UNK        -0.0398 
      7 S7          2.3167  -14.5856  -50.8447 S.3       23 UNK        -0.2404 
      8 C8          3.3844  -16.0171  -51.2243 C.3       23 UNK        -0.0205 
      9 C9          2.6350  -17.3430  -51.1806 C.ar      23 UNK        -0.0193 
     10 C10         1.9562  -17.8188  -52.3078 C.ar      23 UNK        -0.1150 
     11 C11         1.2669  -19.0370  -52.2632 C.ar      23 UNK        -0.0193 
     12 C12         1.2427  -19.7693  -51.0715 C.ar      23 UNK        -0.1150 
     13 C13         1.9171  -19.3024  -49.9396 C.ar      23 UNK        -0.0193 
     14 C14         2.6315  -18.1043  -50.0107 C.ar      23 UNK        -0.1150 
     15 C15         1.7988  -20.0215  -48.6062 C.3       23 UNK        -0.0205 
     16 S16         2.4200  -21.7351  -48.6232 S.3       23 UNK        -0.2404 
     17 C17         2.3115  -22.1329  -46.8335 C.3       23 UNK        -0.0398 
     18 CA          1.0397  -22.8572  -46.2923 C.3       11 UNK         0.1400 
     19 N           0.8110  -22.5478  -44.8752 N.am      11 UNK        -0.5000 
     20 C          -0.1009  -23.1363  -44.0865 C.2       10 UNK         0.5000 
     21 O          -0.8124  -24.0758  -44.4435 O.2       10 UNK        -0.5000 
     22 CA         -0.2891  -22.5337  -42.6809 C.3       10 UNK         0.1400 
     23 CB          0.8115  -23.0121  -41.7226 C.3       10 UNK        -0.1800 
     24 N          -0.3243  -21.0697  -42.7009 N.am      10 UNK        -0.5000 
     25 C          -1.2745  -20.3438  -43.3079 C.2       9 UNK         0.5000 
     26 O          -2.2626  -20.8369  -43.8529 O.2       9 UNK        -0.5000 
     27 CA         -1.0590  -18.8175  -43.3660 C.3       9 UNK         0.1400 
     28 CB         -1.5241  -18.1405  -42.0686 C.3       9 UNK        -0.1800 
     29 N           0.3291  -18.4434  -43.6503 N.am      9 UNK        -0.5000 
     30 C           0.9835  -18.7778  -44.7722 C.2       8 UNK         0.5000 
     31 O           0.4700  -19.4024  -45.6947 O.2       8 UNK        -0.5000 
     32 CA          2.4797  -18.4356  -44.8471 C.3       8 UNK         0.1400 
     33 CB          2.7018  -16.9928  -45.3106 C.3       8 UNK        -0.1800 
     34 N           3.1479  -18.6746  -43.5704 N.am      8 UNK        -0.5000 
     35 C           3.3783  -19.8974  -43.0699 C.2       7 UNK         0.5000 
     36 O           3.1028  -20.9411  -43.6631 O.2       7 UNK        -0.5000 
     37 CA          3.9699  -19.9607  -41.6499 C.3       7 UNK         0.1400 
     38 CB          5.4994  -19.8295  -41.6932 C.3       7 UNK        -0.1800 
     39 N           3.4174  -18.9283  -40.7709 N.am      7 UNK        -0.5000 
     40 C           2.1384  -18.8826  -40.3710 C.2       6 UNK         0.5000 
     41 O           1.3068  -19.7445  -40.6540 O.2       6 UNK        -0.5000 
     42 CA          1.7065  -17.6447  -39.5614 C.3       6 UNK         0.1400 
     43 CB          1.9048  -17.8879  -38.0582 C.3       6 UNK        -0.1800 
     44 N           2.4105  -16.4193  -39.9516 N.am      6 UNK        -0.5000 
     45 C           2.3312  -15.8429  -41.1580 C.2       5 UNK         0.5000 
     46 O           1.6451  -16.2873  -42.0807 O.2       5 UNK        -0.5000 
     47 CA          3.1791  -14.5749  -41.3691 C.3       5 UNK         0.1400 
     48 CB          3.8776  -14.5792  -42.7385 C.3       5 UNK        -0.1800 
     49 N           2.3725  -13.3645  -41.2607 N.am      5 UNK        -0.5000 
     50 C           1.8422  -12.8686  -40.1382 C.2       4 UNK         0.5000 
     51 O           2.0026  -13.3828  -39.0304 O.2       4 UNK        -0.5000 
     52 CA          0.9962  -11.5818  -40.2530 C.3       4 UNK         0.1400 
     53 CB          1.8720  -10.3282  -40.0652 C.3       4 UNK        -0.1800 
     54 N           0.1659  -11.4766  -41.4634 N.am      4 UNK        -0.5000 
     55 C           0.5404  -11.3459  -42.7437 C.2       3 UNK         0.5000 
     56 O           1.7124  -11.3073  -43.1229 O.2       3 UNK        -0.5000 
     57 CA         -0.5958  -11.3003  -43.7832 C.3       3 UNK         0.1400 
     58 CB         -0.4342  -10.1061  -44.7376 C.3       3 UNK        -0.1800 
     59 N          -0.6496  -12.5331  -44.5676 N.am      3 UNK        -0.5000 
     60 C          -0.9060  -13.7539  -44.0791 C.2       2 UNK         0.5000 
     61 O          -1.1902  -13.9619  -42.8989 O.2       2 UNK        -0.5000 
     62 CA         -0.8802  -14.9416  -45.0624 C.3       2 UNK         0.1400 
     63 CB         -2.2210  -15.6952  -45.0443 C.3       2 UNK        -0.1800 
     64 N          -0.5866  -14.5968  -46.4557 N.am      2 UNK        -0.5000 
     65 C           0.6170  -14.3122  -46.9729 C.2       1 UNK         0.5000 
     66 O           1.6072  -14.0692  -46.2838 O.2       1 UNK        -0.5000 
     67 C          -0.2421  -22.6273  -47.1234 C.2       11 UNK         0.5000 
     68 O          -0.6254  -23.5057  -47.8926 O.2       11 UNK        -0.5000 
     69 N          -0.9029  -21.4799  -46.9203 N.am      12 UNK        -0.5000 
     70 CA         -2.1221  -21.0753  -47.6168 C.3       12 UNK         0.1400 
     71 CB         -2.4804  -19.6342  -47.2257 C.3       12 UNK        -0.1800 
     72 C          -3.3066  -22.0161  -47.3514 C.2       12 UNK         0.5000 
     73 O          -4.0575  -22.3197  -48.2797 O.2       12 UNK        -0.5000 
     74 N          -3.4313  -22.4803  -46.1013 N.am      13 UNK        -0.5000 
     75 CA         -4.4128  -23.4779  -45.6839 C.3       13 UNK         0.1400 
     76 CB         -4.4471  -23.5497  -44.1497 C.3       13 UNK        -0.1800 
     77 C          -4.1345  -24.8637  -46.2944 C.2       13 UNK         0.5000 
     78 O          -5.0686  -25.5158  -46.7614 O.2       13 UNK        -0.5000 
     79 N          -2.8601  -25.2800  -46.2949 N.am      14 UNK        -0.5000 
     80 CA         -2.4052  -26.5599  -46.8405 C.3       14 UNK         0.1400 
     81 CB         -0.9644  -26.8287  -46.3793 C.3       14 UNK        -0.1800 
     82 C          -2.5100  -26.6334  -48.3752 C.2       14 UNK         0.5000 
     83 O          -2.9751  -27.6431  -48.9055 O.2       14 UNK        -0.5000 
     84 N          -2.0810  -25.5647  -49.0586 N.am      15 UNK        -0.5000 
     85 CA         -2.0974  -25.4425  -50.5172 C.3       15 UNK         0.1400 
     86 CB         -1.1260  -24.3267  -50.9378 C.3       15 UNK        -0.1800 
     87 C          -3.4963  -25.1572  -51.0910 C.2       15 UNK         0.5000 
     88 O          -3.7095  -25.4036  -52.2781 O.2       15 UNK        -0.5000 
     89 N          -4.3993  -24.6268  -50.2511 N.am      16 UNK        -0.5000 
     90 CA         -5.7174  -24.0829  -50.5853 C.3       16 UNK         0.1400 
     91 CB         -6.6587  -25.1693  -51.1466 C.3       16 UNK        -0.1800 
     92 C          -5.5652  -22.8675  -51.5171 C.2       16 UNK         0.5000 
     93 O          -5.9154  -22.9367  -52.6952 O.2       16 UNK        -0.5000 
     94 N          -4.9991  -21.7852  -50.9661 N.am      17 UNK        -0.5000 
     95 CA         -4.5747  -20.5612  -51.6581 C.3       17 UNK         0.1400 
     96 CB         -4.1177  -19.5306  -50.6176 C.3       17 UNK        -0.1800 
     97 C          -5.5970  -19.9219  -52.6178 C.2       17 UNK         0.5000 
     98 O          -5.1933  -19.3547  -53.6341 O.2       17 UNK        -0.5000 
     99 N          -6.8915  -20.0343  -52.2934 N.am      18 UNK        -0.5000 
    100 CA        -7.9975  -19.5546  -53.1236 C.3       18 UNK         0.1400 
    101 CB        -9.2802  -19.5201  -52.2792 C.3       18 UNK        -0.1800 
    102 C         -8.2119  -20.3994  -54.3953 C.2       18 UNK         0.5000 
    103 O         -8.5966  -19.8488  -55.4270 O.2       18 UNK        -0.5000 
    104 N         -7.9523  -21.7107  -54.3055 N.am      19 UNK        -0.5000 
    105 CA        -8.0358  -22.6559  -55.4197 C.3       19 UNK         0.1400 
    106 CB        -8.3774  -24.0535  -54.8793 C.3       19 UNK        -0.1800 
    107 C         -6.7241  -22.6869  -56.2216 C.2       19 UNK         0.5000 
    108 O         -6.7622  -22.7908  -57.4480 O.2       19 UNK        -0.5000 
    109 N         -5.5898  -22.5634  -55.5172 N.am      20 UNK        -0.5000 
    110 CA        -4.2461  -22.4564  -56.0912 C.3       20 UNK         0.1400 
    111 CB        -3.2113  -22.6694  -54.9765 C.3       20 UNK        -0.1800 
    112 C         -3.9949  -21.1156  -56.8128 C.2       20 UNK         0.5000 
    113 O         -3.0808  -21.0389  -57.6344 O.2       20 UNK        -0.5000 
    114 N         -4.8146  -20.1014  -56.4982 N.am      21 UNK        -0.5000 
    115 CA        -4.8046  -18.7348  -57.0217 C.3       21 UNK         0.1400 
    116 CB        -5.1122  -18.7163  -58.5339 C.3       21 UNK        -0.1800 
    117 C         -3.5165  -17.9785  -56.6438 C.2       21 UNK         0.5000 
    118 O         -2.8573  -17.3958  -57.5074 O.2       21 UNK        -0.5000 
    119 N         -3.1852  -18.0046  -55.3465 N.am      22 UNK        -0.5000 
    120 CA        -2.0257  -17.3007  -54.7689 C.3       22 UNK         0.1400 
    121 C         -2.1624  -15.7491  -54.7269 C.2       22 UNK         0.5000 
    122 N         -3.3505  -15.1777  -54.8853 N.am      22 UNK        -0.7600 
    123 O         -1.1684  -15.0505  -54.5512 O.2       22 UNK        -0.5000 
    124 C124       -1.6601  -17.8355  -53.3627 C.3       23 UNK        -0.0398 
    125 S125       -1.2482  -19.6115  -53.3435 S.3       23 UNK        -0.2404 
    126 C126        0.5664  -19.5742  -53.5056 C.3       23 UNK        -0.0205 
    127 H127       -1.2205  -17.9851  -50.3456 H         1 UNK         0.0600 
    128 H128       -1.9520  -16.4055  -50.6544 H         1 UNK         0.0600 
    129 H129       -2.4493  -17.3475  -49.2459 H         1 UNK         0.0600 
    130 H130       -0.9042  -14.6127  -49.8317 H         1 UNK         0.3000 
    131 H131        0.5213  -13.2767  -48.8184 H         1 UNK         0.0600 
    132 H132        2.8816  -13.9632  -48.6020 H         1 UNK         0.0800 
    133 H133        2.4405  -15.6451  -48.6617 H         1 UNK         0.0800 
    134 H134        3.8095  -15.8776  -52.2193 H         1 UNK         0.0800 
    135 H135        4.2313  -16.0331  -50.5364 H         1 UNK         0.0800 
    136 H136        1.9681  -17.2395  -53.2205 H         1 UNK         0.1150 
    137 H137        0.6866  -20.6950  -51.0204 H         1 UNK         0.1150 
    138 H138        3.1497  -17.7413  -49.1352 H         1 UNK         0.1150 
    139 H139        2.3258  -19.4593  -47.8359 H         1 UNK         0.0800 
    140 H140        0.7487  -20.0082  -48.3214 H         1 UNK         0.0800 
    141 H141        2.4565  -21.2014  -46.2910 H         1 UNK         0.0800 
    142 H142        3.1872  -22.7314  -46.5795 H         1 UNK         0.0800 
    143 H143        1.2395  -23.9294  -46.3479 H         1 UNK         0.0600 
    144 H144        1.3734  -21.8016  -44.4817 H         1 UNK         0.3000 
    145 H145       -1.2488  -22.8851  -42.2961 H         1 UNK         0.0600 
    146 H146        0.8359  -24.1012  -41.6695 H         1 UNK         0.0600 
    147 H147        1.7990  -22.6764  -42.0393 H         1 UNK         0.0600 
    148 H148        0.6418  -22.6401  -40.7120 H         1 UNK         0.0600 
    149 H149        0.4211  -20.5848  -42.2108 H         1 UNK         0.3000 
    150 H150       -1.6707  -18.4353  -44.1839 H         1 UNK         0.0600 
    151 H151       -1.3479  -17.0647  -42.0953 H         1 UNK         0.0600 
    152 H152       -1.0097  -18.5415  -41.1962 H         1 UNK         0.0600 
    153 H153       -2.5928  -18.2937  -41.9147 H         1 UNK         0.0600 
    154 H154        0.8125  -17.8876  -42.9520 H         1 UNK         0.3000 
    155 H155        2.9425  -19.0859  -45.5897 H         1 UNK         0.0600 
    156 H156        2.2906  -16.8470  -46.3102 H         1 UNK         0.0600 
    157 H157        3.7619  -16.7442  -45.3548 H         1 UNK         0.0600 
    158 H158        2.2128  -16.2775  -44.6521 H         1 UNK         0.0600 
    159 H159        3.3445  -17.8660  -43.0002 H         1 UNK         0.3000 
    160 H160        3.7211  -20.9370  -41.2283 H         1 UNK         0.0600 
    161 H161        5.9384  -20.5990  -42.3298 H         1 UNK         0.0600 
    162 H162        5.9331  -19.9452  -40.6998 H         1 UNK         0.0600 
    163 H163        5.8116  -18.8610  -42.0859 H         1 UNK         0.0600 
    164 H164        4.0389  -18.1861  -40.4856 H         1 UNK         0.3000 
    165 H165        0.6417  -17.4869  -39.7427 H         1 UNK         0.0600 
    166 H166        1.5245  -17.0522  -37.4703 H         1 UNK         0.0600 
    167 H167        1.3704  -18.7818  -37.7336 H         1 UNK         0.0600 
    168 H168        2.9573  -18.0247  -37.8070 H         1 UNK         0.0600 
    169 H169        2.9589  -15.9667  -39.2338 H         1 UNK         0.3000 
    170 H170        3.9551  -14.5445  -40.6014 H         1 UNK         0.0600 
    171 H171        4.5952  -13.7621  -42.8132 H         1 UNK         0.0600 
    172 H172        4.4248  -15.5083  -42.9024 H         1 UNK         0.0600 
    173 H173        3.1635  -14.4637  -43.5547 H         1 UNK         0.0600 
    174 H174        2.2012  -12.8494  -42.1189 H         1 UNK         0.3000 
    175 H175        0.2898  -11.6089  -39.4218 H         1 UNK         0.0600 
    176 H176        2.6273  -10.2364  -40.8461 H         1 UNK         0.0600 
    177 H177        1.2687   -9.4204  -40.0727 H         1 UNK         0.0600 
    178 H178        2.3969  -10.3613  -39.1097 H         1 UNK         0.0600 
    179 H179       -0.8251  -11.5756  -41.2900 H         1 UNK         0.3000 
    180 H180       -1.5493  -11.1879  -43.2629 H         1 UNK         0.0600 
    181 H181       -1.2758  -10.0349  -45.4268 H         1 UNK         0.0600 
    182 H182        0.4787  -10.1823  -45.3300 H         1 UNK         0.0600 
    183 H183       -0.3883   -9.1679  -44.1831 H         1 UNK         0.0600 
    184 H184       -0.3920  -12.4631  -45.5404 H         1 UNK         0.3000 
    185 H185       -0.1050  -15.6240  -44.7094 H         1 UNK         0.0600 
    186 H186       -3.0384  -15.0663  -45.3988 H         1 UNK         0.0600 
    187 H187       -2.1816  -16.5823  -45.6773 H         1 UNK         0.0600 
    188 H188       -2.4783  -16.0263  -44.0381 H         1 UNK         0.0600 
    189 H189       -1.3369  -14.7557  -47.1118 H         1 UNK         0.3000 
    190 H190       -0.4851  -20.7829  -46.3053 H         1 UNK         0.3000 
    191 H191       -1.9061  -21.1034  -48.6861 H         1 UNK         0.0600 
    192 H192       -2.6871  -19.5449  -46.1599 H         1 UNK         0.0600 
    193 H193       -3.3665  -19.2874  -47.7569 H         1 UNK         0.0600 
    194 H194       -1.6661  -18.9510  -47.4621 H         1 UNK         0.0600 
    195 H195       -2.7991  -22.1307  -45.3887 H         1 UNK         0.3000 
    196 H196       -5.3954  -23.1507  -46.0304 H         1 UNK         0.0600 
    197 H197       -5.1877  -24.2740  -43.8087 H         1 UNK         0.0600 
    198 H198       -4.7111  -22.5845  -43.7170 H         1 UNK         0.0600 
    199 H199       -3.4821  -23.8459  -43.7372 H         1 UNK         0.0600 
    200 H200       -2.1527  -24.6942  -45.8625 H         1 UNK         0.3000 
    201 H201       -3.0414  -27.3455  -46.4275 H         1 UNK         0.0600 
    202 H202       -0.8999  -26.8647  -45.2917 H         1 UNK         0.0600 
    203 H203       -0.2784  -26.0561  -46.7280 H         1 UNK         0.0600 
    204 H204       -0.6037  -27.7854  -46.7590 H         1 UNK         0.0600 
    205 H205       -1.6598  -24.7889  -48.5475 H         1 UNK         0.3000 
    206 H206       -1.7460  -26.3822  -50.9483 H         1 UNK         0.0600 
    207 H207       -1.0733  -24.2407  -52.0240 H         1 UNK         0.0600 
    208 H208       -1.4367  -23.3562  -50.5478 H         1 UNK         0.0600 
    209 H209       -0.1162  -24.5239  -50.5774 H         1 UNK         0.0600 
    210 H210       -4.0896  -24.4377  -49.3070 H         1 UNK         0.3000 
    211 H211       -6.1526  -23.7220  -49.6521 H         1 UNK         0.0600 
    212 H212       -6.3158  -25.5609  -52.1044 H         1 UNK         0.0600 
    213 H213       -7.6604  -24.7677  -51.3033 H         1 UNK         0.0600 
    214 H214       -6.7472  -26.0069  -50.4549 H         1 UNK         0.0600 
    215 H215       -4.7203  -21.8606  -49.9905 H         1 UNK         0.3000 
    216 H216       -3.7081  -20.8300  -52.2604 H         1 UNK         0.0600 
    217 H217       -3.9403  -18.5556  -51.0711 H         1 UNK         0.0600 
    218 H218       -3.1829  -19.8400  -50.1544 H         1 UNK         0.0600 
    219 H219       -4.8614  -19.3931  -49.8321 H         1 UNK         0.0600 
    220 H220       -7.1329  -20.5139  -51.4388 H         1 UNK         0.3000 
    221 H221       -7.7705  -18.5338  -53.4388 H         1 UNK         0.0600 
    222 H222       -9.5506  -20.5123  -51.9159 H         1 UNK         0.0600 
    223 H223       -9.1663  -18.8649  -51.4153 H         1 UNK         0.0600 
    224 H224      -10.1216  -19.1434  -52.8626 H         1 UNK         0.0600 
    225 H225       -7.5468  -22.0712  -53.4489 H         1 UNK         0.3000 
    226 H226       -8.8383  -22.3505  -56.0947 H         1 UNK         0.0600 
    227 H227       -9.3203  -24.0445  -54.3325 H         1 UNK         0.0600 
    228 H228       -8.4804  -24.7710  -55.6943 H         1 UNK         0.0600 
    229 H229       -7.6048  -24.4299  -54.2080 H         1 UNK         0.0600 
    230 H230       -5.6539  -22.5612  -54.5019 H         1 UNK         0.3000 
    231 H231       -4.1265  -23.2546  -56.8266 H         1 UNK         0.0600 
    232 H232       -3.2701  -21.8839  -54.2251 H         1 UNK         0.0600 
    233 H233       -3.3591  -23.6257  -54.4743 H         1 UNK         0.0600 
    234 H234       -2.1967  -22.6629  -55.3763 H         1 UNK         0.0600 
    235 H235       -5.4773  -20.2675  -55.7531 H         1 UNK         0.3000 
    236 H236       -5.6211  -18.2145  -56.5187 H         1 UNK         0.0600 
    237 H237       -4.3169  -19.1788  -59.1189 H         1 UNK         0.0600 
    238 H238       -6.0401  -19.2449  -58.7525 H         1 UNK         0.0600 
    239 H239       -5.2285  -17.6936  -58.8941 H         1 UNK         0.0600 
    240 H240       -3.7821  -18.5126  -54.6998 H         1 UNK         0.3000 
    241 H241       -1.1734  -17.5023  -55.4206 H         1 UNK         0.0600 
    242 H242       -4.1757  -15.7374  -55.0262 H         1 UNK         0.3800 
    243 H243       -3.4243  -14.1727  -54.8617 H         1 UNK         0.3800 
    244 H244       -0.8248  -17.2766  -52.9380 H         1 UNK         0.0800 
    245 H245       -2.4993  -17.6804  -52.6854 H         1 UNK         0.0800 
    246 H246        0.9185  -20.5892  -53.6944 H         1 UNK         0.0800 
    247 H247        0.8355  -18.9913  -54.3877 H         1 UNK         0.0800 
@<TRIPOS>BOND
     1    1    2 1    
     2    1  127 1    
     3    1  128 1    
     4    1  129 1    
     5    2    3 2    
     6    2    4 am   BACKBONE|DICT|INTERRES
     7    4    5 1    
     8    4  130 1    
     9    5    6 1    
    10    5   65 1    
    11    5  131 1    
    12    6    7 1    
    13    6  132 1    
    14    6  133 1    
    15    7    8 1    
    16    8    9 1    
    17    8  134 1    
    18    8  135 1    
    19    9   10 ar   
    20    9   14 ar   
    21   10   11 ar   
    22   10  136 1    
    23   11   12 ar   
    24   11  126 1    
    25   12   13 ar   
    26   12  137 1    
    27   13   14 ar   
    28   13   15 1    
    29   14  138 1    
    30   15   16 1    
    31   15  139 1    
    32   15  140 1    
    33   16   17 1    
    34   17   18 1    
    35   17  141 1    
    36   17  142 1    
    37   18   19 1    
    38   18   67 1    
    39   18  143 1    
    40   19   20 am   BACKBONE|DICT|INTERRES
    41   19  144 1    
    42   20   21 2    
    43   20   22 1    
    44   22   23 1    
    45   22   24 1    
    46   22  145 1    
    47   23  146 1    
    48   23  147 1    
    49   23  148 1    
    50   24   25 am   BACKBONE|DICT|INTERRES
    51   24  149 1    
    52   25   26 2    
    53   25   27 1    
    54   27   28 1    
    55   27   29 1    
    56   27  150 1    
    57   28  151 1    
    58   28  152 1    
    59   28  153 1    
    60   29   30 am   BACKBONE|DICT|INTERRES
    61   29  154 1    
    62   30   31 2    
    63   30   32 1    
    64   32   33 1    
    65   32   34 1    
    66   32  155 1    
    67   33  156 1    
    68   33  157 1    
    69   33  158 1    
    70   34   35 am   BACKBONE|DICT|INTERRES
    71   34  159 1    
    72   35   36 2    
    73   35   37 1    
    74   37   38 1    
    75   37   39 1    
    76   37  160 1    
    77   38  161 1    
    78   38  162 1    
    79   38  163 1    
    80   39   40 am   BACKBONE|DICT|INTERRES
    81   39  164 1    
    82   40   41 2    
    83   40   42 1    
    84   42   43 1    
    85   42   44 1    
    86   42  165 1    
    87   43  166 1    
    88   43  167 1    
    89   43  168 1    
    90   44   45 am   BACKBONE|DICT|INTERRES
    91   44  169 1    
    92   45   46 2    
    93   45   47 1    
    94   47   48 1    
    95   47   49 1    
    96   47  170 1    
    97   48  171 1    
    98   48  172 1    
    99   48  173 1    
   100   49   50 am   BACKBONE|DICT|INTERRES
   101   49  174 1    
   102   50   51 2    
   103   50   52 1    
   104   52   53 1    
   105   52   54 1    
   106   52  175 1    
   107   53  176 1    
   108   53  177 1    
   109   53  178 1    
   110   54   55 am   BACKBONE|DICT|INTERRES
   111   54  179 1    
   112   55   56 2    
   113   55   57 1    
   114   57   58 1    
   115   57   59 1    
   116   57  180 1    
   117   58  181 1    
   118   58  182 1    
   119   58  183 1    
   120   59   60 am   BACKBONE|DICT|INTERRES
   121   59  184 1    
   122   60   61 2    
   123   60   62 1    
   124   62   63 1    
   125   62   64 1    
   126   62  185 1    
   127   63  186 1    
   128   63  187 1    
   129   63  188 1    
   130   64   65 am   BACKBONE|DICT|INTERRES
   131   64  189 1    
   132   65   66 2    
   133   67   68 2    
   134   67   69 am   BACKBONE|DICT|INTERRES
   135   69   70 1    
   136   69  190 1    
   137   70   71 1    
   138   70   72 1    
   139   70  191 1    
   140   71  192 1    
   141   71  193 1    
   142   71  194 1    
   143   72   73 2    
   144   72   74 am   BACKBONE|DICT|INTERRES
   145   74   75 1    
   146   74  195 1    
   147   75   76 1    
   148   75   77 1    
   149   75  196 1    
   150   76  197 1    
   151   76  198 1    
   152   76  199 1    
   153   77   78 2    
   154   77   79 am   BACKBONE|DICT|INTERRES
   155   79   80 1    
   156   79  200 1    
   157   80   81 1    
   158   80   82 1    
   159   80  201 1    
   160   81  202 1    
   161   81  203 1    
   162   81  204 1    
   163   82   83 2    
   164   82   84 am   BACKBONE|DICT|INTERRES
   165   84   85 1    
   166   84  205 1    
   167   85   86 1    
   168   85   87 1    
   169   85  206 1    
   170   86  207 1    
   171   86  208 1    
   172   86  209 1    
   173   87   88 2    
   174   87   89 am   BACKBONE|DICT|INTERRES
   175   89   90 1    
   176   89  210 1    
   177   90   91 1    
   178   90   92 1    
   179   90  211 1    
   180   91  212 1    
   181   91  213 1    
   182   91  214 1    
   183   92   93 2    
   184   92   94 am   BACKBONE|DICT|INTERRES
   185   94   95 1    
   186   94  215 1    
   187   95   96 1    
   188   95   97 1    
   189   95  216 1    
   190   96  217 1    
   191   96  218 1    
   192   96  219 1    
   193   97   98 2    
   194   97   99 am   BACKBONE|DICT|INTERRES
   195   99  100 1    
   196   99  220 1    
   197  100  101 1    
   198  100  102 1    
   199  100  221 1    
   200  101  222 1    
   201  101  223 1    
   202  101  224 1    
   203  102  103 2    
   204  102  104 am   BACKBONE|DICT|INTERRES
   205  104  105 1    
   206  104  225 1    
   207  105  106 1    
   208  105  107 1    
   209  105  226 1    
   210  106  227 1    
   211  106  228 1    
   212  106  229 1    
   213  107  108 2    
   214  107  109 am   BACKBONE|DICT|INTERRES
   215  109  110 1    
   216  109  230 1    
   217  110  111 1    
   218  110  112 1    
   219  110  231 1    
   220  111  232 1    
   221  111  233 1    
   222  111  234 1    
   223  112  113 2    
   224  112  114 am   BACKBONE|DICT|INTERRES
   225  114  115 1    
   226  114  235 1    
   227  115  116 1    
   228  115  117 1    
   229  115  236 1    
   230  116  237 1    
   231  116  238 1    
   232  116  239 1    
   233  117  118 2    
   234  117  119 am   BACKBONE|DICT|INTERRES
   235  119  120 1    
   236  119  240 1    
   237  120  121 1    
   238  120  124 1    
   239  120  241 1    
   240  121  122 am   BACKBONE|DICT|INTERRES
   241  121  123 2    
   242  122  242 1    
   243  122  243 1    
   244  124  125 1    
   245  124  244 1    
   246  124  245 1    
   247  125  126 1    
   248  126  246 1    
   249  126  247 1    
@<TRIPOS>SUBSTRUCTURE
     1 UNK         1 GROUP             0       ****    0 ROOT    
