@<TRIPOS>MOLECULE
3R540
247   249    1
SMALL
USER_CHARGES


@<TRIPOS>ATOM
      1 CA          2.9005  -10.6404  -43.1354 C.3       0 UNK        -0.1800 
      2 C           1.5715  -10.4981  -43.8631 C.2       0 UNK         0.5000 
      3 O           0.7166   -9.7215  -43.4360 O.2       0 UNK        -0.5000 
      4 N           1.4072  -11.2394  -44.9606 N.am      1 UNK        -0.5000 
      5 CA          0.2811  -11.1482  -45.8906 C.3       1 UNK         0.1400 
      6 C6         -0.2183  -12.5554  -46.2998 C.3       23 UNK        -0.0398 
      7 S7         -1.0222  -13.4505  -44.9289 S.3       23 UNK        -0.2404 
      8 C8         -2.2451  -14.4633  -45.8236 C.3       23 UNK        -0.0205 
      9 C9         -1.5975  -15.3517  -46.8770 C.ar      23 UNK        -0.0193 
     10 C10        -1.6538  -14.9929  -48.2248 C.ar      23 UNK        -0.1150 
     11 C11        -1.0327  -15.7771  -49.1999 C.ar      23 UNK        -0.0193 
     12 C12        -0.3667  -16.9457  -48.8166 C.ar      23 UNK        -0.1150 
     13 C13        -0.3031  -17.3228  -47.4679 C.ar      23 UNK        -0.0193 
     14 C14        -0.9178  -16.5140  -46.5062 C.ar      23 UNK        -0.1150 
     15 C15         0.5029  -18.5388  -47.0160 C.3       23 UNK        -0.0205 
     16 S16         0.3778  -19.9860  -48.1192 S.3       23 UNK        -0.2404 
     17 C17        -1.2034  -20.7555  -47.6307 C.3       23 UNK        -0.0398 
     18 CA         -0.9864  -22.2213  -47.1769 C.3       11 UNK         0.1400 
     19 N          -0.3564  -22.3194  -45.8551 N.am      11 UNK        -0.5000 
     20 C           0.1953  -23.4405  -45.3678 C.2       10 UNK         0.5000 
     21 O           0.2673  -24.4956  -45.9971 O.2       10 UNK        -0.5000 
     22 CA          0.6988  -23.3908  -43.9158 C.3       10 UNK         0.1400 
     23 CB          2.1177  -22.8062  -43.8436 C.3       10 UNK        -0.1800 
     24 N          -0.2087  -22.6288  -43.0557 N.am      10 UNK        -0.5000 
     25 C          -1.4050  -23.0829  -42.6511 C.2       9 UNK         0.5000 
     26 O          -1.8388  -24.1943  -42.9445 O.2       9 UNK        -0.5000 
     27 CA         -2.2910  -22.1382  -41.8168 C.3       9 UNK         0.1400 
     28 CB         -1.9921  -22.3057  -40.3200 C.3       9 UNK        -0.1800 
     29 N          -2.1433  -20.7314  -42.1812 N.am      9 UNK        -0.5000 
     30 C          -2.4160  -20.2123  -43.3862 C.2       8 UNK         0.5000 
     31 O          -2.8877  -20.8585  -44.3217 O.2       8 UNK        -0.5000 
     32 CA         -2.0207  -18.7397  -43.6005 C.3       8 UNK         0.1400 
     33 CB         -3.1894  -17.8088  -43.2503 C.3       8 UNK        -0.1800 
     34 N          -0.8350  -18.3334  -42.8359 N.am      8 UNK        -0.5000 
     35 C           0.3719  -18.9103  -42.9015 C.2       7 UNK         0.5000 
     36 O           0.6262  -19.8450  -43.6619 O.2       7 UNK        -0.5000 
     37 CA          1.4498  -18.3821  -41.9316 C.3       7 UNK         0.1400 
     38 CB          2.7311  -19.2352  -41.9618 C.3       7 UNK        -0.1800 
     39 N           1.8139  -16.9909  -42.1904 N.am      7 UNK        -0.5000 
     40 C           1.0668  -15.9083  -41.9374 C.2       6 UNK         0.5000 
     41 O          -0.0565  -15.9627  -41.4334 O.2       6 UNK        -0.5000 
     42 CA          1.6817  -14.5326  -42.2731 C.3       6 UNK         0.1400 
     43 CB          2.0387  -13.7891  -40.9763 C.3       6 UNK        -0.1800 
     44 N           2.8763  -14.5877  -43.1248 N.am      6 UNK        -0.5000 
     45 C           2.8909  -14.9712  -44.4080 C.2       5 UNK         0.5000 
     46 O           1.9009  -15.3820  -45.0135 O.2       5 UNK        -0.5000 
     47 CA          4.2613  -14.9391  -45.1100 C.3       5 UNK         0.1400 
     48 CB          5.0240  -16.2471  -44.8453 C.3       5 UNK        -0.1800 
     49 N           4.1299  -14.7547  -46.5552 N.am      5 UNK        -0.5000 
     50 C           3.6857  -13.6363  -47.1397 C.2       4 UNK         0.5000 
     51 O           3.4244  -12.5997  -46.5241 O.2       4 UNK        -0.5000 
     52 CA          3.4916  -13.7018  -48.6609 C.3       4 UNK         0.1400 
     53 CB          2.2486  -14.5326  -49.0278 C.3       4 UNK        -0.1800 
     54 N           3.3646  -12.3550  -49.2118 N.am      4 UNK        -0.5000 
     55 C           3.6120  -12.0231  -50.4852 C.2       3 UNK         0.5000 
     56 O           3.9989  -12.8324  -51.3310 O.2       3 UNK        -0.5000 
     57 CA          3.4014  -10.5427  -50.8761 C.3       3 UNK         0.1400 
     58 CB          3.2899  -10.3304  -52.4010 C.3       3 UNK        -0.1800 
     59 N           2.2747   -9.9082  -50.1826 N.am      3 UNK        -0.5000 
     60 C           0.9813  -10.2584  -50.2322 C.2       2 UNK         0.5000 
     61 O           0.5377  -11.1938  -50.9005 O.2       2 UNK        -0.5000 
     62 CA          0.0289   -9.4345  -49.3403 C.3       2 UNK         0.1400 
     63 CB         -1.3244   -9.1871  -50.0284 C.3       2 UNK        -0.1800 
     64 N          -0.2081  -10.0925  -48.0544 N.am      2 UNK        -0.5000 
     65 C           0.7279  -10.3369  -47.1270 C.2       1 UNK         0.5000 
     66 O           1.8949   -9.9474  -47.2328 O.2       1 UNK        -0.5000 
     67 C          -2.2867  -23.0509  -47.2634 C.2       11 UNK         0.5000 
     68 O          -2.5807  -23.6052  -48.3247 O.2       11 UNK        -0.5000 
     69 N          -3.0190  -23.1552  -46.1456 N.am      12 UNK        -0.5000 
     70 CA         -4.1677  -24.0451  -45.9894 C.3       12 UNK         0.1400 
     71 CB         -4.9711  -23.6381  -44.7458 C.3       12 UNK        -0.1800 
     72 C          -3.7500  -25.5269  -45.9184 C.2       12 UNK         0.5000 
     73 O          -4.3656  -26.3587  -46.5839 O.2       12 UNK        -0.5000 
     74 N          -2.7019  -25.8343  -45.1388 N.am      13 UNK        -0.5000 
     75 CA         -2.1614  -27.1864  -44.9563 C.3       13 UNK         0.1400 
     76 CB         -1.1115  -27.1841  -43.8359 C.3       13 UNK        -0.1800 
     77 C          -1.5708  -27.8026  -46.2375 C.2       13 UNK         0.5000 
     78 O          -1.6073  -29.0247  -46.3891 O.2       13 UNK        -0.5000 
     79 N          -1.0798  -26.9597  -47.1562 N.am      14 UNK        -0.5000 
     80 CA         -0.5822  -27.3157  -48.4887 C.3       14 UNK         0.1400 
     81 CB          0.2611  -26.1420  -49.0207 C.3       14 UNK        -0.1800 
     82 C          -1.7151  -27.7144  -49.4647 C.2       14 UNK         0.5000 
     83 O          -1.8124  -27.1582  -50.5600 O.2       14 UNK        -0.5000 
     84 N          -2.5852  -28.6394  -49.0297 N.am      15 UNK        -0.5000 
     85 CA         -3.7778  -29.1669  -49.7104 C.3       15 UNK         0.1400 
     86 CB         -3.3540  -30.0460  -50.9049 C.3       15 UNK        -0.1800 
     87 C          -4.7989  -28.0802  -50.1206 C.2       15 UNK         0.5000 
     88 O          -5.5729  -28.2869  -51.0564 O.2       15 UNK        -0.5000 
     89 N          -4.7397  -26.9231  -49.4440 N.am      16 UNK        -0.5000 
     90 CA         -5.3911  -25.6477  -49.7542 C.3       16 UNK         0.1400 
     91 CB         -6.9168  -25.7521  -49.5635 C.3       16 UNK        -0.1800 
     92 C          -5.0127  -25.0534  -51.1295 C.2       16 UNK         0.5000 
     93 O          -5.6503  -24.0931  -51.5588 O.2       16 UNK        -0.5000 
     94 N          -3.9873  -25.5995  -51.7995 N.am      17 UNK        -0.5000 
     95 CA         -3.5903  -25.2222  -53.1545 C.3       17 UNK         0.1400 
     96 CB         -2.6484  -26.2885  -53.7328 C.3       17 UNK        -0.1800 
     97 C          -2.9410  -23.8334  -53.1970 C.2       17 UNK         0.5000 
     98 O          -3.2592  -23.0402  -54.0815 O.2       17 UNK        -0.5000 
     99 N          -2.0789  -23.5468  -52.2129 N.am      18 UNK        -0.5000 
    100 CA        -1.4434  -22.2412  -52.0434 C.3       18 UNK         0.1400 
    101 CB        -0.2849  -22.3649  -51.0476 C.3       18 UNK        -0.1800 
    102 C         -2.4489  -21.1601  -51.6075 C.2       18 UNK         0.5000 
    103 O         -2.3605  -20.0258  -52.0767 O.2       18 UNK        -0.5000 
    104 N         -3.4188  -21.5413  -50.7630 N.am      19 UNK        -0.5000 
    105 CA        -4.5375  -20.6892  -50.3586 C.3       19 UNK         0.1400 
    106 CB        -5.3112  -21.3544  -49.2096 C.3       19 UNK        -0.1800 
    107 C         -5.4672  -20.3502  -51.5396 C.2       19 UNK         0.5000 
    108 O         -5.8266  -19.1852  -51.7106 O.2       19 UNK        -0.5000 
    109 N         -5.7998  -21.3582  -52.3590 N.am      20 UNK        -0.5000 
    110 CA        -6.5957  -21.2146  -53.5799 C.3       20 UNK         0.1400 
    111 CB        -6.9669  -22.6036  -54.1208 C.3       20 UNK        -0.1800 
    112 C         -5.8922  -20.3804  -54.6662 C.2       20 UNK         0.5000 
    113 O         -6.5589  -19.6102  -55.3582 O.2       20 UNK        -0.5000 
    114 N         -4.5648  -20.5302  -54.7853 N.am      21 UNK        -0.5000 
    115 CA        -3.7174  -19.7306  -55.6712 C.3       21 UNK         0.1400 
    116 CB        -2.3129  -20.3480  -55.7472 C.3       21 UNK        -0.1800 
    117 C         -3.6432  -18.2545  -55.2398 C.2       21 UNK         0.5000 
    118 O         -3.6683  -17.3737  -56.1007 O.2       21 UNK        -0.5000 
    119 N         -3.5717  -18.0118  -53.9236 N.am      22 UNK        -0.5000 
    120 CA        -3.6651  -16.6745  -53.3235 C.3       22 UNK         0.1400 
    121 C         -5.0785  -16.0427  -53.4822 C.2       22 UNK         0.5000 
    122 N         -6.1430  -16.7548  -53.1347 N.am      22 UNK        -0.7600 
    123 O         -5.2117  -14.9089  -53.9354 O.2       22 UNK        -0.5000 
    124 C124       -3.1994  -16.6754  -51.8443 C.3       23 UNK        -0.0398 
    125 S125       -2.6857  -15.0090  -51.3072 S.3       23 UNK        -0.2404 
    126 C126       -1.0142  -15.3082  -50.6492 C.3       23 UNK        -0.0205 
    127 H127        2.7489  -10.6111  -42.0567 H         1 UNK         0.0600 
    128 H128        3.5638   -9.8195  -43.4073 H         1 UNK         0.0600 
    129 H129        3.3957  -11.5788  -43.3868 H         1 UNK         0.0600 
    130 H130        2.1925  -11.7762  -45.3207 H         1 UNK         0.3000 
    131 H131       -0.5488  -10.6052  -45.4337 H         1 UNK         0.0600 
    132 H132        0.6058  -13.1684  -46.6662 H         1 UNK         0.0800 
    133 H133       -0.9371  -12.4847  -47.1161 H         1 UNK         0.0800 
    134 H134       -2.9896  -13.8081  -46.2785 H         1 UNK         0.0800 
    135 H135       -2.7851  -15.0826  -45.1076 H         1 UNK         0.0800 
    136 H136       -2.1600  -14.0839  -48.5177 H         1 UNK         0.1150 
    137 H137        0.1375  -17.5404  -49.5648 H         1 UNK         0.1150 
    138 H138       -0.8312  -16.7585  -45.4578 H         1 UNK         0.1150 
    139 H139        1.5503  -18.2408  -46.9563 H         1 UNK         0.0800 
    140 H140        0.2169  -18.8388  -46.0094 H         1 UNK         0.0800 
    141 H141       -1.8578  -20.7079  -48.5022 H         1 UNK         0.0800 
    142 H142       -1.6939  -20.1707  -46.8511 H         1 UNK         0.0800 
    143 H143       -0.2953  -22.6892  -47.8799 H         1 UNK         0.0600 
    144 H144       -0.3670  -21.4919  -45.2748 H         1 UNK         0.3000 
    145 H145        0.7454  -24.4146  -43.5397 H         1 UNK         0.0600 
    146 H146        2.4686  -22.7437  -42.8135 H         1 UNK         0.0600 
    147 H147        2.8212  -23.4361  -44.3891 H         1 UNK         0.0600 
    148 H148        2.1737  -21.8090  -44.2797 H         1 UNK         0.0600 
    149 H149        0.0563  -21.6714  -42.8587 H         1 UNK         0.3000 
    150 H150       -3.3313  -22.4191  -41.9919 H         1 UNK         0.0600 
    151 H151       -2.1167  -23.3446  -40.0113 H         1 UNK         0.0600 
    152 H152       -2.6688  -21.7046  -39.7124 H         1 UNK         0.0600 
    153 H153       -0.9701  -22.0114  -40.0775 H         1 UNK         0.0600 
    154 H154       -1.7559  -20.1198  -41.4782 H         1 UNK         0.3000 
    155 H155       -1.7948  -18.6260  -44.6605 H         1 UNK         0.0600 
    156 H156       -3.4725  -17.8965  -42.2007 H         1 UNK         0.0600 
    157 H157       -4.0695  -18.0435  -43.8505 H         1 UNK         0.0600 
    158 H158       -2.9335  -16.7668  -43.4396 H         1 UNK         0.0600 
    159 H159       -0.9338  -17.5319  -42.2196 H         1 UNK         0.3000 
    160 H160        1.0339  -18.4456  -40.9241 H         1 UNK         0.0600 
    161 H161        3.2110  -19.2075  -42.9411 H         1 UNK         0.0600 
    162 H162        2.5126  -20.2790  -41.7326 H         1 UNK         0.0600 
    163 H163        3.4545  -18.8882  -41.2237 H         1 UNK         0.0600 
    164 H164        2.7091  -16.8414  -42.6299 H         1 UNK         0.3000 
    165 H165        0.9203  -13.9545  -42.7982 H         1 UNK         0.0600 
    166 H166        2.4167  -12.7890  -41.1813 H         1 UNK         0.0600 
    167 H167        1.1629  -13.6759  -40.3357 H         1 UNK         0.0600 
    168 H168        2.7974  -14.3232  -40.4029 H         1 UNK         0.0600 
    169 H169        3.7410  -14.2951  -42.6929 H         1 UNK         0.3000 
    170 H170        4.8414  -14.1046  -44.7100 H         1 UNK         0.0600 
    171 H171        5.1806  -16.4024  -43.7771 H         1 UNK         0.0600 
    172 H172        4.4814  -17.1135  -45.2265 H         1 UNK         0.0600 
    173 H173        6.0072  -16.2330  -45.3161 H         1 UNK         0.0600 
    174 H174        4.2866  -15.5734  -47.1239 H         1 UNK         0.3000 
    175 H175        4.3800  -14.1776  -49.0818 H         1 UNK         0.0600 
    176 H176        1.3310  -14.0407  -48.7065 H         1 UNK         0.0600 
    177 H177        2.1794  -14.6881  -50.1044 H         1 UNK         0.0600 
    178 H178        2.2730  -15.5183  -48.5617 H         1 UNK         0.0600 
    179 H179        3.0943  -11.6420  -48.5430 H         1 UNK         0.3000 
    180 H180        4.2964  -10.0176  -50.5396 H         1 UNK         0.0600 
    181 H181        3.1602   -9.2758  -52.6441 H         1 UNK         0.0600 
    182 H182        2.4486  -10.8788  -52.8259 H         1 UNK         0.0600 
    183 H183        4.1920  -10.6701  -52.9110 H         1 UNK         0.0600 
    184 H184        2.5304   -9.1758  -49.5336 H         1 UNK         0.3000 
    185 H185        0.4866   -8.4617  -49.1481 H         1 UNK         0.0600 
    186 H186       -1.9578   -8.5327  -49.4292 H         1 UNK         0.0600 
    187 H187       -1.1859   -8.7057  -50.9974 H         1 UNK         0.0600 
    188 H188       -1.8692  -10.1167  -50.1990 H         1 UNK         0.0600 
    189 H189       -1.1470  -10.4314  -47.9049 H         1 UNK         0.3000 
    190 H190       -2.7633  -22.5919  -45.3414 H         1 UNK         0.3000 
    191 H191       -4.8160  -23.9188  -46.8585 H         1 UNK         0.0600 
    192 H192       -5.8625  -24.2573  -44.6386 H         1 UNK         0.0600 
    193 H193       -5.3002  -22.6008  -44.8120 H         1 UNK         0.0600 
    194 H194       -4.3864  -23.7448  -43.8325 H         1 UNK         0.0600 
    195 H195       -2.2858  -25.1076  -44.5635 H         1 UNK         0.3000 
    196 H196       -2.9866  -27.8285  -44.6417 H         1 UNK         0.0600 
    197 H197       -0.2776  -26.5228  -44.0701 H         1 UNK         0.0600 
    198 H198       -1.5444  -26.8620  -42.8890 H         1 UNK         0.0600 
    199 H199       -0.7033  -28.1834  -43.6791 H         1 UNK         0.0600 
    200 H200       -1.0381  -25.9769  -46.9139 H         1 UNK         0.3000 
    201 H201        0.0742  -28.1823  -48.3907 H         1 UNK         0.0600 
    202 H202       -0.3378  -25.2374  -49.1335 H         1 UNK         0.0600 
    203 H203        0.6941  -26.3756  -49.9941 H         1 UNK         0.0600 
    204 H204        1.0868  -25.9127  -48.3468 H         1 UNK         0.0600 
    205 H205       -2.4143  -29.0085  -48.0976 H         1 UNK         0.3000 
    206 H206       -4.2871  -29.8055  -48.9876 H         1 UNK         0.0600 
    207 H207       -2.6414  -30.8114  -50.5979 H         1 UNK         0.0600 
    208 H208       -4.2117  -30.5606  -51.3397 H         1 UNK         0.0600 
    209 H209       -2.8912  -29.4547  -51.6960 H         1 UNK         0.0600 
    210 H210       -4.1225  -26.8885  -48.6411 H         1 UNK         0.3000 
    211 H211       -5.0155  -24.9370  -49.0184 H         1 UNK         0.0600 
    212 H212       -7.3912  -24.7738  -49.6504 H         1 UNK         0.0600 
    213 H213       -7.1629  -26.1432  -48.5763 H         1 UNK         0.0600 
    214 H214       -7.3742  -26.4038  -50.3082 H         1 UNK         0.0600 
    215 H215       -3.4443  -26.3342  -51.3567 H         1 UNK         0.3000 
    216 H216       -4.4883  -25.1918  -53.7752 H         1 UNK         0.0600 
    217 H217       -1.7198  -26.3600  -53.1654 H         1 UNK         0.0600 
    218 H218       -2.3847  -26.0560  -54.7653 H         1 UNK         0.0600 
    219 H219       -3.1182  -27.2723  -53.7295 H         1 UNK         0.0600 
    220 H220       -1.8846  -24.2535  -51.5175 H         1 UNK         0.3000 
    221 H221       -1.0269  -21.9347  -53.0052 H         1 UNK         0.0600 
    222 H222        0.4887  -23.0337  -51.4249 H         1 UNK         0.0600 
    223 H223       -0.6267  -22.7581  -50.0931 H         1 UNK         0.0600 
    224 H224        0.1819  -21.3964  -50.8644 H         1 UNK         0.0600 
    225 H225       -3.4168  -22.4910  -50.4186 H         1 UNK         0.3000 
    226 H226       -4.1243  -19.7496  -49.9852 H         1 UNK         0.0600 
    227 H227       -5.7094  -22.3276  -49.4958 H         1 UNK         0.0600 
    228 H228       -4.6754  -21.4960  -48.3361 H         1 UNK         0.0600 
    229 H229       -6.1532  -20.7351  -48.8982 H         1 UNK         0.0600 
    230 H230       -5.5197  -22.3052  -52.1162 H         1 UNK         0.3000 
    231 H231       -7.5199  -20.6972  -53.3145 H         1 UNK         0.0600 
    232 H232       -6.0805  -23.1897  -54.3653 H         1 UNK         0.0600 
    233 H233       -7.5692  -22.5233  -55.0265 H         1 UNK         0.0600 
    234 H234       -7.5499  -23.1669  -53.3920 H         1 UNK         0.0600 
    235 H235       -4.1030  -21.2537  -54.2434 H         1 UNK         0.3000 
    236 H236       -4.1541  -19.7631  -56.6716 H         1 UNK         0.0600 
    237 H237       -2.3512  -21.3703  -56.1234 H         1 UNK         0.0600 
    238 H238       -1.6721  -19.7778  -56.4209 H         1 UNK         0.0600 
    239 H239       -1.8278  -20.3673  -54.7715 H         1 UNK         0.0600 
    240 H240       -3.4998  -18.7941  -53.2829 H         1 UNK         0.3000 
    241 H241       -2.9700  -16.0456  -53.8841 H         1 UNK         0.0600 
    242 H242       -7.0628  -16.3598  -53.2446 H         1 UNK         0.3800 
    243 H243       -6.0378  -17.6763  -52.7139 H         1 UNK         0.3800 
    244 H244       -2.3557  -17.3550  -51.7204 H         1 UNK         0.0800 
    245 H245       -3.9790  -17.0482  -51.1779 H         1 UNK         0.0800 
    246 H246       -0.4563  -14.3717  -50.6961 H         1 UNK         0.0800 
    247 H247       -0.4790  -16.0108  -51.2896 H         1 UNK         0.0800 
@<TRIPOS>BOND
     1    1    2 1    
     2    1  127 1    
     3    1  128 1    
     4    1  129 1    
     5    2    3 2    
     6    2    4 am   BACKBONE|DICT|INTERRES
     7    4    5 1    
     8    4  130 1    
     9    5    6 1    
    10    5   65 1    
    11    5  131 1    
    12    6    7 1    
    13    6  132 1    
    14    6  133 1    
    15    7    8 1    
    16    8    9 1    
    17    8  134 1    
    18    8  135 1    
    19    9   10 ar   
    20    9   14 ar   
    21   10   11 ar   
    22   10  136 1    
    23   11   12 ar   
    24   11  126 1    
    25   12   13 ar   
    26   12  137 1    
    27   13   14 ar   
    28   13   15 1    
    29   14  138 1    
    30   15   16 1    
    31   15  139 1    
    32   15  140 1    
    33   16   17 1    
    34   17   18 1    
    35   17  141 1    
    36   17  142 1    
    37   18   19 1    
    38   18   67 1    
    39   18  143 1    
    40   19   20 am   BACKBONE|DICT|INTERRES
    41   19  144 1    
    42   20   21 2    
    43   20   22 1    
    44   22   23 1    
    45   22   24 1    
    46   22  145 1    
    47   23  146 1    
    48   23  147 1    
    49   23  148 1    
    50   24   25 am   BACKBONE|DICT|INTERRES
    51   24  149 1    
    52   25   26 2    
    53   25   27 1    
    54   27   28 1    
    55   27   29 1    
    56   27  150 1    
    57   28  151 1    
    58   28  152 1    
    59   28  153 1    
    60   29   30 am   BACKBONE|DICT|INTERRES
    61   29  154 1    
    62   30   31 2    
    63   30   32 1    
    64   32   33 1    
    65   32   34 1    
    66   32  155 1    
    67   33  156 1    
    68   33  157 1    
    69   33  158 1    
    70   34   35 am   BACKBONE|DICT|INTERRES
    71   34  159 1    
    72   35   36 2    
    73   35   37 1    
    74   37   38 1    
    75   37   39 1    
    76   37  160 1    
    77   38  161 1    
    78   38  162 1    
    79   38  163 1    
    80   39   40 am   BACKBONE|DICT|INTERRES
    81   39  164 1    
    82   40   41 2    
    83   40   42 1    
    84   42   43 1    
    85   42   44 1    
    86   42  165 1    
    87   43  166 1    
    88   43  167 1    
    89   43  168 1    
    90   44   45 am   BACKBONE|DICT|INTERRES
    91   44  169 1    
    92   45   46 2    
    93   45   47 1    
    94   47   48 1    
    95   47   49 1    
    96   47  170 1    
    97   48  171 1    
    98   48  172 1    
    99   48  173 1    
   100   49   50 am   BACKBONE|DICT|INTERRES
   101   49  174 1    
   102   50   51 2    
   103   50   52 1    
   104   52   53 1    
   105   52   54 1    
   106   52  175 1    
   107   53  176 1    
   108   53  177 1    
   109   53  178 1    
   110   54   55 am   BACKBONE|DICT|INTERRES
   111   54  179 1    
   112   55   56 2    
   113   55   57 1    
   114   57   58 1    
   115   57   59 1    
   116   57  180 1    
   117   58  181 1    
   118   58  182 1    
   119   58  183 1    
   120   59   60 am   BACKBONE|DICT|INTERRES
   121   59  184 1    
   122   60   61 2    
   123   60   62 1    
   124   62   63 1    
   125   62   64 1    
   126   62  185 1    
   127   63  186 1    
   128   63  187 1    
   129   63  188 1    
   130   64   65 am   BACKBONE|DICT|INTERRES
   131   64  189 1    
   132   65   66 2    
   133   67   68 2    
   134   67   69 am   BACKBONE|DICT|INTERRES
   135   69   70 1    
   136   69  190 1    
   137   70   71 1    
   138   70   72 1    
   139   70  191 1    
   140   71  192 1    
   141   71  193 1    
   142   71  194 1    
   143   72   73 2    
   144   72   74 am   BACKBONE|DICT|INTERRES
   145   74   75 1    
   146   74  195 1    
   147   75   76 1    
   148   75   77 1    
   149   75  196 1    
   150   76  197 1    
   151   76  198 1    
   152   76  199 1    
   153   77   78 2    
   154   77   79 am   BACKBONE|DICT|INTERRES
   155   79   80 1    
   156   79  200 1    
   157   80   81 1    
   158   80   82 1    
   159   80  201 1    
   160   81  202 1    
   161   81  203 1    
   162   81  204 1    
   163   82   83 2    
   164   82   84 am   BACKBONE|DICT|INTERRES
   165   84   85 1    
   166   84  205 1    
   167   85   86 1    
   168   85   87 1    
   169   85  206 1    
   170   86  207 1    
   171   86  208 1    
   172   86  209 1    
   173   87   88 2    
   174   87   89 am   BACKBONE|DICT|INTERRES
   175   89   90 1    
   176   89  210 1    
   177   90   91 1    
   178   90   92 1    
   179   90  211 1    
   180   91  212 1    
   181   91  213 1    
   182   91  214 1    
   183   92   93 2    
   184   92   94 am   BACKBONE|DICT|INTERRES
   185   94   95 1    
   186   94  215 1    
   187   95   96 1    
   188   95   97 1    
   189   95  216 1    
   190   96  217 1    
   191   96  218 1    
   192   96  219 1    
   193   97   98 2    
   194   97   99 am   BACKBONE|DICT|INTERRES
   195   99  100 1    
   196   99  220 1    
   197  100  101 1    
   198  100  102 1    
   199  100  221 1    
   200  101  222 1    
   201  101  223 1    
   202  101  224 1    
   203  102  103 2    
   204  102  104 am   BACKBONE|DICT|INTERRES
   205  104  105 1    
   206  104  225 1    
   207  105  106 1    
   208  105  107 1    
   209  105  226 1    
   210  106  227 1    
   211  106  228 1    
   212  106  229 1    
   213  107  108 2    
   214  107  109 am   BACKBONE|DICT|INTERRES
   215  109  110 1    
   216  109  230 1    
   217  110  111 1    
   218  110  112 1    
   219  110  231 1    
   220  111  232 1    
   221  111  233 1    
   222  111  234 1    
   223  112  113 2    
   224  112  114 am   BACKBONE|DICT|INTERRES
   225  114  115 1    
   226  114  235 1    
   227  115  116 1    
   228  115  117 1    
   229  115  236 1    
   230  116  237 1    
   231  116  238 1    
   232  116  239 1    
   233  117  118 2    
   234  117  119 am   BACKBONE|DICT|INTERRES
   235  119  120 1    
   236  119  240 1    
   237  120  121 1    
   238  120  124 1    
   239  120  241 1    
   240  121  122 am   BACKBONE|DICT|INTERRES
   241  121  123 2    
   242  122  242 1    
   243  122  243 1    
   244  124  125 1    
   245  124  244 1    
   246  124  245 1    
   247  125  126 1    
   248  126  246 1    
   249  126  247 1    
@<TRIPOS>SUBSTRUCTURE
     1 UNK         1 GROUP             0       ****    0 ROOT    
