@<TRIPOS>MOLECULE
3R540
247   249    1
SMALL
USER_CHARGES


@<TRIPOS>ATOM
      1 CA         -4.7752   -9.2752  -44.1628 C.3       0 UNK        -0.1800 
      2 C          -3.9625   -9.8097  -45.3341 C.2       0 UNK         0.5000 
      3 O          -4.4092   -9.7260  -46.4784 O.2       0 UNK        -0.5000 
      4 N          -2.7748  -10.3552  -45.0540 N.am      1 UNK        -0.5000 
      5 CA         -1.8404  -10.8876  -46.0442 C.3       1 UNK         0.1400 
      6 C6         -2.2826  -12.2657  -46.6052 C.3       23 UNK        -0.0398 
      7 S7         -1.1726  -12.9232  -47.8931 S.3       23 UNK        -0.2404 
      8 C8         -2.1800  -14.2993  -48.5204 C.3       23 UNK        -0.0205 
      9 C9         -1.3366  -15.2586  -49.3427 C.ar      23 UNK        -0.0193 
     10 C10        -1.3460  -15.2043  -50.7384 C.ar      23 UNK        -0.1150 
     11 C11        -0.5790  -16.1019  -51.4918 C.ar      23 UNK        -0.0193 
     12 C12         0.2283  -17.0344  -50.8302 C.ar      23 UNK        -0.1150 
     13 C13         0.2569  -17.0857  -49.4337 C.ar      23 UNK        -0.0193 
     14 C14        -0.5384  -16.2051  -48.6993 C.ar      23 UNK        -0.1150 
     15 C15         1.1702  -18.0614  -48.7075 C.3       23 UNK        -0.0205 
     16 S16         0.6451  -19.7933  -48.8864 S.3       23 UNK        -0.2404 
     17 C17        -1.0214  -19.7659  -48.1487 C.3       23 UNK        -0.0398 
     18 CA         -1.3311  -21.0813  -47.3981 C.3       11 UNK         0.1400 
     19 N          -0.5545  -21.2366  -46.1621 N.am      11 UNK        -0.5000 
     20 C          -0.4445  -22.3894  -45.4850 C.2       10 UNK         0.5000 
     21 O          -0.9426  -23.4493  -45.8601 O.2       10 UNK        -0.5000 
     22 CA          0.2854  -22.3415  -44.1313 C.3       10 UNK         0.1400 
     23 CB          1.8021  -22.4732  -44.3099 C.3       10 UNK        -0.1800 
     24 N          -0.0305  -21.1242  -43.3835 N.am      10 UNK        -0.5000 
     25 C          -1.2306  -20.9046  -42.8260 C.2       9 UNK         0.5000 
     26 O          -2.1570  -21.7132  -42.8714 O.2       9 UNK        -0.5000 
     27 CA         -1.4609  -19.5519  -42.1340 C.3       9 UNK         0.1400 
     28 CB         -1.1488  -19.6612  -40.6354 C.3       9 UNK        -0.1800 
     29 N          -0.7048  -18.4507  -42.7336 N.am      9 UNK        -0.5000 
     30 C          -0.9183  -17.9828  -43.9731 C.2       8 UNK         0.5000 
     31 O          -1.7124  -18.5082  -44.7565 O.2       8 UNK        -0.5000 
     32 CA         -0.1119  -16.7584  -44.4546 C.3       8 UNK         0.1400 
     33 CB         -1.0407  -15.6300  -44.9508 C.3       8 UNK        -0.1800 
     34 N           0.8864  -16.2559  -43.5043 N.am      8 UNK        -0.5000 
     35 C           0.7020  -15.6184  -42.3393 C.2       7 UNK         0.5000 
     36 O          -0.3958  -15.2720  -41.9034 O.2       7 UNK        -0.5000 
     37 CA          1.9852  -15.3696  -41.5162 C.3       7 UNK         0.1400 
     38 CB          1.7016  -14.9362  -40.0625 C.3       7 UNK        -0.1800 
     39 N           2.8963  -16.5245  -41.5613 N.am      7 UNK        -0.5000 
     40 C           2.6225  -17.7643  -41.1277 C.2       6 UNK         0.5000 
     41 O           1.5627  -18.0680  -40.5823 O.2       6 UNK        -0.5000 
     42 CA          3.6971  -18.8430  -41.3741 C.3       6 UNK         0.1400 
     43 CB          3.2106  -20.2633  -41.0126 C.3       6 UNK        -0.1800 
     44 N           4.2381  -18.8238  -42.7373 N.am      6 UNK        -0.5000 
     45 C           3.5777  -19.0153  -43.8877 C.2       5 UNK         0.5000 
     46 O           2.3544  -19.1588  -43.9653 O.2       5 UNK        -0.5000 
     47 CA          4.4545  -19.0252  -45.1614 C.3       5 UNK         0.1400 
     48 CB          3.7075  -19.5305  -46.4070 C.3       5 UNK        -0.1800 
     49 N           4.9799  -17.6931  -45.4514 N.am      5 UNK        -0.5000 
     50 C           5.9837  -17.0870  -44.8044 C.2       4 UNK         0.5000 
     51 O           6.6414  -17.6284  -43.9141 O.2       4 UNK        -0.5000 
     52 CA          6.2897  -15.6243  -45.1912 C.3       4 UNK         0.1400 
     53 CB          7.5152  -15.5628  -46.1159 C.3       4 UNK        -0.1800 
     54 N           5.1799  -14.8991  -45.8252 N.am      4 UNK        -0.5000 
     55 C           3.9746  -14.6928  -45.2783 C.2       3 UNK         0.5000 
     56 O           3.6211  -15.1859  -44.2061 O.2       3 UNK        -0.5000 
     57 CA          2.9842  -13.8440  -46.0980 C.3       3 UNK         0.1400 
     58 CB          2.3005  -14.7173  -47.1608 C.3       3 UNK        -0.1800 
     59 N           1.9510  -13.2227  -45.2664 N.am      3 UNK        -0.5000 
     60 C           2.1694  -12.3008  -44.3181 C.2       2 UNK         0.5000 
     61 O           3.2798  -11.8256  -44.0726 O.2       2 UNK        -0.5000 
     62 CA          0.9303  -11.8376  -43.5171 C.3       2 UNK         0.1400 
     63 CB          1.1868  -10.5554  -42.6980 C.3       2 UNK        -0.1800 
     64 N          -0.2836  -11.6933  -44.3333 N.am      2 UNK        -0.5000 
     65 C          -0.4422  -10.8955  -45.4034 C.2       1 UNK         0.5000 
     66 O           0.4347  -10.1576  -45.8545 O.2       1 UNK        -0.5000 
     67 C          -2.8424  -21.2183  -47.1332 C.2       11 UNK         0.5000 
     68 O          -3.5389  -21.8337  -47.9408 O.2       11 UNK        -0.5000 
     69 N          -3.3172  -20.6856  -45.9973 N.am      12 UNK        -0.5000 
     70 CA         -4.6978  -20.8328  -45.5354 C.3       12 UNK         0.1400 
     71 CB         -4.9414  -19.9277  -44.3191 C.3       12 UNK        -0.1800 
     72 C          -5.0557  -22.2978  -45.2207 C.2       12 UNK         0.5000 
     73 O          -6.0976  -22.7736  -45.6712 O.2       12 UNK        -0.5000 
     74 N          -4.1654  -23.0020  -44.5057 N.am      13 UNK        -0.5000 
     75 CA         -4.2867  -24.4283  -44.1878 C.3       13 UNK         0.1400 
     76 CB         -3.1858  -24.8276  -43.1940 C.3       13 UNK        -0.1800 
     77 C          -4.2444  -25.3327  -45.4347 C.2       13 UNK         0.5000 
     78 O          -4.9671  -26.3280  -45.4895 O.2       13 UNK        -0.5000 
     79 N          -3.4298  -24.9491  -46.4266 N.am      14 UNK        -0.5000 
     80 CA         -3.3301  -25.5950  -47.7373 C.3       14 UNK         0.1400 
     81 CB         -1.9928  -25.1945  -48.3784 C.3       14 UNK        -0.1800 
     82 C          -4.5086  -25.2704  -48.6822 C.2       14 UNK         0.5000 
     83 O          -4.5833  -25.8547  -49.7630 O.2       14 UNK        -0.5000 
     84 N          -5.3967  -24.3541  -48.2676 N.am      15 UNK        -0.5000 
     85 CA         -6.5794  -23.8632  -48.9784 C.3       15 UNK         0.1400 
     86 CB         -7.6337  -24.9776  -49.1439 C.3       15 UNK        -0.1800 
     87 C          -6.2411  -23.1172  -50.2860 C.2       15 UNK         0.5000 
     88 O          -6.9681  -23.2396  -51.2747 O.2       15 UNK        -0.5000 
     89 N          -5.1558  -22.3284  -50.2406 N.am      16 UNK        -0.5000 
     90 CA         -4.6817  -21.3774  -51.2485 C.3       16 UNK         0.1400 
     91 CB         -5.5384  -20.0944  -51.1893 C.3       16 UNK        -0.1800 
     92 C          -4.5790  -21.9887  -52.6607 C.2       16 UNK         0.5000 
     93 O          -3.6419  -22.7428  -52.9319 O.2       16 UNK        -0.5000 
     94 N          -5.5539  -21.6728  -53.5254 N.am      17 UNK        -0.5000 
     95 CA         -5.6706  -22.1278  -54.9121 C.3       17 UNK         0.1400 
     96 CB         -6.9327  -21.5144  -55.5368 C.3       17 UNK        -0.1800 
     97 C          -5.6887  -23.6583  -55.0813 C.2       17 UNK         0.5000 
     98 O          -5.2419  -24.1471  -56.1189 O.2       17 UNK        -0.5000 
     99 N          -6.1422  -24.3918  -54.0537 N.am      18 UNK        -0.5000 
    100 CA        -6.1149  -25.8570  -54.0023 C.3       18 UNK         0.1400 
    101 CB        -6.8803  -26.3286  -52.7596 C.3       18 UNK        -0.1800 
    102 C         -4.6886  -26.4477  -54.0078 C.2       18 UNK         0.5000 
    103 O         -4.5072  -27.5807  -54.4548 O.2       18 UNK        -0.5000 
    104 N         -3.7082  -25.6636  -53.5416 N.am      19 UNK        -0.5000 
    105 CA        -2.2796  -25.9770  -53.5586 C.3       19 UNK         0.1400 
    106 CB        -1.7376  -25.8160  -52.1305 C.3       19 UNK        -0.1800 
    107 C         -1.5155  -25.0818  -54.5561 C.2       19 UNK         0.5000 
    108 O         -0.2850  -25.0491  -54.5180 O.2       19 UNK        -0.5000 
    109 N         -2.2523  -24.3622  -55.4179 N.am      20 UNK        -0.5000 
    110 CA        -1.7857  -23.3933  -56.4162 C.3       20 UNK         0.1400 
    111 CB        -0.9200  -24.0809  -57.4923 C.3       20 UNK        -0.1800 
    112 C         -1.1064  -22.1402  -55.8195 C.2       20 UNK         0.5000 
    113 O         -0.4151  -21.4205  -56.5432 O.2       20 UNK        -0.5000 
    114 N         -1.3351  -21.8636  -54.5285 N.am      21 UNK        -0.5000 
    115 CA        -0.8532  -20.6748  -53.8303 C.3       21 UNK         0.1400 
    116 CB        -0.6512  -21.0032  -52.3405 C.3       21 UNK        -0.1800 
    117 C         -1.8390  -19.5177  -54.0631 C.2       21 UNK         0.5000 
    118 O         -2.6579  -19.2237  -53.1921 O.2       21 UNK        -0.5000 
    119 N         -1.7698  -18.9486  -55.2743 N.am      22 UNK        -0.5000 
    120 CA        -2.5283  -17.8216  -55.8600 C.3       22 UNK         0.1400 
    121 C         -4.0873  -17.8727  -55.8291 C.2       22 UNK         0.5000 
    122 N         -4.7164  -18.6373  -54.9518 N.am      22 UNK        -0.7600 
    123 O         -4.7361  -17.2202  -56.6426 O.2       22 UNK        -0.5000 
    124 C124       -1.9788  -16.4275  -55.4462 C.3       23 UNK        -0.0398 
    125 S125       -2.2779  -15.9671  -53.7042 S.3       23 UNK        -0.2404 
    126 C126       -0.5923  -16.0574  -53.0157 C.3       23 UNK        -0.0205 
    127 H127       -4.2635   -9.4245  -43.2118 H         1 UNK         0.0600 
    128 H128       -5.7391   -9.7815  -44.1128 H         1 UNK         0.0600 
    129 H129       -4.9559   -8.2076  -44.2877 H         1 UNK         0.0600 
    130 H130       -2.4392  -10.3544  -44.1001 H         1 UNK         0.3000 
    131 H131       -1.7997  -10.1834  -46.8787 H         1 UNK         0.0600 
    132 H132       -3.2788  -12.1783  -47.0406 H         1 UNK         0.0800 
    133 H133       -2.3705  -13.0017  -45.8051 H         1 UNK         0.0800 
    134 H134       -3.0041  -13.9030  -49.1158 H         1 UNK         0.0800 
    135 H135       -2.6324  -14.8380  -47.6868 H         1 UNK         0.0800 
    136 H136       -1.9577  -14.4676  -51.2397 H         1 UNK         0.1150 
    137 H137        0.8412  -17.7201  -51.3982 H         1 UNK         0.1150 
    138 H138       -0.5191  -16.2398  -47.6218 H         1 UNK         0.1150 
    139 H139        1.2177  -17.8138  -47.6474 H         1 UNK         0.0800 
    140 H140        2.1853  -17.9572  -49.0928 H         1 UNK         0.0800 
    141 H141       -1.7274  -19.6047  -48.9663 H         1 UNK         0.0800 
    142 H142       -1.1248  -18.9102  -47.4795 H         1 UNK         0.0800 
    143 H143       -1.0611  -21.9080  -48.0590 H         1 UNK         0.0600 
    144 H144       -0.1445  -20.4011  -45.7720 H         1 UNK         0.3000 
    145 H145       -0.0515  -23.1984  -43.5437 H         1 UNK         0.0600 
    146 H146        2.2008  -21.6548  -44.9031 H         1 UNK         0.0600 
    147 H147        2.0558  -23.4031  -44.8202 H         1 UNK         0.0600 
    148 H148        2.3168  -22.4753  -43.3491 H         1 UNK         0.0600 
    149 H149        0.6788  -20.3998  -43.3493 H         1 UNK         0.3000 
    150 H150       -2.5196  -19.3058  -42.2331 H         1 UNK         0.0600 
    151 H151       -0.1337  -20.0184  -40.4605 H         1 UNK         0.0600 
    152 H152       -1.8261  -20.3651  -40.1504 H         1 UNK         0.0600 
    153 H153       -1.2621  -18.7004  -40.1329 H         1 UNK         0.0600 
    154 H154       -0.0035  -18.0112  -42.1502 H         1 UNK         0.3000 
    155 H155        0.4587  -17.1147  -45.3127 H         1 UNK         0.0600 
    156 H156       -1.6392  -15.2039  -44.1464 H         1 UNK         0.0600 
    157 H157       -1.7442  -16.0009  -45.6962 H         1 UNK         0.0600 
    158 H158       -0.4735  -14.8244  -45.4136 H         1 UNK         0.0600 
    159 H159        1.8473  -16.4736  -43.7405 H         1 UNK         0.3000 
    160 H160        2.5040  -14.5400  -41.9964 H         1 UNK         0.0600 
    161 H161        1.1159  -15.6789  -39.5203 H         1 UNK         0.0600 
    162 H162        1.1417  -14.0006  -40.0384 H         1 UNK         0.0600 
    163 H163        2.6283  -14.7728  -39.5125 H         1 UNK         0.0600 
    164 H164        3.7622  -16.3697  -42.0606 H         1 UNK         0.3000 
    165 H165        4.5278  -18.6011  -40.7098 H         1 UNK         0.0600 
    166 H166        2.9249  -20.3229  -39.9618 H         1 UNK         0.0600 
    167 H167        2.3423  -20.5576  -41.6025 H         1 UNK         0.0600 
    168 H168        3.9937  -21.0032  -41.1774 H         1 UNK         0.0600 
    169 H169        5.2322  -18.6329  -42.8125 H         1 UNK         0.3000 
    170 H170        5.2953  -19.6995  -44.9849 H         1 UNK         0.0600 
    171 H171        4.2957  -19.3833  -47.3130 H         1 UNK         0.0600 
    172 H172        3.5035  -20.5972  -46.3369 H         1 UNK         0.0600 
    173 H173        2.7561  -19.0203  -46.5395 H         1 UNK         0.0600 
    174 H174        4.4825  -17.1573  -46.1460 H         1 UNK         0.3000 
    175 H175        6.5341  -15.0973  -44.2668 H         1 UNK         0.0600 
    176 H176        8.3721  -16.0659  -45.6656 H         1 UNK         0.0600 
    177 H177        7.3189  -16.0440  -47.0749 H         1 UNK         0.0600 
    178 H178        7.8127  -14.5322  -46.3105 H         1 UNK         0.0600 
    179 H179        5.3819  -14.4821  -46.7226 H         1 UNK         0.3000 
    180 H180        3.5398  -13.0475  -46.5970 H         1 UNK         0.0600 
    181 H181        1.7206  -15.5193  -46.7054 H         1 UNK         0.0600 
    182 H182        3.0308  -15.1788  -47.8265 H         1 UNK         0.0600 
    183 H183        1.6282  -14.1284  -47.7845 H         1 UNK         0.0600 
    184 H184        1.0076  -13.5472  -45.4077 H         1 UNK         0.3000 
    185 H185        0.7211  -12.6356  -42.8044 H         1 UNK         0.0600 
    186 H186        2.0037  -10.6996  -41.9899 H         1 UNK         0.0600 
    187 H187        1.4528   -9.7128  -43.3369 H         1 UNK         0.0600 
    188 H188        0.3064  -10.2737  -42.1205 H         1 UNK         0.0600 
    189 H189       -1.0655  -12.2621  -44.0405 H         1 UNK         0.3000 
    190 H190       -2.6931  -20.1388  -45.4126 H         1 UNK         0.3000 
    191 H191       -5.3529  -20.4956  -46.3416 H         1 UNK         0.0600 
    192 H192       -4.6921  -18.8899  -44.5416 H         1 UNK         0.0600 
    193 H193       -5.9897  -19.9549  -44.0196 H         1 UNK         0.0600 
    194 H194       -4.3495  -20.2377  -43.4589 H         1 UNK         0.0600 
    195 H195       -3.3540  -22.5235  -44.1232 H         1 UNK         0.3000 
    196 H196       -5.2533  -24.5796  -43.7031 H         1 UNK         0.0600 
    197 H197       -2.1910  -24.6645  -43.6098 H         1 UNK         0.0600 
    198 H198       -3.2625  -25.8824  -42.9272 H         1 UNK         0.0600 
    199 H199       -3.2609  -24.2526  -42.2710 H         1 UNK         0.0600 
    200 H200       -2.8109  -24.1607  -46.2686 H         1 UNK         0.3000 
    201 H201       -3.3229  -26.6765  -47.5877 H         1 UNK         0.0600 
    202 H202       -1.9622  -24.1306  -48.6142 H         1 UNK         0.0600 
    203 H203       -1.1542  -25.4194  -47.7194 H         1 UNK         0.0600 
    204 H204       -1.8239  -25.7429  -49.3028 H         1 UNK         0.0600 
    205 H205       -5.2327  -23.9203  -47.3679 H         1 UNK         0.3000 
    206 H206       -7.0202  -23.1074  -48.3271 H         1 UNK         0.0600 
    207 H207       -7.9205  -25.3873  -48.1755 H         1 UNK         0.0600 
    208 H208       -8.5410  -24.5960  -49.6134 H         1 UNK         0.0600 
    209 H209       -7.2698  -25.8015  -49.7554 H         1 UNK         0.0600 
    210 H210       -4.6158  -22.3260  -49.3774 H         1 UNK         0.3000 
    211 H211       -3.6679  -21.1027  -50.9572 H         1 UNK         0.0600 
    212 H212       -5.4607  -19.6253  -50.2083 H         1 UNK         0.0600 
    213 H213       -5.1995  -19.3591  -51.9203 H         1 UNK         0.0600 
    214 H214       -6.5947  -20.2921  -51.3744 H         1 UNK         0.0600 
    215 H215       -6.3055  -21.0913  -53.1856 H         1 UNK         0.3000 
    216 H216       -4.7998  -21.7496  -55.4515 H         1 UNK         0.0600 
    217 H217       -7.8347  -21.8335  -55.0130 H         1 UNK         0.0600 
    218 H218       -7.0366  -21.8128  -56.5809 H         1 UNK         0.0600 
    219 H219       -6.9005  -20.4258  -55.5162 H         1 UNK         0.0600 
    220 H220       -6.4688  -23.9136  -53.2198 H         1 UNK         0.3000 
    221 H221       -6.6325  -26.2320  -54.8876 H         1 UNK         0.0600 
    222 H222       -6.3754  -26.0096  -51.8485 H         1 UNK         0.0600 
    223 H223       -7.8955  -25.9321  -52.7400 H         1 UNK         0.0600 
    224 H224       -6.9513  -27.4165  -52.7317 H         1 UNK         0.0600 
    225 H225       -3.9432  -24.7358  -53.2029 H         1 UNK         0.3000 
    226 H226       -2.1155  -27.0100  -53.8708 H         1 UNK         0.0600 
    227 H227       -2.2622  -26.4838  -51.4475 H         1 UNK         0.0600 
    228 H228       -0.6770  -26.0636  -52.0745 H         1 UNK         0.0600 
    229 H229       -1.8613  -24.7951  -51.7659 H         1 UNK         0.0600 
    230 H230       -3.2572  -24.4831  -55.3834 H         1 UNK         0.3000 
    231 H231       -2.6860  -23.0278  -56.9118 H         1 UNK         0.0600 
    232 H232        0.0415  -24.4057  -57.0942 H         1 UNK         0.0600 
    233 H233       -0.7157  -23.4039  -58.3225 H         1 UNK         0.0600 
    234 H234       -1.4251  -24.9538  -57.9060 H         1 UNK         0.0600 
    235 H235       -1.9830  -22.4487  -54.0105 H         1 UNK         0.3000 
    236 H236        0.1182  -20.3759  -54.2303 H         1 UNK         0.0600 
    237 H237       -1.5593  -21.3823  -51.8757 H         1 UNK         0.0600 
    238 H238        0.1262  -21.7555  -52.2071 H         1 UNK         0.0600 
    239 H239       -0.3447  -20.1157  -51.7860 H         1 UNK         0.0600 
    240 H240       -1.1095  -19.3715  -55.9152 H         1 UNK         0.3000 
    241 H241       -2.3009  -17.9158  -56.9227 H         1 UNK         0.0600 
    242 H242       -5.7217  -18.6525  -54.9285 H         1 UNK         0.3800 
    243 H243       -4.1638  -19.0596  -54.2105 H         1 UNK         0.3800 
    244 H244       -2.4253  -15.6531  -56.0723 H         1 UNK         0.0800 
    245 H245       -0.9098  -16.3795  -55.6566 H         1 UNK         0.0800 
    246 H246       -0.0179  -15.1942  -53.3537 H         1 UNK         0.0800 
    247 H247       -0.0969  -16.9424  -53.4179 H         1 UNK         0.0800 
@<TRIPOS>BOND
     1    1    2 1    
     2    1  127 1    
     3    1  128 1    
     4    1  129 1    
     5    2    3 2    
     6    2    4 am   BACKBONE|DICT|INTERRES
     7    4    5 1    
     8    4  130 1    
     9    5    6 1    
    10    5   65 1    
    11    5  131 1    
    12    6    7 1    
    13    6  132 1    
    14    6  133 1    
    15    7    8 1    
    16    8    9 1    
    17    8  134 1    
    18    8  135 1    
    19    9   10 ar   
    20    9   14 ar   
    21   10   11 ar   
    22   10  136 1    
    23   11   12 ar   
    24   11  126 1    
    25   12   13 ar   
    26   12  137 1    
    27   13   14 ar   
    28   13   15 1    
    29   14  138 1    
    30   15   16 1    
    31   15  139 1    
    32   15  140 1    
    33   16   17 1    
    34   17   18 1    
    35   17  141 1    
    36   17  142 1    
    37   18   19 1    
    38   18   67 1    
    39   18  143 1    
    40   19   20 am   BACKBONE|DICT|INTERRES
    41   19  144 1    
    42   20   21 2    
    43   20   22 1    
    44   22   23 1    
    45   22   24 1    
    46   22  145 1    
    47   23  146 1    
    48   23  147 1    
    49   23  148 1    
    50   24   25 am   BACKBONE|DICT|INTERRES
    51   24  149 1    
    52   25   26 2    
    53   25   27 1    
    54   27   28 1    
    55   27   29 1    
    56   27  150 1    
    57   28  151 1    
    58   28  152 1    
    59   28  153 1    
    60   29   30 am   BACKBONE|DICT|INTERRES
    61   29  154 1    
    62   30   31 2    
    63   30   32 1    
    64   32   33 1    
    65   32   34 1    
    66   32  155 1    
    67   33  156 1    
    68   33  157 1    
    69   33  158 1    
    70   34   35 am   BACKBONE|DICT|INTERRES
    71   34  159 1    
    72   35   36 2    
    73   35   37 1    
    74   37   38 1    
    75   37   39 1    
    76   37  160 1    
    77   38  161 1    
    78   38  162 1    
    79   38  163 1    
    80   39   40 am   BACKBONE|DICT|INTERRES
    81   39  164 1    
    82   40   41 2    
    83   40   42 1    
    84   42   43 1    
    85   42   44 1    
    86   42  165 1    
    87   43  166 1    
    88   43  167 1    
    89   43  168 1    
    90   44   45 am   BACKBONE|DICT|INTERRES
    91   44  169 1    
    92   45   46 2    
    93   45   47 1    
    94   47   48 1    
    95   47   49 1    
    96   47  170 1    
    97   48  171 1    
    98   48  172 1    
    99   48  173 1    
   100   49   50 am   BACKBONE|DICT|INTERRES
   101   49  174 1    
   102   50   51 2    
   103   50   52 1    
   104   52   53 1    
   105   52   54 1    
   106   52  175 1    
   107   53  176 1    
   108   53  177 1    
   109   53  178 1    
   110   54   55 am   BACKBONE|DICT|INTERRES
   111   54  179 1    
   112   55   56 2    
   113   55   57 1    
   114   57   58 1    
   115   57   59 1    
   116   57  180 1    
   117   58  181 1    
   118   58  182 1    
   119   58  183 1    
   120   59   60 am   BACKBONE|DICT|INTERRES
   121   59  184 1    
   122   60   61 2    
   123   60   62 1    
   124   62   63 1    
   125   62   64 1    
   126   62  185 1    
   127   63  186 1    
   128   63  187 1    
   129   63  188 1    
   130   64   65 am   BACKBONE|DICT|INTERRES
   131   64  189 1    
   132   65   66 2    
   133   67   68 2    
   134   67   69 am   BACKBONE|DICT|INTERRES
   135   69   70 1    
   136   69  190 1    
   137   70   71 1    
   138   70   72 1    
   139   70  191 1    
   140   71  192 1    
   141   71  193 1    
   142   71  194 1    
   143   72   73 2    
   144   72   74 am   BACKBONE|DICT|INTERRES
   145   74   75 1    
   146   74  195 1    
   147   75   76 1    
   148   75   77 1    
   149   75  196 1    
   150   76  197 1    
   151   76  198 1    
   152   76  199 1    
   153   77   78 2    
   154   77   79 am   BACKBONE|DICT|INTERRES
   155   79   80 1    
   156   79  200 1    
   157   80   81 1    
   158   80   82 1    
   159   80  201 1    
   160   81  202 1    
   161   81  203 1    
   162   81  204 1    
   163   82   83 2    
   164   82   84 am   BACKBONE|DICT|INTERRES
   165   84   85 1    
   166   84  205 1    
   167   85   86 1    
   168   85   87 1    
   169   85  206 1    
   170   86  207 1    
   171   86  208 1    
   172   86  209 1    
   173   87   88 2    
   174   87   89 am   BACKBONE|DICT|INTERRES
   175   89   90 1    
   176   89  210 1    
   177   90   91 1    
   178   90   92 1    
   179   90  211 1    
   180   91  212 1    
   181   91  213 1    
   182   91  214 1    
   183   92   93 2    
   184   92   94 am   BACKBONE|DICT|INTERRES
   185   94   95 1    
   186   94  215 1    
   187   95   96 1    
   188   95   97 1    
   189   95  216 1    
   190   96  217 1    
   191   96  218 1    
   192   96  219 1    
   193   97   98 2    
   194   97   99 am   BACKBONE|DICT|INTERRES
   195   99  100 1    
   196   99  220 1    
   197  100  101 1    
   198  100  102 1    
   199  100  221 1    
   200  101  222 1    
   201  101  223 1    
   202  101  224 1    
   203  102  103 2    
   204  102  104 am   BACKBONE|DICT|INTERRES
   205  104  105 1    
   206  104  225 1    
   207  105  106 1    
   208  105  107 1    
   209  105  226 1    
   210  106  227 1    
   211  106  228 1    
   212  106  229 1    
   213  107  108 2    
   214  107  109 am   BACKBONE|DICT|INTERRES
   215  109  110 1    
   216  109  230 1    
   217  110  111 1    
   218  110  112 1    
   219  110  231 1    
   220  111  232 1    
   221  111  233 1    
   222  111  234 1    
   223  112  113 2    
   224  112  114 am   BACKBONE|DICT|INTERRES
   225  114  115 1    
   226  114  235 1    
   227  115  116 1    
   228  115  117 1    
   229  115  236 1    
   230  116  237 1    
   231  116  238 1    
   232  116  239 1    
   233  117  118 2    
   234  117  119 am   BACKBONE|DICT|INTERRES
   235  119  120 1    
   236  119  240 1    
   237  120  121 1    
   238  120  124 1    
   239  120  241 1    
   240  121  122 am   BACKBONE|DICT|INTERRES
   241  121  123 2    
   242  122  242 1    
   243  122  243 1    
   244  124  125 1    
   245  124  244 1    
   246  124  245 1    
   247  125  126 1    
   248  126  246 1    
   249  126  247 1    
@<TRIPOS>SUBSTRUCTURE
     1 UNK         1 GROUP             0       ****    0 ROOT    
