@<TRIPOS>MOLECULE
3R540
247   249    1
SMALL
USER_CHARGES


@<TRIPOS>ATOM
      1 CA          6.2395  -14.7778  -45.8611 C.3       0 UNK        -0.1800 
      2 C           4.9290  -14.0680  -46.1604 C.2       0 UNK         0.5000 
      3 O           4.3588  -13.4360  -45.2703 O.2       0 UNK        -0.5000 
      4 N           4.4354  -14.1718  -47.4013 N.am      1 UNK        -0.5000 
      5 CA          3.1870  -13.5437  -47.8559 C.3       1 UNK         0.1400 
      6 C6          2.7291  -14.0594  -49.2401 C.3       23 UNK        -0.0398 
      7 S7          2.2927  -15.8297  -49.2284 S.3       23 UNK        -0.2404 
      8 C8          0.5801  -15.7528  -48.6156 C.3       23 UNK        -0.0205 
      9 C9         -0.2667  -16.8761  -49.1888 C.ar      23 UNK        -0.0193 
     10 C10        -0.8449  -16.7300  -50.4535 C.ar      23 UNK        -0.1150 
     11 C11        -1.6506  -17.7384  -50.9875 C.ar      23 UNK        -0.0193 
     12 C12        -1.8759  -18.8998  -50.2446 C.ar      23 UNK        -0.1150 
     13 C13        -1.3020  -19.0602  -48.9819 C.ar      23 UNK        -0.0193 
     14 C14        -0.4926  -18.0471  -48.4581 C.ar      23 UNK        -0.1150 
     15 C15        -1.5663  -20.3276  -48.1889 C.3       23 UNK        -0.0205 
     16 S16        -2.9544  -20.0877  -47.0343 S.3       23 UNK        -0.2404 
     17 C17        -3.3207  -21.7608  -46.3833 C.3       23 UNK        -0.0398 
     18 CA         -2.1317  -22.7477  -46.3020 C.3       11 UNK         0.1400 
     19 N          -1.0175  -22.1963  -45.5217 N.am      11 UNK        -0.5000 
     20 C           0.2229  -22.6979  -45.4512 C.2       10 UNK         0.5000 
     21 O           0.5578  -23.7577  -45.9781 O.2       10 UNK        -0.5000 
     22 CA          1.2556  -21.8952  -44.6456 C.3       10 UNK         0.1400 
     23 CB          2.1440  -21.0765  -45.5938 C.3       10 UNK        -0.1800 
     24 N           0.6249  -21.0051  -43.6685 N.am      10 UNK        -0.5000 
     25 C           0.1416  -21.4191  -42.4887 C.2       9 UNK         0.5000 
     26 O           0.1891  -22.5888  -42.1058 O.2       9 UNK        -0.5000 
     27 CA         -0.5253  -20.3568  -41.5980 C.3       9 UNK         0.1400 
     28 CB          0.5339  -19.4622  -40.9381 C.3       9 UNK        -0.1800 
     29 N          -1.4848  -19.5166  -42.3134 N.am      9 UNK        -0.5000 
     30 C          -2.6248  -19.9332  -42.8775 C.2       8 UNK         0.5000 
     31 O          -2.9799  -21.1116  -42.8967 O.2       8 UNK        -0.5000 
     32 CA         -3.5190  -18.8697  -43.5504 C.3       8 UNK         0.1400 
     33 CB         -4.4940  -18.2375  -42.5390 C.3       8 UNK        -0.1800 
     34 N          -2.7809  -17.8517  -44.3121 N.am      8 UNK        -0.5000 
     35 C          -1.9708  -16.8869  -43.8568 C.2       7 UNK         0.5000 
     36 O          -1.7642  -16.6596  -42.6631 O.2       7 UNK        -0.5000 
     37 CA         -1.2010  -16.0871  -44.9235 C.3       7 UNK         0.1400 
     38 CB         -1.6382  -14.6145  -44.9406 C.3       7 UNK        -0.1800 
     39 N           0.2435  -16.1541  -44.7026 N.am      7 UNK        -0.5000 
     40 C           0.9707  -17.2798  -44.6572 C.2       6 UNK         0.5000 
     41 O           0.4982  -18.4050  -44.8170 O.2       6 UNK        -0.5000 
     42 CA          2.4804  -17.1318  -44.4022 C.3       6 UNK         0.1400 
     43 CB          3.2526  -17.2609  -45.7222 C.3       6 UNK        -0.1800 
     44 N           2.8271  -15.8604  -43.7628 N.am      6 UNK        -0.5000 
     45 C           2.7075  -15.6216  -42.4490 C.2       5 UNK         0.5000 
     46 O           2.3180  -16.4556  -41.6326 O.2       5 UNK        -0.5000 
     47 CA          3.0783  -14.2101  -41.9705 C.3       5 UNK         0.1400 
     48 CB          4.5887  -14.1099  -41.7055 C.3       5 UNK        -0.1800 
     49 N           2.7039  -13.1960  -42.9522 N.am      5 UNK        -0.5000 
     50 C           1.5089  -12.5963  -43.0280 C.2       4 UNK         0.5000 
     51 O           0.5668  -12.8639  -42.2816 O.2       4 UNK        -0.5000 
     52 CA          1.3469  -11.5228  -44.1285 C.3       4 UNK         0.1400 
     53 CB          0.2781  -10.4647  -43.7872 C.3       4 UNK        -0.1800 
     54 N           2.6184  -10.8908  -44.5016 N.am      4 UNK        -0.5000 
     55 C           3.4446  -10.1771  -43.7186 C.2       3 UNK         0.5000 
     56 O           3.1717   -9.8305  -42.5689 O.2       3 UNK        -0.5000 
     57 CA          4.8341   -9.8333  -44.2934 C.3       3 UNK         0.1400 
     58 CB          5.9306  -10.5741  -43.5092 C.3       3 UNK        -0.1800 
     59 N           4.9602  -10.1966  -45.7053 N.am      3 UNK        -0.5000 
     60 C           4.6699   -9.3926  -46.7364 C.2       2 UNK         0.5000 
     61 O           4.3268   -8.2164  -46.6145 O.2       2 UNK        -0.5000 
     62 CA          4.7534  -10.0212  -48.1420 C.3       2 UNK         0.1400 
     63 CB          6.1406   -9.7819  -48.7568 C.3       2 UNK        -0.1800 
     64 N           4.4674  -11.4598  -48.1506 N.am      2 UNK        -0.5000 
     65 C           3.2752  -12.0041  -47.8645 C.2       1 UNK         0.5000 
     66 O           2.2795  -11.3444  -47.5689 O.2       1 UNK        -0.5000 
     67 C          -2.6043  -24.1338  -45.8121 C.2       11 UNK         0.5000 
     68 O          -3.2918  -24.8310  -46.5573 O.2       11 UNK        -0.5000 
     69 N          -2.2021  -24.5294  -44.5956 N.am      12 UNK        -0.5000 
     70 CA         -2.3580  -25.8845  -44.0664 C.3       12 UNK         0.1400 
     71 CB         -1.9643  -25.8867  -42.5817 C.3       12 UNK        -0.1800 
     72 C          -1.5343  -26.9299  -44.8486 C.2       12 UNK         0.5000 
     73 O          -1.9579  -28.0825  -44.9418 O.2       12 UNK        -0.5000 
     74 N          -0.3904  -26.5068  -45.4052 N.am      13 UNK        -0.5000 
     75 CA          0.4525  -27.3017  -46.2956 C.3       13 UNK         0.1400 
     76 CB          1.9290  -27.0885  -45.9252 C.3       13 UNK        -0.1800 
     77 C           0.1929  -26.9100  -47.7588 C.2       13 UNK         0.5000 
     78 O          -0.0406  -27.7837  -48.5948 O.2       13 UNK        -0.5000 
     79 N           0.1963  -25.5998  -48.0412 N.am      14 UNK        -0.5000 
     80 CA         -0.0444  -24.9982  -49.3535 C.3       14 UNK         0.1400 
     81 CB          0.6393  -23.6193  -49.4019 C.3       14 UNK        -0.1800 
     82 C          -1.5483  -24.9277  -49.6890 C.2       14 UNK         0.5000 
     83 O          -2.0670  -23.8591  -50.0188 O.2       14 UNK        -0.5000 
     84 N          -2.2281  -26.0777  -49.6064 N.am      15 UNK        -0.5000 
     85 CA         -3.6610  -26.2293  -49.8648 C.3       15 UNK         0.1400 
     86 CB         -4.0996  -27.6441  -49.4621 C.3       15 UNK        -0.1800 
     87 C          -4.0449  -25.9327  -51.3260 C.2       15 UNK         0.5000 
     88 O          -5.1418  -25.4355  -51.5765 O.2       15 UNK        -0.5000 
     89 N          -3.1194  -26.1909  -52.2608 N.am      16 UNK        -0.5000 
     90 CA         -3.2583  -25.8612  -53.6798 C.3       16 UNK         0.1400 
     91 CB         -2.0973  -26.4903  -54.4638 C.3       16 UNK        -0.1800 
     92 C          -3.3257  -24.3436  -53.9352 C.2       16 UNK         0.5000 
     93 O          -4.0844  -23.9098  -54.8000 O.2       16 UNK        -0.5000 
     94 N          -2.5653  -23.5626  -53.1549 N.am      17 UNK        -0.5000 
     95 CA         -2.5593  -22.0999  -53.2116 C.3       17 UNK         0.1400 
     96 CB         -1.2869  -21.5747  -52.5302 C.3       17 UNK        -0.1800 
     97 C          -3.8244  -21.4900  -52.5797 C.2       17 UNK         0.5000 
     98 O          -4.2629  -20.4197  -53.0002 O.2       17 UNK        -0.5000 
     99 N          -4.4129  -22.1860  -51.5983 N.am      18 UNK        -0.5000 
    100 CA        -5.7206  -21.8459  -51.0432 C.3       18 UNK         0.1400 
    101 CB        -5.9314  -22.5794  -49.7122 C.3       18 UNK        -0.1800 
    102 C         -6.8492  -22.1552  -52.0443 C.2       18 UNK         0.5000 
    103 O         -7.7095  -21.3034  -52.2679 O.2       18 UNK        -0.5000 
    104 N         -6.8054  -23.3490  -52.6529 N.am      19 UNK        -0.5000 
    105 CA        -7.7652  -23.8128  -53.6574 C.3       19 UNK         0.1400 
    106 CB        -7.4948  -25.2908  -53.9766 C.3       19 UNK        -0.1800 
    107 C         -7.7586  -22.9703  -54.9468 C.2       19 UNK         0.5000 
    108 O         -8.8262  -22.7056  -55.5010 O.2       19 UNK        -0.5000 
    109 N         -6.5672  -22.5472  -55.3828 N.am      20 UNK        -0.5000 
    110 CA        -6.3454  -21.6842  -56.5360 C.3       20 UNK         0.1400 
    111 CB        -5.7699  -22.5320  -57.6855 C.3       20 UNK        -0.1800 
    112 C         -5.4018  -20.5390  -56.1143 C.2       20 UNK         0.5000 
    113 O         -4.1960  -20.6431  -56.3373 O.2       20 UNK        -0.5000 
    114 N         -5.8941  -19.4632  -55.4837 N.am      21 UNK        -0.5000 
    115 CA        -7.2883  -19.1668  -55.1460 C.3       21 UNK         0.1400 
    116 CB        -7.9933  -18.5307  -56.3635 C.3       21 UNK        -0.1800 
    117 C         -7.3772  -18.2678  -53.8955 C.2       21 UNK         0.5000 
    118 O         -8.3215  -17.4838  -53.7821 O.2       21 UNK        -0.5000 
    119 N         -6.3929  -18.3590  -52.9898 N.am      22 UNK        -0.5000 
    120 CA        -6.3147  -17.5221  -51.7770 C.3       22 UNK         0.1400 
    121 C         -7.3253  -17.8789  -50.6454 C.2       22 UNK         0.5000 
    122 N         -8.0468  -18.9902  -50.6994 N.am      22 UNK        -0.7600 
    123 O         -7.4716  -17.1137  -49.6961 O.2       22 UNK        -0.5000 
    124 C124       -4.8709  -17.4413  -51.2246 C.3       23 UNK        -0.0398 
    125 S125       -3.7538  -16.5185  -52.3364 S.3       23 UNK        -0.2404 
    126 C126       -2.2725  -17.5748  -52.3670 C.3       23 UNK        -0.0205 
    127 H127        7.0088  -14.0489  -45.6070 H         1 UNK         0.0600 
    128 H128        6.5873  -15.3622  -46.7130 H         1 UNK         0.0600 
    129 H129        6.1143  -15.4514  -45.0134 H         1 UNK         0.0600 
    130 H130        4.9264  -14.7250  -48.0896 H         1 UNK         0.3000 
    131 H131        2.4116  -13.8026  -47.1313 H         1 UNK         0.0600 
    132 H132        1.8707  -13.4937  -49.6077 H         1 UNK         0.0800 
    133 H133        3.5179  -13.9101  -49.9794 H         1 UNK         0.0800 
    134 H134        0.5898  -15.7971  -47.5265 H         1 UNK         0.0800 
    135 H135        0.1212  -14.7982  -48.8763 H         1 UNK         0.0800 
    136 H136       -0.6718  -15.8269  -51.0220 H         1 UNK         0.1150 
    137 H137       -2.5056  -19.6803  -50.6448 H         1 UNK         0.1150 
    138 H138       -0.0488  -18.1681  -47.4800 H         1 UNK         0.1150 
    139 H139       -1.7933  -21.1507  -48.8689 H         1 UNK         0.0800 
    140 H140       -0.6628  -20.6035  -47.6459 H         1 UNK         0.0800 
    141 H141       -4.1052  -22.1817  -47.0117 H         1 UNK         0.0800 
    142 H142       -3.7746  -21.6402  -45.3992 H         1 UNK         0.0800 
    143 H143       -1.7637  -22.9166  -47.3139 H         1 UNK         0.0600 
    144 H144       -1.2040  -21.3333  -45.0322 H         1 UNK         0.3000 
    145 H145        1.8925  -22.6075  -44.1168 H         1 UNK         0.0600 
    146 H146        2.6928  -21.7303  -46.2729 H         1 UNK         0.0600 
    147 H147        2.8786  -20.4917  -45.0404 H         1 UNK         0.0600 
    148 H148        1.5582  -20.3909  -46.2069 H         1 UNK         0.0600 
    149 H149        0.5261  -20.0291  -43.9418 H         1 UNK         0.3000 
    150 H150       -1.0685  -20.8797  -40.8081 H         1 UNK         0.0600 
    151 H151        1.0927  -18.8901  -41.6794 H         1 UNK         0.0600 
    152 H152        1.2519  -20.0565  -40.3716 H         1 UNK         0.0600 
    153 H153        0.0785  -18.7543  -40.2454 H         1 UNK         0.0600 
    154 H154       -1.2935  -18.5198  -42.3404 H         1 UNK         0.3000 
    155 H155       -4.1262  -19.3978  -44.2865 H         1 UNK         0.0600 
    156 H156       -3.9732  -17.7273  -41.7286 H         1 UNK         0.0600 
    157 H157       -5.1271  -19.0007  -42.0848 H         1 UNK         0.0600 
    158 H158       -5.1518  -17.5159  -43.0233 H         1 UNK         0.0600 
    159 H159       -2.8291  -17.9795  -45.3141 H         1 UNK         0.3000 
    160 H160       -1.4060  -16.5161  -45.9065 H         1 UNK         0.0600 
    161 H161       -1.1273  -14.0590  -45.7273 H         1 UNK         0.0600 
    162 H162       -1.4285  -14.1216  -43.9902 H         1 UNK         0.0600 
    163 H163       -2.7096  -14.5287  -45.1253 H         1 UNK         0.0600 
    164 H164        0.7084  -15.2848  -44.4946 H         1 UNK         0.3000 
    165 H165        2.7846  -17.9543  -43.7510 H         1 UNK         0.0600 
    166 H166        4.3292  -17.2460  -45.5543 H         1 UNK         0.0600 
    167 H167        3.0170  -18.1980  -46.2277 H         1 UNK         0.0600 
    168 H168        3.0049  -16.4525  -46.4084 H         1 UNK         0.0600 
    169 H169        3.1765  -15.1199  -44.3562 H         1 UNK         0.3000 
    170 H170        2.5534  -14.0197  -41.0319 H         1 UNK         0.0600 
    171 H171        4.8556  -13.1241  -41.3240 H         1 UNK         0.0600 
    172 H172        5.1712  -14.2861  -42.6109 H         1 UNK         0.0600 
    173 H173        4.9045  -14.8433  -40.9626 H         1 UNK         0.0600 
    174 H174        3.4015  -12.9696  -43.6550 H         1 UNK         0.3000 
    175 H175        1.0059  -12.0562  -45.0169 H         1 UNK         0.0600 
    176 H176       -0.7028  -10.9258  -43.6653 H         1 UNK         0.0600 
    177 H177        0.5081   -9.9385  -42.8605 H         1 UNK         0.0600 
    178 H178        0.1902   -9.7240  -44.5819 H         1 UNK         0.0600 
    179 H179        2.9307  -11.0916  -45.4422 H         1 UNK         0.3000 
    180 H180        4.9886   -8.7594  -44.1697 H         1 UNK         0.0600 
    181 H181        5.8162  -11.6566  -43.5807 H         1 UNK         0.0600 
    182 H182        5.9032  -10.3113  -42.4509 H         1 UNK         0.0600 
    183 H183        6.9228  -10.3166  -43.8802 H         1 UNK         0.0600 
    184 H184        5.2177  -11.1544  -45.8976 H         1 UNK         0.3000 
    185 H185        4.0101   -9.5246  -48.7695 H         1 UNK         0.0600 
    186 H186        6.3754   -8.7170  -48.7883 H         1 UNK         0.0600 
    187 H187        6.9264  -10.2744  -48.1826 H         1 UNK         0.0600 
    188 H188        6.1883  -10.1538  -49.7805 H         1 UNK         0.0600 
    189 H189        5.2376  -12.0747  -48.3711 H         1 UNK         0.3000 
    190 H190       -1.6643  -23.8826  -44.0360 H         1 UNK         0.3000 
    191 H191       -3.4112  -26.1621  -44.1453 H         1 UNK         0.0600 
    192 H192       -2.5884  -25.2017  -42.0074 H         1 UNK         0.0600 
    193 H193       -2.0855  -26.8795  -42.1465 H         1 UNK         0.0600 
    194 H194       -0.9241  -25.5896  -42.4407 H         1 UNK         0.0600 
    195 H195       -0.1367  -25.5300  -45.3106 H         1 UNK         0.3000 
    196 H196        0.2288  -28.3649  -46.1858 H         1 UNK         0.0600 
    197 H197        2.5827  -27.6644  -46.5815 H         1 UNK         0.0600 
    198 H198        2.1266  -27.4129  -44.9035 H         1 UNK         0.0600 
    199 H199        2.2229  -26.0412  -46.0045 H         1 UNK         0.0600 
    200 H200        0.3772  -24.9427  -47.2847 H         1 UNK         0.3000 
    201 H201        0.4240  -25.6239  -50.1158 H         1 UNK         0.0600 
    202 H202        0.5420  -23.1675  -50.3896 H         1 UNK         0.0600 
    203 H203        1.7050  -23.7010  -49.1881 H         1 UNK         0.0600 
    204 H204        0.2085  -22.9261  -48.6799 H         1 UNK         0.0600 
    205 H205       -1.7184  -26.9059  -49.3179 H         1 UNK         0.3000 
    206 H206       -4.1912  -25.5132  -49.2333 H         1 UNK         0.0600 
    207 H207       -3.9035  -27.8293  -48.4055 H         1 UNK         0.0600 
    208 H208       -5.1698  -27.7818  -49.6227 H         1 UNK         0.0600 
    209 H209       -3.5780  -28.4078  -50.0401 H         1 UNK         0.0600 
    210 H210       -2.2472  -26.6072  -51.9698 H         1 UNK         0.3000 
    211 H211       -4.1908  -26.3014  -54.0389 H         1 UNK         0.0600 
    212 H212       -1.1313  -26.1081  -54.1316 H         1 UNK         0.0600 
    213 H213       -2.1862  -26.2765  -55.5299 H         1 UNK         0.0600 
    214 H214       -2.0870  -27.5746  -54.3511 H         1 UNK         0.0600 
    215 H215       -2.0116  -23.9882  -52.4254 H         1 UNK         0.3000 
    216 H216       -2.5324  -21.7955  -54.2603 H         1 UNK         0.0600 
    217 H217       -1.1818  -20.5003  -52.6776 H         1 UNK         0.0600 
    218 H218       -0.3939  -22.0425  -52.9447 H         1 UNK         0.0600 
    219 H219       -1.2946  -21.7599  -51.4561 H         1 UNK         0.0600 
    220 H220       -3.9769  -23.0393  -51.2763 H         1 UNK         0.3000 
    221 H221       -5.7343  -20.7741  -50.8354 H         1 UNK         0.0600 
    222 H222       -5.9882  -23.6597  -49.8404 H         1 UNK         0.0600 
    223 H223       -5.1164  -22.3682  -49.0226 H         1 UNK         0.0600 
    224 H224       -6.8574  -22.2570  -49.2348 H         1 UNK         0.0600 
    225 H225       -6.0911  -24.0152  -52.3705 H         1 UNK         0.3000 
    226 H226       -8.7625  -23.7373  -53.2193 H         1 UNK         0.0600 
    227 H227       -8.2181  -25.6739  -54.6975 H         1 UNK         0.0600 
    228 H228       -6.5007  -25.4341  -54.4006 H         1 UNK         0.0600 
    229 H229       -7.5690  -25.9081  -53.0812 H         1 UNK         0.0600 
    230 H230       -5.7263  -22.8520  -54.9000 H         1 UNK         0.3000 
    231 H231       -7.2834  -21.2595  -56.8908 H         1 UNK         0.0600 
    232 H232       -4.8441  -23.0318  -57.3972 H         1 UNK         0.0600 
    233 H233       -5.5544  -21.9127  -58.5569 H         1 UNK         0.0600 
    234 H234       -6.4777  -23.2998  -57.9980 H         1 UNK         0.0600 
    235 H235       -5.2362  -18.7587  -55.1821 H         1 UNK         0.3000 
    236 H236       -7.8086  -20.0855  -54.8781 H         1 UNK         0.0600 
    237 H237       -7.9151  -19.1446  -57.2593 H         1 UNK         0.0600 
    238 H238       -9.0570  -18.3875  -56.1692 H         1 UNK         0.0600 
    239 H239       -7.5691  -17.5541  -56.5996 H         1 UNK         0.0600 
    240 H240       -5.6604  -19.0541  -53.1077 H         1 UNK         0.3000 
    241 H241       -6.5915  -16.5084  -52.0741 H         1 UNK         0.0600 
    242 H242       -8.7044  -19.1803  -49.9608 H         1 UNK         0.3800 
    243 H243       -7.9426  -19.6607  -51.4566 H         1 UNK         0.3800 
    244 H244       -4.4918  -18.4474  -51.0494 H         1 UNK         0.0800 
    245 H245       -4.8415  -16.9335  -50.2589 H         1 UNK         0.0800 
    246 H246       -1.5399  -17.1323  -53.0434 H         1 UNK         0.0800 
    247 H247       -2.5289  -18.5420  -52.7958 H         1 UNK         0.0800 
@<TRIPOS>BOND
     1    1    2 1    
     2    1  127 1    
     3    1  128 1    
     4    1  129 1    
     5    2    3 2    
     6    2    4 am   BACKBONE|DICT|INTERRES
     7    4    5 1    
     8    4  130 1    
     9    5    6 1    
    10    5   65 1    
    11    5  131 1    
    12    6    7 1    
    13    6  132 1    
    14    6  133 1    
    15    7    8 1    
    16    8    9 1    
    17    8  134 1    
    18    8  135 1    
    19    9   10 ar   
    20    9   14 ar   
    21   10   11 ar   
    22   10  136 1    
    23   11   12 ar   
    24   11  126 1    
    25   12   13 ar   
    26   12  137 1    
    27   13   14 ar   
    28   13   15 1    
    29   14  138 1    
    30   15   16 1    
    31   15  139 1    
    32   15  140 1    
    33   16   17 1    
    34   17   18 1    
    35   17  141 1    
    36   17  142 1    
    37   18   19 1    
    38   18   67 1    
    39   18  143 1    
    40   19   20 am   BACKBONE|DICT|INTERRES
    41   19  144 1    
    42   20   21 2    
    43   20   22 1    
    44   22   23 1    
    45   22   24 1    
    46   22  145 1    
    47   23  146 1    
    48   23  147 1    
    49   23  148 1    
    50   24   25 am   BACKBONE|DICT|INTERRES
    51   24  149 1    
    52   25   26 2    
    53   25   27 1    
    54   27   28 1    
    55   27   29 1    
    56   27  150 1    
    57   28  151 1    
    58   28  152 1    
    59   28  153 1    
    60   29   30 am   BACKBONE|DICT|INTERRES
    61   29  154 1    
    62   30   31 2    
    63   30   32 1    
    64   32   33 1    
    65   32   34 1    
    66   32  155 1    
    67   33  156 1    
    68   33  157 1    
    69   33  158 1    
    70   34   35 am   BACKBONE|DICT|INTERRES
    71   34  159 1    
    72   35   36 2    
    73   35   37 1    
    74   37   38 1    
    75   37   39 1    
    76   37  160 1    
    77   38  161 1    
    78   38  162 1    
    79   38  163 1    
    80   39   40 am   BACKBONE|DICT|INTERRES
    81   39  164 1    
    82   40   41 2    
    83   40   42 1    
    84   42   43 1    
    85   42   44 1    
    86   42  165 1    
    87   43  166 1    
    88   43  167 1    
    89   43  168 1    
    90   44   45 am   BACKBONE|DICT|INTERRES
    91   44  169 1    
    92   45   46 2    
    93   45   47 1    
    94   47   48 1    
    95   47   49 1    
    96   47  170 1    
    97   48  171 1    
    98   48  172 1    
    99   48  173 1    
   100   49   50 am   BACKBONE|DICT|INTERRES
   101   49  174 1    
   102   50   51 2    
   103   50   52 1    
   104   52   53 1    
   105   52   54 1    
   106   52  175 1    
   107   53  176 1    
   108   53  177 1    
   109   53  178 1    
   110   54   55 am   BACKBONE|DICT|INTERRES
   111   54  179 1    
   112   55   56 2    
   113   55   57 1    
   114   57   58 1    
   115   57   59 1    
   116   57  180 1    
   117   58  181 1    
   118   58  182 1    
   119   58  183 1    
   120   59   60 am   BACKBONE|DICT|INTERRES
   121   59  184 1    
   122   60   61 2    
   123   60   62 1    
   124   62   63 1    
   125   62   64 1    
   126   62  185 1    
   127   63  186 1    
   128   63  187 1    
   129   63  188 1    
   130   64   65 am   BACKBONE|DICT|INTERRES
   131   64  189 1    
   132   65   66 2    
   133   67   68 2    
   134   67   69 am   BACKBONE|DICT|INTERRES
   135   69   70 1    
   136   69  190 1    
   137   70   71 1    
   138   70   72 1    
   139   70  191 1    
   140   71  192 1    
   141   71  193 1    
   142   71  194 1    
   143   72   73 2    
   144   72   74 am   BACKBONE|DICT|INTERRES
   145   74   75 1    
   146   74  195 1    
   147   75   76 1    
   148   75   77 1    
   149   75  196 1    
   150   76  197 1    
   151   76  198 1    
   152   76  199 1    
   153   77   78 2    
   154   77   79 am   BACKBONE|DICT|INTERRES
   155   79   80 1    
   156   79  200 1    
   157   80   81 1    
   158   80   82 1    
   159   80  201 1    
   160   81  202 1    
   161   81  203 1    
   162   81  204 1    
   163   82   83 2    
   164   82   84 am   BACKBONE|DICT|INTERRES
   165   84   85 1    
   166   84  205 1    
   167   85   86 1    
   168   85   87 1    
   169   85  206 1    
   170   86  207 1    
   171   86  208 1    
   172   86  209 1    
   173   87   88 2    
   174   87   89 am   BACKBONE|DICT|INTERRES
   175   89   90 1    
   176   89  210 1    
   177   90   91 1    
   178   90   92 1    
   179   90  211 1    
   180   91  212 1    
   181   91  213 1    
   182   91  214 1    
   183   92   93 2    
   184   92   94 am   BACKBONE|DICT|INTERRES
   185   94   95 1    
   186   94  215 1    
   187   95   96 1    
   188   95   97 1    
   189   95  216 1    
   190   96  217 1    
   191   96  218 1    
   192   96  219 1    
   193   97   98 2    
   194   97   99 am   BACKBONE|DICT|INTERRES
   195   99  100 1    
   196   99  220 1    
   197  100  101 1    
   198  100  102 1    
   199  100  221 1    
   200  101  222 1    
   201  101  223 1    
   202  101  224 1    
   203  102  103 2    
   204  102  104 am   BACKBONE|DICT|INTERRES
   205  104  105 1    
   206  104  225 1    
   207  105  106 1    
   208  105  107 1    
   209  105  226 1    
   210  106  227 1    
   211  106  228 1    
   212  106  229 1    
   213  107  108 2    
   214  107  109 am   BACKBONE|DICT|INTERRES
   215  109  110 1    
   216  109  230 1    
   217  110  111 1    
   218  110  112 1    
   219  110  231 1    
   220  111  232 1    
   221  111  233 1    
   222  111  234 1    
   223  112  113 2    
   224  112  114 am   BACKBONE|DICT|INTERRES
   225  114  115 1    
   226  114  235 1    
   227  115  116 1    
   228  115  117 1    
   229  115  236 1    
   230  116  237 1    
   231  116  238 1    
   232  116  239 1    
   233  117  118 2    
   234  117  119 am   BACKBONE|DICT|INTERRES
   235  119  120 1    
   236  119  240 1    
   237  120  121 1    
   238  120  124 1    
   239  120  241 1    
   240  121  122 am   BACKBONE|DICT|INTERRES
   241  121  123 2    
   242  122  242 1    
   243  122  243 1    
   244  124  125 1    
   245  124  244 1    
   246  124  245 1    
   247  125  126 1    
   248  126  246 1    
   249  126  247 1    
@<TRIPOS>SUBSTRUCTURE
     1 UNK         1 GROUP             0       ****    0 ROOT    
