@<TRIPOS>MOLECULE
3R540
247   249    1
SMALL
USER_CHARGES


@<TRIPOS>ATOM
      1 CA          4.8410  -14.2567  -46.6015 C.3       0 UNK        -0.1800 
      2 C           3.4868  -14.4250  -47.2729 C.2       0 UNK         0.5000 
      3 O           2.4877  -14.6133  -46.5775 O.2       0 UNK        -0.5000 
      4 N           3.4598  -14.3610  -48.6102 N.am      1 UNK        -0.5000 
      5 CA          2.2839  -14.4870  -49.4802 C.3       1 UNK         0.1400 
      6 C6          2.6722  -14.3016  -50.9680 C.3       23 UNK        -0.0398 
      7 S7          3.5955  -15.7455  -51.5941 S.3       23 UNK        -0.2404 
      8 C8          2.3561  -16.5428  -52.6688 C.3       23 UNK        -0.0205 
      9 C9          1.0492  -16.8312  -51.9415 C.ar      23 UNK        -0.0193 
     10 C10        -0.0935  -16.0754  -52.2226 C.ar      23 UNK        -0.1150 
     11 C11        -1.2950  -16.3263  -51.5550 C.ar      23 UNK        -0.0193 
     12 C12        -1.3517  -17.3488  -50.6046 C.ar      23 UNK        -0.1150 
     13 C13        -0.2171  -18.1144  -50.3189 C.ar      23 UNK        -0.0193 
     14 C14         0.9809  -17.8514  -50.9889 C.ar      23 UNK        -0.1150 
     15 C15        -0.3000  -19.2455  -49.3105 C.3       23 UNK        -0.0205 
     16 S16        -0.2501  -18.6375  -47.5956 S.3       23 UNK        -0.2404 
     17 C17        -1.5631  -19.6607  -46.8587 C.3       23 UNK        -0.0398 
     18 CA         -1.0938  -21.1037  -46.5502 C.3       11 UNK         0.1400 
     19 N          -0.2471  -21.1848  -45.3559 N.am      11 UNK        -0.5000 
     20 C           0.3630  -22.3008  -44.9264 C.2       10 UNK         0.5000 
     21 O           0.3363  -23.3742  -45.5278 O.2       10 UNK        -0.5000 
     22 CA          1.0502  -22.2226  -43.5536 C.3       10 UNK         0.1400 
     23 CB          2.4627  -21.6323  -43.6767 C.3       10 UNK        -0.1800 
     24 N           0.2689  -21.4281  -42.6080 N.am      10 UNK        -0.5000 
     25 C          -0.9288  -21.7723  -42.1163 C.2       9 UNK         0.5000 
     26 O          -1.4821  -22.8404  -42.3806 O.2       9 UNK        -0.5000 
     27 CA         -1.6522  -20.7287  -41.2381 C.3       9 UNK         0.1400 
     28 CB         -2.5199  -21.3739  -40.1382 C.3       9 UNK        -0.1800 
     29 N          -0.7590  -19.7040  -40.6844 N.am      9 UNK        -0.5000 
     30 C           0.2300  -19.8707  -39.7921 C.2       8 UNK         0.5000 
     31 O           0.4955  -20.9473  -39.2566 O.2       8 UNK        -0.5000 
     32 CA          1.1018  -18.6406  -39.4645 C.3       8 UNK         0.1400 
     33 CB          2.5245  -18.8453  -40.0100 C.3       8 UNK        -0.1800 
     34 N           0.5697  -17.3834  -39.9976 N.am      8 UNK        -0.5000 
     35 C          -0.4657  -16.7085  -39.4793 C.2       7 UNK         0.5000 
     36 O          -1.0581  -17.0478  -38.4545 O.2       7 UNK        -0.5000 
     37 CA         -0.9448  -15.4693  -40.2598 C.3       7 UNK         0.1400 
     38 CB         -0.0908  -14.2421  -39.9083 C.3       7 UNK        -0.1800 
     39 N          -0.9391  -15.6636  -41.7119 N.am      7 UNK        -0.5000 
     40 C          -1.6849  -16.5585  -42.3761 C.2       6 UNK         0.5000 
     41 O          -2.4712  -17.3340  -41.8333 O.2       6 UNK        -0.5000 
     42 CA         -1.4698  -16.6445  -43.8958 C.3       6 UNK         0.1400 
     43 CB         -2.2089  -15.5241  -44.6423 C.3       6 UNK        -0.1800 
     44 N          -0.0464  -16.6089  -44.2224 N.am      6 UNK        -0.5000 
     45 C           0.7740  -17.6584  -44.0825 C.2       5 UNK         0.5000 
     46 O           0.3860  -18.7848  -43.7710 O.2       5 UNK        -0.5000 
     47 CA          2.2782  -17.4121  -44.2938 C.3       5 UNK         0.1400 
     48 CB          2.7021  -17.7993  -45.7173 C.3       5 UNK        -0.1800 
     49 N           2.6663  -16.0267  -44.0184 N.am      5 UNK        -0.5000 
     50 C           2.7722  -15.5220  -42.7809 C.2       4 UNK         0.5000 
     51 O           2.5440  -16.1737  -41.7632 O.2       4 UNK        -0.5000 
     52 CA          3.1506  -14.0352  -42.6456 C.3       4 UNK         0.1400 
     53 CB          4.6767  -13.8650  -42.6541 C.3       4 UNK        -0.1800 
     54 N           2.5572  -13.1638  -43.6619 N.am      4 UNK        -0.5000 
     55 C           1.2443  -13.0217  -43.8865 C.2       3 UNK         0.5000 
     56 O           0.3821  -13.6741  -43.2975 O.2       3 UNK        -0.5000 
     57 CA          0.8093  -12.0066  -44.9525 C.3       3 UNK         0.1400 
     58 CB          1.9263  -11.0502  -45.4184 C.3       3 UNK        -0.1800 
     59 N           0.3059  -12.7490  -46.0995 N.am      3 UNK        -0.5000 
     60 C          -0.7980  -12.4568  -46.7967 C.2       2 UNK         0.5000 
     61 O          -1.5559  -11.5285  -46.5091 O.2       2 UNK        -0.5000 
     62 CA         -1.1126  -13.3529  -48.0181 C.3       2 UNK         0.1400 
     63 CB         -1.8591  -12.5922  -49.1337 C.3       2 UNK        -0.1800 
     64 N           0.0591  -14.0541  -48.5600 N.am      2 UNK        -0.5000 
     65 C           1.1662  -13.5032  -49.0820 C.2       1 UNK         0.5000 
     66 O           1.3442  -12.2922  -49.2276 O.2       1 UNK        -0.5000 
     67 C          -2.3123  -22.0410  -46.4551 C.2       11 UNK         0.5000 
     68 O          -2.6339  -22.7026  -47.4406 O.2       11 UNK        -0.5000 
     69 N          -2.9484  -22.1003  -45.2769 N.am      12 UNK        -0.5000 
     70 CA         -4.0939  -22.9697  -45.0098 C.3       12 UNK         0.1400 
     71 CB         -4.7750  -22.5440  -43.7000 C.3       12 UNK        -0.1800 
     72 C          -3.6971  -24.4556  -44.9731 C.2       12 UNK         0.5000 
     73 O          -4.3910  -25.2806  -45.5674 O.2       12 UNK        -0.5000 
     74 N          -2.5735  -24.7615  -44.3089 N.am      13 UNK        -0.5000 
     75 CA         -2.0130  -26.1084  -44.1890 C.3       13 UNK         0.1400 
     76 CB         -0.8451  -26.0866  -43.1912 C.3       13 UNK        -0.1800 
     77 C          -1.5653  -26.7014  -45.5380 C.2       13 UNK         0.5000 
     78 O          -1.8402  -27.8710  -45.8086 O.2       13 UNK        -0.5000 
     79 N          -0.9009  -25.8830  -46.3646 N.am      14 UNK        -0.5000 
     80 CA         -0.4216  -26.2643  -47.6947 C.3       14 UNK         0.1400 
     81 CB          0.7590  -25.3539  -48.0712 C.3       14 UNK        -0.1800 
     82 C          -1.5057  -26.1833  -48.7860 C.2       14 UNK         0.5000 
     83 O          -1.2569  -26.6365  -49.9040 O.2       14 UNK        -0.5000 
     84 N          -2.6471  -25.5441  -48.4821 N.am      15 UNK        -0.5000 
     85 CA         -3.7102  -25.1397  -49.4149 C.3       15 UNK         0.1400 
     86 CB         -4.4854  -26.3701  -49.9275 C.3       15 UNK        -0.1800 
     87 C          -3.1608  -24.2531  -50.5556 C.2       15 UNK         0.5000 
     88 O          -3.5173  -24.4362  -51.7204 O.2       15 UNK        -0.5000 
     89 N          -2.2218  -23.3679  -50.1875 N.am      16 UNK        -0.5000 
     90 CA         -1.3815  -22.5057  -51.0281 C.3       16 UNK         0.1400 
     91 CB         -2.2440  -21.4217  -51.7009 C.3       16 UNK        -0.1800 
     92 C          -0.5021  -23.2486  -52.0613 C.2       16 UNK         0.5000 
     93 O           0.0633  -22.5954  -52.9382 O.2       16 UNK        -0.5000 
     94 N          -0.4034  -24.5842  -51.9510 N.am      17 UNK        -0.5000 
     95 CA          0.1074  -25.5163  -52.9622 C.3       17 UNK         0.1400 
     96 CB          1.6198  -25.3218  -53.2007 C.3       17 UNK        -0.1800 
     97 C          -0.7390  -25.4772  -54.2566 C.2       17 UNK         0.5000 
     98 O          -0.1875  -25.5402  -55.3570 O.2       17 UNK        -0.5000 
     99 N          -2.0660  -25.3741  -54.0726 N.am      18 UNK        -0.5000 
    100 CA        -3.1317  -25.1490  -55.0550 C.3       18 UNK         0.1400 
    101 CB        -3.0586  -26.1330  -56.2410 C.3       18 UNK        -0.1800 
    102 C         -3.2042  -23.6805  -55.5194 C.2       18 UNK         0.5000 
    103 O         -2.2517  -22.9180  -55.3488 O.2       18 UNK        -0.5000 
    104 N         -4.3605  -23.3122  -56.0926 N.am      19 UNK        -0.5000 
    105 CA        -4.7213  -21.9677  -56.5648 C.3       19 UNK         0.1400 
    106 CB        -3.8470  -21.5474  -57.7657 C.3       19 UNK        -0.1800 
    107 C         -4.7411  -20.9227  -55.4267 C.2       19 UNK         0.5000 
    108 O         -4.2180  -19.8182  -55.5795 O.2       19 UNK        -0.5000 
    109 N         -5.3610  -21.3007  -54.2991 N.am      20 UNK        -0.5000 
    110 CA        -5.4758  -20.4938  -53.0789 C.3       20 UNK         0.1400 
    111 CB        -5.9095  -21.4101  -51.9231 C.3       20 UNK        -0.1800 
    112 C         -6.4280  -19.2863  -53.1938 C.2       20 UNK         0.5000 
    113 O         -6.4204  -18.4276  -52.3101 O.2       20 UNK        -0.5000 
    114 N         -7.2302  -19.2283  -54.2651 N.am      21 UNK        -0.5000 
    115 CA        -8.1458  -18.1351  -54.5951 C.3       21 UNK         0.1400 
    116 CB        -9.2106  -18.6662  -55.5720 C.3       21 UNK        -0.1800 
    117 C         -7.3945  -16.9009  -55.1431 C.2       21 UNK         0.5000 
    118 O         -7.5888  -16.5153  -56.2979 O.2       21 UNK        -0.5000 
    119 N         -6.5256  -16.3244  -54.3061 N.am      22 UNK        -0.5000 
    120 CA        -5.7351  -15.1151  -54.5739 C.3       22 UNK         0.1400 
    121 C         -6.6184  -13.8581  -54.8155 C.2       22 UNK         0.5000 
    122 N         -6.2296  -12.9862  -55.7360 N.am      22 UNK        -0.7600 
    123 O         -7.6269  -13.6440  -54.1456 O.2       22 UNK        -0.5000 
    124 C124       -4.7250  -14.8415  -53.4312 C.3       23 UNK        -0.0398 
    125 S125       -3.5004  -16.1775  -53.2207 S.3       23 UNK        -0.2404 
    126 C126       -2.5234  -15.4823  -51.8541 C.3       23 UNK        -0.0205 
    127 H127        5.6461  -14.1612  -47.3302 H         1 UNK         0.0600 
    128 H128        4.8403  -13.3640  -45.9768 H         1 UNK         0.0600 
    129 H129        5.0555  -15.1194  -45.9709 H         1 UNK         0.0600 
    130 H130        4.3282  -14.2041  -49.1006 H         1 UNK         0.3000 
    131 H131        1.8975  -15.5001  -49.3481 H         1 UNK         0.0600 
    132 H132        3.2879  -13.4095  -51.0958 H         1 UNK         0.0800 
    133 H133        1.7945  -14.1379  -51.5943 H         1 UNK         0.0800 
    134 H134        2.7686  -17.4771  -53.0519 H         1 UNK         0.0800 
    135 H135        2.1805  -15.9088  -53.5393 H         1 UNK         0.0800 
    136 H136       -0.0495  -15.2868  -52.9607 H         1 UNK         0.1150 
    137 H137       -2.2799  -17.5524  -50.0891 H         1 UNK         0.1150 
    138 H138        1.8619  -18.4389  -50.7713 H         1 UNK         0.1150 
    139 H139        0.5172  -19.9532  -49.4573 H         1 UNK         0.0800 
    140 H140       -1.2198  -19.8005  -49.4916 H         1 UNK         0.0800 
    141 H141       -1.9148  -19.1730  -45.9496 H         1 UNK         0.0800 
    142 H142       -2.4152  -19.6486  -47.5419 H         1 UNK         0.0800 
    143 H143       -0.4973  -21.4626  -47.3917 H         1 UNK         0.0600 
    144 H144       -0.1413  -20.3368  -44.8059 H         1 UNK         0.3000 
    145 H145        1.1346  -23.2368  -43.1586 H         1 UNK         0.0600 
    146 H146        2.9658  -21.6101  -42.7098 H         1 UNK         0.0600 
    147 H147        3.0769  -22.2314  -44.3500 H         1 UNK         0.0600 
    148 H148        2.4444  -20.6152  -44.0678 H         1 UNK         0.0600 
    149 H149        0.5958  -20.4870  -42.4339 H         1 UNK         0.3000 
    150 H150       -2.3263  -20.1970  -41.9109 H         1 UNK         0.0600 
    151 H151       -3.2974  -22.0038  -40.5712 H         1 UNK         0.0600 
    152 H152       -3.0184  -20.6155  -39.5346 H         1 UNK         0.0600 
    153 H153       -1.9303  -22.0022  -39.4704 H         1 UNK         0.0600 
    154 H154       -0.9067  -18.7712  -41.0479 H         1 UNK         0.3000 
    155 H155        1.1609  -18.5613  -38.3771 H         1 UNK         0.0600 
    156 H156        2.9758  -19.7523  -39.6058 H         1 UNK         0.0600 
    157 H157        3.1744  -18.0133  -39.7382 H         1 UNK         0.0600 
    158 H158        2.5286  -18.9330  -41.0973 H         1 UNK         0.0600 
    159 H159        1.0585  -16.9919  -40.7980 H         1 UNK         0.3000 
    160 H160       -1.9743  -15.2652  -39.9585 H         1 UNK         0.0600 
    161 H161        0.9522  -14.3847  -40.1911 H         1 UNK         0.0600 
    162 H162       -0.4556  -13.3486  -40.4154 H         1 UNK         0.0600 
    163 H163       -0.1163  -14.0425  -38.8363 H         1 UNK         0.0600 
    164 H164       -0.3473  -15.0353  -42.2503 H         1 UNK         0.3000 
    165 H165       -1.8864  -17.5950  -44.2331 H         1 UNK         0.0600 
    166 H166       -2.0916  -15.6330  -45.7202 H         1 UNK         0.0600 
    167 H167       -3.2777  -15.5543  -44.4274 H         1 UNK         0.0600 
    168 H168       -1.8479  -14.5347  -44.3630 H         1 UNK         0.0600 
    169 H169        0.3537  -15.7039  -44.4261 H         1 UNK         0.3000 
    170 H170        2.8147  -18.0632  -43.6003 H         1 UNK         0.0600 
    171 H171        2.4862  -18.8498  -45.9160 H         1 UNK         0.0600 
    172 H172        2.1743  -17.2133  -46.4695 H         1 UNK         0.0600 
    173 H173        3.7717  -17.6525  -45.8662 H         1 UNK         0.0600 
    174 H174        2.7879  -15.4184  -44.8222 H         1 UNK         0.3000 
    175 H175        2.7817  -13.6945  -41.6764 H         1 UNK         0.0600 
    176 H176        5.1131  -14.1737  -43.6039 H         1 UNK         0.0600 
    177 H177        4.9605  -12.8280  -42.4739 H         1 UNK         0.0600 
    178 H178        5.1396  -14.4674  -41.8712 H         1 UNK         0.0600 
    179 H179        3.1972  -12.6005  -44.2011 H         1 UNK         0.3000 
    180 H180        0.0116  -11.4125  -44.5022 H         1 UNK         0.0600 
    181 H181        2.3581  -10.5046  -44.5783 H         1 UNK         0.0600 
    182 H182        2.7308  -11.5782  -45.9316 H         1 UNK         0.0600 
    183 H183        1.5319  -10.3079  -46.1126 H         1 UNK         0.0600 
    184 H184        0.8833  -13.5317  -46.3944 H         1 UNK         0.3000 
    185 H185       -1.7832  -14.1309  -47.6519 H         1 UNK         0.0600 
    186 H186       -2.8160  -12.2107  -48.7759 H         1 UNK         0.0600 
    187 H187       -1.2846  -11.7404  -49.4985 H         1 UNK         0.0600 
    188 H188       -2.0691  -13.2421  -49.9815 H         1 UNK         0.0600 
    189 H189        0.0343  -15.0602  -48.4648 H         1 UNK         0.3000 
    190 H190       -2.5964  -21.5585  -44.5031 H         1 UNK         0.3000 
    191 H191       -4.8145  -22.8381  -45.8201 H         1 UNK         0.0600 
    192 H192       -5.6616  -23.1501  -43.5095 H         1 UNK         0.0600 
    193 H193       -5.0965  -21.5033  -43.7419 H         1 UNK         0.0600 
    194 H194       -4.1134  -22.6569  -42.8417 H         1 UNK         0.0600 
    195 H195       -2.0893  -24.0247  -43.8040 H         1 UNK         0.3000 
    196 H196       -2.7925  -26.7571  -43.7840 H         1 UNK         0.0600 
    197 H197       -0.4245  -27.0842  -43.0589 H         1 UNK         0.0600 
    198 H198       -1.1706  -25.7375  -42.2110 H         1 UNK         0.0600 
    199 H199       -0.0407  -25.4321  -43.5282 H         1 UNK         0.0600 
    200 H200       -0.6618  -24.9465  -46.0479 H         1 UNK         0.3000 
    201 H201       -0.0608  -27.2945  -47.6638 H         1 UNK         0.0600 
    202 H202        0.4520  -24.3100  -48.1495 H         1 UNK         0.0600 
    203 H203        1.1889  -25.6419  -49.0316 H         1 UNK         0.0600 
    204 H204        1.5553  -25.4130  -47.3289 H         1 UNK         0.0600 
    205 H205       -2.7414  -25.1844  -47.5417 H         1 UNK         0.3000 
    206 H206       -4.4041  -24.5188  -48.8464 H         1 UNK         0.0600 
    207 H207       -3.8623  -27.0135  -50.5493 H         1 UNK         0.0600 
    208 H208       -4.8637  -26.9686  -49.0989 H         1 UNK         0.0600 
    209 H209       -5.3438  -26.0674  -50.5282 H         1 UNK         0.0600 
    210 H210       -2.0790  -23.2708  -49.1859 H         1 UNK         0.3000 
    211 H211       -0.6886  -22.0134  -50.3462 H         1 UNK         0.0600 
    212 H212       -2.8545  -21.8456  -52.4988 H         1 UNK         0.0600 
    213 H213       -1.6227  -20.6439  -52.1467 H         1 UNK         0.0600 
    214 H214       -2.9074  -20.9366  -50.9850 H         1 UNK         0.0600 
    215 H215       -0.8767  -25.0322  -51.1744 H         1 UNK         0.3000 
    216 H216       -0.0285  -26.5149  -52.5444 H         1 UNK         0.0600 
    217 H217        1.8376  -24.3767  -53.6984 H         1 UNK         0.0600 
    218 H218        2.0183  -26.1183  -53.8299 H         1 UNK         0.0600 
    219 H219        2.1726  -25.3431  -52.2616 H         1 UNK         0.0600 
    220 H220       -2.3841  -25.2502  -53.1159 H         1 UNK         0.3000 
    221 H221       -4.0571  -25.3531  -54.5141 H         1 UNK         0.0600 
    222 H222       -2.2305  -25.9040  -56.9121 H         1 UNK         0.0600 
    223 H223       -2.9410  -27.1606  -55.8970 H         1 UNK         0.0600 
    224 H224       -3.9713  -26.0941  -56.8361 H         1 UNK         0.0600 
    225 H225       -5.0846  -24.0105  -56.1910 H         1 UNK         0.3000 
    226 H226       -5.7487  -22.0374  -56.9249 H         1 UNK         0.0600 
    227 H227       -3.8739  -22.2987  -58.5548 H         1 UNK         0.0600 
    228 H228       -4.2027  -20.6113  -58.1975 H         1 UNK         0.0600 
    229 H229       -2.8055  -21.3983  -57.4800 H         1 UNK         0.0600 
    230 H230       -5.7586  -22.2278  -54.2592 H         1 UNK         0.3000 
    231 H231       -4.4892  -20.0885  -52.8484 H         1 UNK         0.0600 
    232 H232       -6.9048  -21.8236  -52.0902 H         1 UNK         0.0600 
    233 H233       -5.2189  -22.2429  -51.7957 H         1 UNK         0.0600 
    234 H234       -5.9340  -20.8648  -50.9787 H         1 UNK         0.0600 
    235 H235       -7.1529  -19.9668  -54.9477 H         1 UNK         0.3000 
    236 H236       -8.6604  -17.8220  -53.6841 H         1 UNK         0.0600 
    237 H237       -9.7676  -19.4953  -55.1351 H         1 UNK         0.0600 
    238 H238       -9.9333  -17.8888  -55.8230 H         1 UNK         0.0600 
    239 H239       -8.7651  -19.0156  -56.5043 H         1 UNK         0.0600 
    240 H240       -6.3988  -16.7508  -53.3944 H         1 UNK         0.3000 
    241 H241       -5.1692  -15.3046  -55.4881 H         1 UNK         0.0600 
    242 H242       -5.4023  -13.1369  -56.2931 H         1 UNK         0.3800 
    243 H243       -6.7848  -12.1589  -55.8925 H         1 UNK         0.3800 
    244 H244       -5.2499  -14.6940  -52.4855 H         1 UNK         0.0800 
    245 H245       -4.1760  -13.9182  -53.6259 H         1 UNK         0.0800 
    246 H246       -2.2166  -14.4669  -52.1092 H         1 UNK         0.0800 
    247 H247       -3.1503  -15.4027  -50.9646 H         1 UNK         0.0800 
@<TRIPOS>BOND
     1    1    2 1    
     2    1  127 1    
     3    1  128 1    
     4    1  129 1    
     5    2    3 2    
     6    2    4 am   BACKBONE|DICT|INTERRES
     7    4    5 1    
     8    4  130 1    
     9    5    6 1    
    10    5   65 1    
    11    5  131 1    
    12    6    7 1    
    13    6  132 1    
    14    6  133 1    
    15    7    8 1    
    16    8    9 1    
    17    8  134 1    
    18    8  135 1    
    19    9   10 ar   
    20    9   14 ar   
    21   10   11 ar   
    22   10  136 1    
    23   11   12 ar   
    24   11  126 1    
    25   12   13 ar   
    26   12  137 1    
    27   13   14 ar   
    28   13   15 1    
    29   14  138 1    
    30   15   16 1    
    31   15  139 1    
    32   15  140 1    
    33   16   17 1    
    34   17   18 1    
    35   17  141 1    
    36   17  142 1    
    37   18   19 1    
    38   18   67 1    
    39   18  143 1    
    40   19   20 am   BACKBONE|DICT|INTERRES
    41   19  144 1    
    42   20   21 2    
    43   20   22 1    
    44   22   23 1    
    45   22   24 1    
    46   22  145 1    
    47   23  146 1    
    48   23  147 1    
    49   23  148 1    
    50   24   25 am   BACKBONE|DICT|INTERRES
    51   24  149 1    
    52   25   26 2    
    53   25   27 1    
    54   27   28 1    
    55   27   29 1    
    56   27  150 1    
    57   28  151 1    
    58   28  152 1    
    59   28  153 1    
    60   29   30 am   BACKBONE|DICT|INTERRES
    61   29  154 1    
    62   30   31 2    
    63   30   32 1    
    64   32   33 1    
    65   32   34 1    
    66   32  155 1    
    67   33  156 1    
    68   33  157 1    
    69   33  158 1    
    70   34   35 am   BACKBONE|DICT|INTERRES
    71   34  159 1    
    72   35   36 2    
    73   35   37 1    
    74   37   38 1    
    75   37   39 1    
    76   37  160 1    
    77   38  161 1    
    78   38  162 1    
    79   38  163 1    
    80   39   40 am   BACKBONE|DICT|INTERRES
    81   39  164 1    
    82   40   41 2    
    83   40   42 1    
    84   42   43 1    
    85   42   44 1    
    86   42  165 1    
    87   43  166 1    
    88   43  167 1    
    89   43  168 1    
    90   44   45 am   BACKBONE|DICT|INTERRES
    91   44  169 1    
    92   45   46 2    
    93   45   47 1    
    94   47   48 1    
    95   47   49 1    
    96   47  170 1    
    97   48  171 1    
    98   48  172 1    
    99   48  173 1    
   100   49   50 am   BACKBONE|DICT|INTERRES
   101   49  174 1    
   102   50   51 2    
   103   50   52 1    
   104   52   53 1    
   105   52   54 1    
   106   52  175 1    
   107   53  176 1    
   108   53  177 1    
   109   53  178 1    
   110   54   55 am   BACKBONE|DICT|INTERRES
   111   54  179 1    
   112   55   56 2    
   113   55   57 1    
   114   57   58 1    
   115   57   59 1    
   116   57  180 1    
   117   58  181 1    
   118   58  182 1    
   119   58  183 1    
   120   59   60 am   BACKBONE|DICT|INTERRES
   121   59  184 1    
   122   60   61 2    
   123   60   62 1    
   124   62   63 1    
   125   62   64 1    
   126   62  185 1    
   127   63  186 1    
   128   63  187 1    
   129   63  188 1    
   130   64   65 am   BACKBONE|DICT|INTERRES
   131   64  189 1    
   132   65   66 2    
   133   67   68 2    
   134   67   69 am   BACKBONE|DICT|INTERRES
   135   69   70 1    
   136   69  190 1    
   137   70   71 1    
   138   70   72 1    
   139   70  191 1    
   140   71  192 1    
   141   71  193 1    
   142   71  194 1    
   143   72   73 2    
   144   72   74 am   BACKBONE|DICT|INTERRES
   145   74   75 1    
   146   74  195 1    
   147   75   76 1    
   148   75   77 1    
   149   75  196 1    
   150   76  197 1    
   151   76  198 1    
   152   76  199 1    
   153   77   78 2    
   154   77   79 am   BACKBONE|DICT|INTERRES
   155   79   80 1    
   156   79  200 1    
   157   80   81 1    
   158   80   82 1    
   159   80  201 1    
   160   81  202 1    
   161   81  203 1    
   162   81  204 1    
   163   82   83 2    
   164   82   84 am   BACKBONE|DICT|INTERRES
   165   84   85 1    
   166   84  205 1    
   167   85   86 1    
   168   85   87 1    
   169   85  206 1    
   170   86  207 1    
   171   86  208 1    
   172   86  209 1    
   173   87   88 2    
   174   87   89 am   BACKBONE|DICT|INTERRES
   175   89   90 1    
   176   89  210 1    
   177   90   91 1    
   178   90   92 1    
   179   90  211 1    
   180   91  212 1    
   181   91  213 1    
   182   91  214 1    
   183   92   93 2    
   184   92   94 am   BACKBONE|DICT|INTERRES
   185   94   95 1    
   186   94  215 1    
   187   95   96 1    
   188   95   97 1    
   189   95  216 1    
   190   96  217 1    
   191   96  218 1    
   192   96  219 1    
   193   97   98 2    
   194   97   99 am   BACKBONE|DICT|INTERRES
   195   99  100 1    
   196   99  220 1    
   197  100  101 1    
   198  100  102 1    
   199  100  221 1    
   200  101  222 1    
   201  101  223 1    
   202  101  224 1    
   203  102  103 2    
   204  102  104 am   BACKBONE|DICT|INTERRES
   205  104  105 1    
   206  104  225 1    
   207  105  106 1    
   208  105  107 1    
   209  105  226 1    
   210  106  227 1    
   211  106  228 1    
   212  106  229 1    
   213  107  108 2    
   214  107  109 am   BACKBONE|DICT|INTERRES
   215  109  110 1    
   216  109  230 1    
   217  110  111 1    
   218  110  112 1    
   219  110  231 1    
   220  111  232 1    
   221  111  233 1    
   222  111  234 1    
   223  112  113 2    
   224  112  114 am   BACKBONE|DICT|INTERRES
   225  114  115 1    
   226  114  235 1    
   227  115  116 1    
   228  115  117 1    
   229  115  236 1    
   230  116  237 1    
   231  116  238 1    
   232  116  239 1    
   233  117  118 2    
   234  117  119 am   BACKBONE|DICT|INTERRES
   235  119  120 1    
   236  119  240 1    
   237  120  121 1    
   238  120  124 1    
   239  120  241 1    
   240  121  122 am   BACKBONE|DICT|INTERRES
   241  121  123 2    
   242  122  242 1    
   243  122  243 1    
   244  124  125 1    
   245  124  244 1    
   246  124  245 1    
   247  125  126 1    
   248  126  246 1    
   249  126  247 1    
@<TRIPOS>SUBSTRUCTURE
     1 UNK         1 GROUP             0       ****    0 ROOT    
