@<TRIPOS>MOLECULE
3R540
247   249    1
SMALL
USER_CHARGES


@<TRIPOS>ATOM
      1 CA         -1.1011  -12.1770  -43.1313 C.3       0 UNK        -0.1800 
      2 C          -1.0758  -11.5338  -44.5112 C.2       0 UNK         0.5000 
      3 O          -0.6955  -10.3697  -44.6414 O.2       0 UNK        -0.5000 
      4 N          -1.4997  -12.2770  -45.5413 N.am      1 UNK        -0.5000 
      5 CA         -1.5672  -11.8370  -46.9374 C.3       1 UNK         0.1400 
      6 C6         -2.5956  -12.6556  -47.7639 C.3       23 UNK        -0.0398 
      7 S7         -2.4334  -14.4787  -47.6846 S.3       23 UNK        -0.2404 
      8 C8         -2.2894  -14.8690  -49.4576 C.3       23 UNK        -0.0205 
      9 C9         -2.4012  -16.3625  -49.7219 C.ar      23 UNK        -0.0193 
     10 C10        -3.6602  -16.9579  -49.8563 C.ar      23 UNK        -0.1150 
     11 C11        -3.7734  -18.3251  -50.1242 C.ar      23 UNK        -0.0193 
     12 C12        -2.6169  -19.0975  -50.2393 C.ar      23 UNK        -0.1150 
     13 C13        -1.3522  -18.5154  -50.1233 C.ar      23 UNK        -0.0193 
     14 C14        -1.2504  -17.1435  -49.8676 C.ar      23 UNK        -0.1150 
     15 C15        -0.1171  -19.3845  -50.3289 C.3       23 UNK        -0.0205 
     16 S16         1.2014  -19.1514  -49.0936 S.3       23 UNK        -0.2404 
     17 C17         0.3130  -19.2972  -47.5102 C.3       23 UNK        -0.0398 
     18 CA         -0.0498  -20.7555  -47.1172 C.3       11 UNK         0.1400 
     19 N           0.2529  -21.0308  -45.7095 N.am      11 UNK        -0.5000 
     20 C           0.1340  -22.2186  -45.1010 C.2       10 UNK         0.5000 
     21 O          -0.1821  -23.2564  -45.6823 O.2       10 UNK        -0.5000 
     22 CA          0.3471  -22.2356  -43.5745 C.3       10 UNK         0.1400 
     23 CB          1.8389  -22.3314  -43.2224 C.3       10 UNK        -0.1800 
     24 N          -0.2448  -21.0681  -42.9160 N.am      10 UNK        -0.5000 
     25 C          -1.5620  -20.8179  -42.8768 C.2       9 UNK         0.5000 
     26 O          -2.4130  -21.5819  -43.3306 O.2       9 UNK        -0.5000 
     27 CA         -2.0037  -19.4679  -42.2832 C.3       9 UNK         0.1400 
     28 CB         -2.0368  -19.5283  -40.7492 C.3       9 UNK        -0.1800 
     29 N          -1.1614  -18.3546  -42.7249 N.am      9 UNK        -0.5000 
     30 C          -1.0492  -17.9528  -43.9998 C.2       8 UNK         0.5000 
     31 O          -1.6899  -18.4437  -44.9270 O.2       8 UNK        -0.5000 
     32 CA         -0.0111  -16.8607  -44.3077 C.3       8 UNK         0.1400 
     33 CB         -0.5896  -15.4669  -44.0383 C.3       8 UNK        -0.1800 
     34 N           1.2286  -17.0315  -43.5531 N.am      8 UNK        -0.5000 
     35 C           2.0529  -18.0821  -43.6555 C.2       7 UNK         0.5000 
     36 O           1.8772  -19.0165  -44.4347 O.2       7 UNK        -0.5000 
     37 CA          3.2380  -18.1267  -42.6786 C.3       7 UNK         0.1400 
     38 CB          4.3719  -17.1955  -43.1329 C.3       7 UNK        -0.1800 
     39 N           2.8262  -17.7816  -41.3190 N.am      7 UNK        -0.5000 
     40 C           2.0446  -18.5511  -40.5488 C.2       6 UNK         0.5000 
     41 O           1.6180  -19.6539  -40.8933 O.2       6 UNK        -0.5000 
     42 CA          1.6510  -17.9745  -39.1761 C.3       6 UNK         0.1400 
     43 CB          2.7409  -18.2673  -38.1343 C.3       6 UNK        -0.1800 
     44 N           1.3971  -16.5325  -39.2199 N.am      6 UNK        -0.5000 
     45 C           0.3495  -15.9721  -39.8402 C.2       5 UNK         0.5000 
     46 O          -0.5196  -16.6143  -40.4286 O.2       5 UNK        -0.5000 
     47 CA          0.2918  -14.4322  -39.8489 C.3       5 UNK         0.1400 
     48 CB         -0.2941  -13.9024  -38.5318 C.3       5 UNK        -0.1800 
     49 N           1.5857  -13.7876  -40.1041 N.am      5 UNK        -0.5000 
     50 C           2.3250  -13.9903  -41.2018 C.2       4 UNK         0.5000 
     51 O           2.0359  -14.8154  -42.0698 O.2       4 UNK        -0.5000 
     52 CA          3.6167  -13.1637  -41.3490 C.3       4 UNK         0.1400 
     53 CB          4.7763  -13.8546  -40.6150 C.3       4 UNK        -0.1800 
     54 N           3.9747  -13.0095  -42.7614 N.am      4 UNK        -0.5000 
     55 C           3.2512  -12.3071  -43.6421 C.2       3 UNK         0.5000 
     56 O           2.3334  -11.5475  -43.3186 O.2       3 UNK        -0.5000 
     57 CA          3.5886  -12.5115  -45.1274 C.3       3 UNK         0.1400 
     58 CB          3.3531  -13.9736  -45.5600 C.3       3 UNK        -0.1800 
     59 N           2.7408  -11.6248  -45.9151 N.am      3 UNK        -0.5000 
     60 C           2.9546  -11.2271  -47.1728 C.2       2 UNK         0.5000 
     61 O           3.9386  -11.5610  -47.8358 O.2       2 UNK        -0.5000 
     62 CA          1.8830  -10.2931  -47.7759 C.3       2 UNK         0.1400 
     63 CB          1.9599  -10.1910  -49.3142 C.3       2 UNK        -0.1800 
     64 N           0.5217  -10.6274  -47.3357 N.am      2 UNK        -0.5000 
     65 C          -0.1603  -11.7584  -47.5740 C.2       1 UNK         0.5000 
     66 O           0.2804  -12.7003  -48.2334 O.2       1 UNK        -0.5000 
     67 C          -1.5241  -21.0730  -47.4475 C.2       11 UNK         0.5000 
     68 O          -1.7980  -21.7934  -48.4070 O.2       11 UNK        -0.5000 
     69 N          -2.4442  -20.5639  -46.6172 N.am      12 UNK        -0.5000 
     70 CA         -3.8852  -20.7784  -46.7310 C.3       12 UNK         0.1400 
     71 CB         -4.6197  -19.8506  -45.7530 C.3       12 UNK        -0.1800 
     72 C          -4.3032  -22.2443  -46.5194 C.2       12 UNK         0.5000 
     73 O          -5.2366  -22.7011  -47.1780 O.2       12 UNK        -0.5000 
     74 N          -3.5999  -22.9592  -45.6299 N.am      13 UNK        -0.5000 
     75 CA         -3.7708  -24.3945  -45.4032 C.3       13 UNK         0.1400 
     76 CB         -3.0394  -24.8073  -44.1169 C.3       13 UNK        -0.1800 
     77 C          -3.2984  -25.2406  -46.6007 C.2       13 UNK         0.5000 
     78 O          -3.9483  -26.2337  -46.9302 O.2       13 UNK        -0.5000 
     79 N          -2.1931  -24.8280  -47.2389 N.am      14 UNK        -0.5000 
     80 CA         -1.6762  -25.4261  -48.4710 C.3       14 UNK         0.1400 
     81 CB         -0.2456  -24.9269  -48.7265 C.3       14 UNK        -0.1800 
     82 C          -2.5864  -25.1497  -49.6828 C.2       14 UNK         0.5000 
     83 O          -2.7972  -26.0503  -50.4969 O.2       14 UNK        -0.5000 
     84 N          -3.1233  -23.9223  -49.7641 N.am      15 UNK        -0.5000 
     85 CA         -4.0708  -23.4315  -50.7685 C.3       15 UNK         0.1400 
     86 CB         -5.4631  -24.0611  -50.5390 C.3       15 UNK        -0.1800 
     87 C          -3.5198  -23.6274  -52.1941 C.2       15 UNK         0.5000 
     88 O          -2.4769  -23.0571  -52.5113 O.2       15 UNK        -0.5000 
     89 N          -4.1778  -24.4696  -53.0010 N.am      16 UNK        -0.5000 
     90 CA         -3.8109  -24.8323  -54.3726 C.3       16 UNK         0.1400 
     91 CB         -4.8966  -25.7666  -54.9307 C.3       16 UNK        -0.1800 
     92 C          -2.4209  -25.4873  -54.5319 C.2       16 UNK         0.5000 
     93 O          -1.9129  -25.5455  -55.6519 O.2       16 UNK        -0.5000 
     94 N          -1.8282  -25.9796  -53.4344 N.am      17 UNK        -0.5000 
     95 CA         -0.4672  -26.5177  -53.4151 C.3       17 UNK         0.1400 
     96 CB         -0.3292  -27.4980  -52.2398 C.3       17 UNK        -0.1800 
     97 C           0.6179  -25.4224  -53.3400 C.2       17 UNK         0.5000 
     98 O           1.7855  -25.7338  -53.5797 O.2       17 UNK        -0.5000 
     99 N           0.2378  -24.1827  -52.9982 N.am      18 UNK        -0.5000 
    100 CA         1.1487  -23.0498  -52.8187 C.3       18 UNK         0.1400 
    101 CB         1.1936  -22.6819  -51.3275 C.3       18 UNK        -0.1800 
    102 C          0.7485  -21.8386  -53.6795 C.2       18 UNK         0.5000 
    103 O          1.6221  -21.2086  -54.2771 O.2       18 UNK        -0.5000 
    104 N         -0.5527  -21.5397  -53.7383 N.am      19 UNK        -0.5000 
    105 CA        -1.1621  -20.4999  -54.5640 C.3       19 UNK         0.1400 
    106 CB        -2.1306  -19.6952  -53.6831 C.3       19 UNK        -0.1800 
    107 C         -1.8878  -21.1283  -55.7682 C.2       19 UNK         0.5000 
    108 O         -1.7889  -22.3357  -55.9933 O.2       19 UNK        -0.5000 
    109 N         -2.5932  -20.2907  -56.5404 N.am      20 UNK        -0.5000 
    110 CA        -3.3043  -20.6786  -57.7602 C.3       20 UNK         0.1400 
    111 CB        -3.8006  -19.4153  -58.4808 C.3       20 UNK        -0.1800 
    112 C         -4.4697  -21.6582  -57.5235 C.2       20 UNK         0.5000 
    113 O         -4.6379  -22.5869  -58.3150 O.2       20 UNK        -0.5000 
    114 N         -5.2436  -21.4427  -56.4500 N.am      21 UNK        -0.5000 
    115 CA        -6.3837  -22.2799  -56.0744 C.3       21 UNK         0.1400 
    116 CB        -7.5425  -22.1487  -57.0861 C.3       21 UNK        -0.1800 
    117 C         -6.8719  -21.9503  -54.6584 C.2       21 UNK         0.5000 
    118 O         -6.9578  -22.8501  -53.8239 O.2       21 UNK        -0.5000 
    119 N         -7.2068  -20.6717  -54.4302 N.am      22 UNK        -0.5000 
    120 CA        -7.8606  -20.1507  -53.2098 C.3       22 UNK         0.1400 
    121 C         -9.3315  -20.6367  -53.0062 C.2       22 UNK         0.5000 
    122 N        -10.0043  -21.1604  -54.0240 N.am      22 UNK        -0.7600 
    123 O         -9.8908  -20.5086  -51.9203 O.2       22 UNK        -0.5000 
    124 C124       -7.0031  -20.3096  -51.9218 C.3       23 UNK        -0.0398 
    125 S125       -5.4010  -19.4533  -52.0457 S.3       23 UNK        -0.2404 
    126 C126       -5.1355  -18.9748  -50.3110 C.3       23 UNK        -0.0205 
    127 H127       -1.8476  -12.9691  -43.0746 H         1 UNK         0.0600 
    128 H128       -1.3429  -11.4346  -42.3708 H         1 UNK         0.0600 
    129 H129       -0.1265  -12.6022  -42.8932 H         1 UNK         0.0600 
    130 H130       -1.7812  -13.2343  -45.3865 H         1 UNK         0.3000 
    131 H131       -1.9534  -10.8149  -46.9321 H         1 UNK         0.0600 
    132 H132       -2.5805  -12.3237  -48.8033 H         1 UNK         0.0800 
    133 H133       -3.5983  -12.4166  -47.4071 H         1 UNK         0.0800 
    134 H134       -1.3391  -14.4856  -49.8327 H         1 UNK         0.0800 
    135 H135       -3.0724  -14.3485  -50.0112 H         1 UNK         0.0800 
    136 H136       -4.5505  -16.3522  -49.7622 H         1 UNK         0.1150 
    137 H137       -2.7055  -20.1538  -50.4531 H         1 UNK         0.1150 
    138 H138       -0.2759  -16.6834  -49.7844 H         1 UNK         0.1150 
    139 H139       -0.4001  -20.4360  -50.3277 H         1 UNK         0.0800 
    140 H140        0.2947  -19.1815  -51.3180 H         1 UNK         0.0800 
    141 H141        0.9949  -18.8697  -46.7783 H         1 UNK         0.0800 
    142 H142       -0.5497  -18.6286  -47.4965 H         1 UNK         0.0800 
    143 H143        0.5675  -21.4441  -47.6981 H         1 UNK         0.0600 
    144 H144        0.5857  -20.2452  -45.1578 H         1 UNK         0.3000 
    145 H145       -0.1479  -23.1261  -43.1818 H         1 UNK         0.0600 
    146 H146        1.9849  -22.3997  -42.1442 H         1 UNK         0.0600 
    147 H147        2.2876  -23.2193  -43.6694 H         1 UNK         0.0600 
    148 H148        2.3978  -21.4669  -43.5797 H         1 UNK         0.0600 
    149 H149        0.3949  -20.4066  -42.4906 H         1 UNK         0.3000 
    150 H150       -3.0193  -19.2718  -42.6328 H         1 UNK         0.0600 
    151 H151       -2.6674  -20.3487  -40.4045 H         1 UNK         0.0600 
    152 H152       -2.4427  -18.6086  -40.3279 H         1 UNK         0.0600 
    153 H153       -1.0428  -19.6792  -40.3286 H         1 UNK         0.0600 
    154 H154       -0.6498  -17.8559  -42.0041 H         1 UNK         0.3000 
    155 H155        0.2339  -16.9241  -45.3697 H         1 UNK         0.0600 
    156 H156        0.1094  -14.6887  -44.3439 H         1 UNK         0.0600 
    157 H157       -0.8108  -15.3231  -42.9803 H         1 UNK         0.0600 
    158 H158       -1.5151  -15.3150  -44.5948 H         1 UNK         0.0600 
    159 H159        1.4723  -16.2827  -42.9061 H         1 UNK         0.3000 
    160 H160        3.6237  -19.1485  -42.6696 H         1 UNK         0.0600 
    161 H161        4.0632  -16.1510  -43.1333 H         1 UNK         0.0600 
    162 H162        4.6961  -17.4417  -44.1448 H         1 UNK         0.0600 
    163 H163        5.2410  -17.2871  -42.4815 H         1 UNK         0.0600 
    164 H164        3.0785  -16.8634  -40.9865 H         1 UNK         0.3000 
    165 H165        0.7332  -18.4733  -38.8573 H         1 UNK         0.0600 
    166 H166        3.6815  -17.7746  -38.3837 H         1 UNK         0.0600 
    167 H167        2.4383  -17.9315  -37.1423 H         1 UNK         0.0600 
    168 H168        2.9386  -19.3380  -38.0675 H         1 UNK         0.0600 
    169 H169        2.0699  -15.9318  -38.7669 H         1 UNK         0.3000 
    170 H170       -0.3811  -14.1398  -40.6577 H         1 UNK         0.0600 
    171 H171       -1.2648  -14.3557  -38.3261 H         1 UNK         0.0600 
    172 H172        0.3565  -14.1200  -37.6840 H         1 UNK         0.0600 
    173 H173       -0.4438  -12.8234  -38.5727 H         1 UNK         0.0600 
    174 H174        1.8917  -13.1067  -39.4240 H         1 UNK         0.3000 
    175 H175        3.4566  -12.1741  -40.9159 H         1 UNK         0.0600 
    176 H176        5.6958  -13.2749  -40.6982 H         1 UNK         0.0600 
    177 H177        4.5587  -13.9635  -39.5517 H         1 UNK         0.0600 
    178 H178        4.9713  -14.8509  -41.0137 H         1 UNK         0.0600 
    179 H179        4.7001  -13.6202  -43.1057 H         1 UNK         0.3000 
    180 H180        4.6350  -12.2411  -45.2814 H         1 UNK         0.0600 
    181 H181        3.5334  -14.1096  -46.6264 H         1 UNK         0.0600 
    182 H182        4.0226  -14.6553  -45.0363 H         1 UNK         0.0600 
    183 H183        2.3309  -14.2929  -45.3531 H         1 UNK         0.0600 
    184 H184        1.9424  -11.2645  -45.4056 H         1 UNK         0.3000 
    185 H185        2.0938   -9.3009  -47.3747 H         1 UNK         0.0600 
    186 H186        1.1957   -9.5186  -49.7037 H         1 UNK         0.0600 
    187 H187        2.9270   -9.7990  -49.6313 H         1 UNK         0.0600 
    188 H188        1.8297  -11.1615  -49.7936 H         1 UNK         0.0600 
    189 H189        0.0950   -9.9601  -46.7038 H         1 UNK         0.3000 
    190 H190       -2.1396  -19.9352  -45.8764 H         1 UNK         0.3000 
    191 H191       -4.1749  -20.5000  -47.7442 H         1 UNK         0.0600 
    192 H192       -5.7005  -19.9694  -45.8376 H         1 UNK         0.0600 
    193 H193       -4.3898  -18.8043  -45.9564 H         1 UNK         0.0600 
    194 H194       -4.3445  -20.0590  -44.7188 H         1 UNK         0.0600 
    195 H195       -2.9040  -22.4852  -45.0634 H         1 UNK         0.3000 
    196 H196       -4.8361  -24.5877  -45.2603 H         1 UNK         0.0600 
    197 H197       -3.1834  -25.8684  -43.9102 H         1 UNK         0.0600 
    198 H198       -3.4141  -24.2542  -43.2556 H         1 UNK         0.0600 
    199 H199       -1.9664  -24.6300  -44.1871 H         1 UNK         0.0600 
    200 H200       -1.6823  -24.0339  -46.8679 H         1 UNK         0.3000 
    201 H201       -1.6336  -26.5083  -48.3312 H         1 UNK         0.0600 
    202 H202        0.4203  -25.2124  -47.9122 H         1 UNK         0.0600 
    203 H203       -0.2057  -23.8424  -48.8203 H         1 UNK         0.0600 
    204 H204        0.1624  -25.3494  -49.6448 H         1 UNK         0.0600 
    205 H205       -2.7906  -23.2229  -49.1042 H         1 UNK         0.3000 
    206 H206       -4.1599  -22.3548  -50.6171 H         1 UNK         0.0600 
    207 H207       -5.8394  -23.8168  -49.5462 H         1 UNK         0.0600 
    208 H208       -6.1929  -23.6841  -51.2560 H         1 UNK         0.0600 
    209 H209       -5.4441  -25.1483  -50.6205 H         1 UNK         0.0600 
    210 H210       -5.0150  -24.9036  -52.6406 H         1 UNK         0.3000 
    211 H211       -3.8069  -23.9132  -54.9612 H         1 UNK         0.0600 
    212 H212       -4.9069  -26.7237  -54.4075 H         1 UNK         0.0600 
    213 H213       -4.7287  -25.9718  -55.9887 H         1 UNK         0.0600 
    214 H214       -5.8902  -25.3286  -54.8384 H         1 UNK         0.0600 
    215 H215       -2.3096  -25.9243  -52.5428 H         1 UNK         0.3000 
    216 H216       -0.2974  -27.0809  -54.3352 H         1 UNK         0.0600 
    217 H217        0.6455  -27.9873  -52.2527 H         1 UNK         0.0600 
    218 H218       -1.0861  -28.2811  -52.2864 H         1 UNK         0.0600 
    219 H219       -0.4267  -26.9941  -51.2791 H         1 UNK         0.0600 
    220 H220       -0.7491  -23.9958  -52.8562 H         1 UNK         0.3000 
    221 H221        2.1617  -23.3204  -53.1231 H         1 UNK         0.0600 
    222 H222        0.1912  -22.5412  -50.9230 H         1 UNK         0.0600 
    223 H223        1.6756  -23.4687  -50.7474 H         1 UNK         0.0600 
    224 H224        1.7575  -21.7634  -51.1598 H         1 UNK         0.0600 
    225 H225       -1.2211  -22.1351  -53.2513 H         1 UNK         0.3000 
    226 H226       -0.4006  -19.8222  -54.9545 H         1 UNK         0.0600 
    227 H227       -1.5933  -19.1987  -52.8784 H         1 UNK         0.0600 
    228 H228       -2.6473  -18.9133  -54.2396 H         1 UNK         0.0600 
    229 H229       -2.8862  -20.3404  -53.2353 H         1 UNK         0.0600 
    230 H230       -2.6209  -19.3110  -56.2986 H         1 UNK         0.3000 
    231 H231       -2.5866  -21.1780  -58.4146 H         1 UNK         0.0600 
    232 H232       -4.3191  -19.6717  -59.4057 H         1 UNK         0.0600 
    233 H233       -2.9705  -18.7606  -58.7468 H         1 UNK         0.0600 
    234 H234       -4.4950  -18.8444  -57.8631 H         1 UNK         0.0600 
    235 H235       -5.0080  -20.6904  -55.8178 H         1 UNK         0.3000 
    236 H236       -6.0525  -23.3190  -56.0708 H         1 UNK         0.0600 
    237 H237       -7.8387  -21.1093  -57.2307 H         1 UNK         0.0600 
    238 H238       -7.2738  -22.5546  -58.0609 H         1 UNK         0.0600 
    239 H239       -8.4214  -22.6993  -56.7482 H         1 UNK         0.0600 
    240 H240       -7.1193  -20.0077  -55.1857 H         1 UNK         0.3000 
    241 H241       -7.9661  -19.0791  -53.3829 H         1 UNK         0.0600 
    242 H242      -10.9568  -21.4597  -53.8842 H         1 UNK         0.3800 
    243 H243       -9.5780  -21.2554  -54.9308 H         1 UNK         0.3800 
    244 H244       -6.8277  -21.3598  -51.6905 H         1 UNK         0.0800 
    245 H245       -7.5349  -19.8980  -51.0626 H         1 UNK         0.0800 
    246 H246       -5.2086  -19.8617  -49.6825 H         1 UNK         0.0800 
    247 H247       -5.9310  -18.2990  -49.9945 H         1 UNK         0.0800 
@<TRIPOS>BOND
     1    1    2 1    
     2    1  127 1    
     3    1  128 1    
     4    1  129 1    
     5    2    3 2    
     6    2    4 am   BACKBONE|DICT|INTERRES
     7    4    5 1    
     8    4  130 1    
     9    5    6 1    
    10    5   65 1    
    11    5  131 1    
    12    6    7 1    
    13    6  132 1    
    14    6  133 1    
    15    7    8 1    
    16    8    9 1    
    17    8  134 1    
    18    8  135 1    
    19    9   10 ar   
    20    9   14 ar   
    21   10   11 ar   
    22   10  136 1    
    23   11   12 ar   
    24   11  126 1    
    25   12   13 ar   
    26   12  137 1    
    27   13   14 ar   
    28   13   15 1    
    29   14  138 1    
    30   15   16 1    
    31   15  139 1    
    32   15  140 1    
    33   16   17 1    
    34   17   18 1    
    35   17  141 1    
    36   17  142 1    
    37   18   19 1    
    38   18   67 1    
    39   18  143 1    
    40   19   20 am   BACKBONE|DICT|INTERRES
    41   19  144 1    
    42   20   21 2    
    43   20   22 1    
    44   22   23 1    
    45   22   24 1    
    46   22  145 1    
    47   23  146 1    
    48   23  147 1    
    49   23  148 1    
    50   24   25 am   BACKBONE|DICT|INTERRES
    51   24  149 1    
    52   25   26 2    
    53   25   27 1    
    54   27   28 1    
    55   27   29 1    
    56   27  150 1    
    57   28  151 1    
    58   28  152 1    
    59   28  153 1    
    60   29   30 am   BACKBONE|DICT|INTERRES
    61   29  154 1    
    62   30   31 2    
    63   30   32 1    
    64   32   33 1    
    65   32   34 1    
    66   32  155 1    
    67   33  156 1    
    68   33  157 1    
    69   33  158 1    
    70   34   35 am   BACKBONE|DICT|INTERRES
    71   34  159 1    
    72   35   36 2    
    73   35   37 1    
    74   37   38 1    
    75   37   39 1    
    76   37  160 1    
    77   38  161 1    
    78   38  162 1    
    79   38  163 1    
    80   39   40 am   BACKBONE|DICT|INTERRES
    81   39  164 1    
    82   40   41 2    
    83   40   42 1    
    84   42   43 1    
    85   42   44 1    
    86   42  165 1    
    87   43  166 1    
    88   43  167 1    
    89   43  168 1    
    90   44   45 am   BACKBONE|DICT|INTERRES
    91   44  169 1    
    92   45   46 2    
    93   45   47 1    
    94   47   48 1    
    95   47   49 1    
    96   47  170 1    
    97   48  171 1    
    98   48  172 1    
    99   48  173 1    
   100   49   50 am   BACKBONE|DICT|INTERRES
   101   49  174 1    
   102   50   51 2    
   103   50   52 1    
   104   52   53 1    
   105   52   54 1    
   106   52  175 1    
   107   53  176 1    
   108   53  177 1    
   109   53  178 1    
   110   54   55 am   BACKBONE|DICT|INTERRES
   111   54  179 1    
   112   55   56 2    
   113   55   57 1    
   114   57   58 1    
   115   57   59 1    
   116   57  180 1    
   117   58  181 1    
   118   58  182 1    
   119   58  183 1    
   120   59   60 am   BACKBONE|DICT|INTERRES
   121   59  184 1    
   122   60   61 2    
   123   60   62 1    
   124   62   63 1    
   125   62   64 1    
   126   62  185 1    
   127   63  186 1    
   128   63  187 1    
   129   63  188 1    
   130   64   65 am   BACKBONE|DICT|INTERRES
   131   64  189 1    
   132   65   66 2    
   133   67   68 2    
   134   67   69 am   BACKBONE|DICT|INTERRES
   135   69   70 1    
   136   69  190 1    
   137   70   71 1    
   138   70   72 1    
   139   70  191 1    
   140   71  192 1    
   141   71  193 1    
   142   71  194 1    
   143   72   73 2    
   144   72   74 am   BACKBONE|DICT|INTERRES
   145   74   75 1    
   146   74  195 1    
   147   75   76 1    
   148   75   77 1    
   149   75  196 1    
   150   76  197 1    
   151   76  198 1    
   152   76  199 1    
   153   77   78 2    
   154   77   79 am   BACKBONE|DICT|INTERRES
   155   79   80 1    
   156   79  200 1    
   157   80   81 1    
   158   80   82 1    
   159   80  201 1    
   160   81  202 1    
   161   81  203 1    
   162   81  204 1    
   163   82   83 2    
   164   82   84 am   BACKBONE|DICT|INTERRES
   165   84   85 1    
   166   84  205 1    
   167   85   86 1    
   168   85   87 1    
   169   85  206 1    
   170   86  207 1    
   171   86  208 1    
   172   86  209 1    
   173   87   88 2    
   174   87   89 am   BACKBONE|DICT|INTERRES
   175   89   90 1    
   176   89  210 1    
   177   90   91 1    
   178   90   92 1    
   179   90  211 1    
   180   91  212 1    
   181   91  213 1    
   182   91  214 1    
   183   92   93 2    
   184   92   94 am   BACKBONE|DICT|INTERRES
   185   94   95 1    
   186   94  215 1    
   187   95   96 1    
   188   95   97 1    
   189   95  216 1    
   190   96  217 1    
   191   96  218 1    
   192   96  219 1    
   193   97   98 2    
   194   97   99 am   BACKBONE|DICT|INTERRES
   195   99  100 1    
   196   99  220 1    
   197  100  101 1    
   198  100  102 1    
   199  100  221 1    
   200  101  222 1    
   201  101  223 1    
   202  101  224 1    
   203  102  103 2    
   204  102  104 am   BACKBONE|DICT|INTERRES
   205  104  105 1    
   206  104  225 1    
   207  105  106 1    
   208  105  107 1    
   209  105  226 1    
   210  106  227 1    
   211  106  228 1    
   212  106  229 1    
   213  107  108 2    
   214  107  109 am   BACKBONE|DICT|INTERRES
   215  109  110 1    
   216  109  230 1    
   217  110  111 1    
   218  110  112 1    
   219  110  231 1    
   220  111  232 1    
   221  111  233 1    
   222  111  234 1    
   223  112  113 2    
   224  112  114 am   BACKBONE|DICT|INTERRES
   225  114  115 1    
   226  114  235 1    
   227  115  116 1    
   228  115  117 1    
   229  115  236 1    
   230  116  237 1    
   231  116  238 1    
   232  116  239 1    
   233  117  118 2    
   234  117  119 am   BACKBONE|DICT|INTERRES
   235  119  120 1    
   236  119  240 1    
   237  120  121 1    
   238  120  124 1    
   239  120  241 1    
   240  121  122 am   BACKBONE|DICT|INTERRES
   241  121  123 2    
   242  122  242 1    
   243  122  243 1    
   244  124  125 1    
   245  124  244 1    
   246  124  245 1    
   247  125  126 1    
   248  126  246 1    
   249  126  247 1    
@<TRIPOS>SUBSTRUCTURE
     1 UNK         1 GROUP             0       ****    0 ROOT    
