@<TRIPOS>MOLECULE
3R540
247   249    1
SMALL
USER_CHARGES


@<TRIPOS>ATOM
      1 CA         -2.7794  -10.0182  -46.1385 C.3       0 UNK        -0.1800 
      2 C          -1.8424  -11.0571  -46.7382 C.2       0 UNK         0.5000 
      3 O          -0.8735  -11.4474  -46.0883 O.2       0 UNK        -0.5000 
      4 N          -2.1371  -11.5089  -47.9658 N.am      1 UNK        -0.5000 
      5 CA         -1.3620  -12.4817  -48.7485 C.3       1 UNK         0.1400 
      6 C6         -1.1773  -13.8339  -47.9967 C.3       23 UNK        -0.0398 
      7 S7         -0.9928  -15.2842  -49.0939 S.3       23 UNK        -0.2404 
      8 C8          0.6734  -15.8782  -48.6319 C.3       23 UNK        -0.0205 
      9 C9          1.1774  -17.0416  -49.4818 C.ar      23 UNK        -0.0193 
     10 C10         0.9311  -17.1030  -50.8591 C.ar      23 UNK        -0.1150 
     11 C11         1.4343  -18.1550  -51.6286 C.ar      23 UNK        -0.0193 
     12 C12         2.1908  -19.1546  -51.0139 C.ar      23 UNK        -0.1150 
     13 C13         2.4570  -19.1068  -49.6429 C.ar      23 UNK        -0.0193 
     14 C14         1.9513  -18.0427  -48.8854 C.ar      23 UNK        -0.1150 
     15 C15         3.3312  -20.1897  -49.0151 C.3       23 UNK        -0.0205 
     16 S16         2.7434  -20.7763  -47.3934 S.3       23 UNK        -0.2404 
     17 C17         1.0632  -21.3615  -47.7956 C.3       23 UNK        -0.0398 
     18 CA          0.6619  -22.5940  -46.9531 C.3       11 UNK         0.1400 
     19 N           0.5727  -22.2971  -45.5215 N.am      11 UNK        -0.5000 
     20 C           0.3981  -23.2116  -44.5583 C.2       10 UNK         0.5000 
     21 O           0.3208  -24.4228  -44.7696 O.2       10 UNK        -0.5000 
     22 CA          0.2374  -22.6781  -43.1236 C.3       10 UNK         0.1400 
     23 CB          1.5964  -22.2937  -42.5191 C.3       10 UNK        -0.1800 
     24 N          -0.6729  -21.5344  -43.0545 N.am      10 UNK        -0.5000 
     25 C          -1.9896  -21.6021  -43.2965 C.2       9 UNK         0.5000 
     26 O          -2.5804  -22.6437  -43.5838 O.2       9 UNK        -0.5000 
     27 CA         -2.7720  -20.2763  -43.2460 C.3       9 UNK         0.1400 
     28 CB         -3.0586  -19.8655  -41.7939 C.3       9 UNK        -0.1800 
     29 N          -2.0877  -19.1812  -43.9328 N.am      9 UNK        -0.5000 
     30 C          -1.7808  -19.1761  -45.2374 C.2       8 UNK         0.5000 
     31 O          -2.0609  -20.0860  -46.0129 O.2       8 UNK        -0.5000 
     32 CA         -0.9810  -17.9729  -45.7568 C.3       8 UNK         0.1400 
     33 CB         -1.9108  -16.7649  -45.9348 C.3       8 UNK        -0.1800 
     34 N           0.1382  -17.6090  -44.8861 N.am      8 UNK        -0.5000 
     35 C           1.1157  -18.4359  -44.4856 C.2       7 UNK         0.5000 
     36 O           1.1855  -19.6210  -44.7999 O.2       7 UNK        -0.5000 
     37 CA          2.1534  -17.8572  -43.5127 C.3       7 UNK         0.1400 
     38 CB          3.1828  -16.9858  -44.2497 C.3       7 UNK        -0.1800 
     39 N           1.5064  -17.0862  -42.4531 N.am      7 UNK        -0.5000 
     40 C           0.7634  -17.6275  -41.4763 C.2       6 UNK         0.5000 
     41 O           0.6147  -18.8399  -41.3171 O.2       6 UNK        -0.5000 
     42 CA          0.0308  -16.6408  -40.5486 C.3       6 UNK         0.1400 
     43 CB          0.9602  -16.1593  -39.4244 C.3       6 UNK        -0.1800 
     44 N          -0.4961  -15.4820  -41.2728 N.am      6 UNK        -0.5000 
     45 C          -1.4866  -15.5411  -42.1746 C.2       5 UNK         0.5000 
     46 O          -2.0939  -16.5755  -42.4521 O.2       5 UNK        -0.5000 
     47 CA         -1.8249  -14.2340  -42.9196 C.3       5 UNK         0.1400 
     48 CB         -2.8870  -13.4330  -42.1527 C.3       5 UNK        -0.1800 
     49 N          -0.6571  -13.3812  -43.1640 N.am      5 UNK        -0.5000 
     50 C           0.3795  -13.7223  -43.9392 C.2       4 UNK         0.5000 
     51 O           0.4772  -14.8117  -44.5107 O.2       4 UNK        -0.5000 
     52 CA          1.5207  -12.7055  -44.0585 C.3       4 UNK         0.1400 
     53 CB          2.4118  -12.7422  -42.8030 C.3       4 UNK        -0.1800 
     54 N           2.3085  -13.0479  -45.2370 N.am      4 UNK        -0.5000 
     55 C           3.1337  -12.2301  -45.8971 C.2       3 UNK         0.5000 
     56 O           3.3414  -11.0586  -45.5794 O.2       3 UNK        -0.5000 
     57 CA          3.8248  -12.8116  -47.1378 C.3       3 UNK         0.1400 
     58 CB          4.3008  -14.2657  -46.9453 C.3       3 UNK        -0.1800 
     59 N           2.8933  -12.7491  -48.2572 N.am      3 UNK        -0.5000 
     60 C           3.1889  -12.3505  -49.5001 C.2       2 UNK         0.5000 
     61 O           4.3103  -11.9760  -49.8459 O.2       2 UNK        -0.5000 
     62 CA          2.0547  -12.3962  -50.5490 C.3       2 UNK         0.1400 
     63 CB          2.3723  -13.4367  -51.6363 C.3       2 UNK        -0.1800 
     64 N           0.7380  -12.7129  -49.9885 N.am      2 UNK        -0.5000 
     65 C          -0.0328  -11.8841  -49.2758 C.2       1 UNK         0.5000 
     66 O           0.2705  -10.7091  -49.0551 O.2       1 UNK        -0.5000 
     67 C          -0.6428  -23.2140  -47.4846 C.2       11 UNK         0.5000 
     68 O          -0.5805  -24.1998  -48.2176 O.2       11 UNK        -0.5000 
     69 N          -1.7963  -22.6639  -47.0798 N.am      12 UNK        -0.5000 
     70 CA         -3.1161  -23.1623  -47.4585 C.3       12 UNK         0.1400 
     71 CB         -4.2053  -22.1687  -47.0290 C.3       12 UNK        -0.1800 
     72 C          -3.4113  -24.5644  -46.9037 C.2       12 UNK         0.5000 
     73 O          -3.9683  -25.3942  -47.6226 O.2       12 UNK        -0.5000 
     74 N          -2.9999  -24.8195  -45.6534 N.am      13 UNK        -0.5000 
     75 CA         -3.0952  -26.1293  -45.0081 C.3       13 UNK         0.1400 
     76 CB         -2.7235  -26.0026  -43.5231 C.3       13 UNK        -0.1800 
     77 C          -2.2291  -27.1973  -45.7020 C.2       13 UNK         0.5000 
     78 O          -2.6715  -28.3383  -45.8389 O.2       13 UNK        -0.5000 
     79 N          -1.0282  -26.8040  -46.1491 N.am      14 UNK        -0.5000 
     80 CA         -0.1138  -27.6521  -46.9126 C.3       14 UNK         0.1400 
     81 CB          1.2821  -27.0100  -46.9331 C.3       14 UNK        -0.1800 
     82 C          -0.6154  -27.9272  -48.3435 C.2       14 UNK         0.5000 
     83 O          -0.5476  -29.0689  -48.8006 O.2       14 UNK        -0.5000 
     84 N          -1.1070  -26.8819  -49.0230 N.am      15 UNK        -0.5000 
     85 CA         -1.6069  -26.9415  -50.3983 C.3       15 UNK         0.1400 
     86 CB         -1.6977  -25.5140  -50.9608 C.3       15 UNK        -0.1800 
     87 C          -2.9694  -27.6450  -50.5362 C.2       15 UNK         0.5000 
     88 O          -3.2529  -28.1934  -51.6019 O.2       15 UNK        -0.5000 
     89 N          -3.7898  -27.5877  -49.4765 N.am      16 UNK        -0.5000 
     90 CA         -5.1918  -28.0187  -49.4111 C.3       16 UNK         0.1400 
     91 CB         -5.3272  -29.5405  -49.6268 C.3       16 UNK        -0.1800 
     92 C          -6.1084  -27.1818  -50.3327 C.2       16 UNK         0.5000 
     93 O          -7.0928  -27.6930  -50.8698 O.2       16 UNK        -0.5000 
     94 N          -5.7630  -25.9002  -50.4879 N.am      17 UNK        -0.5000 
     95 CA         -6.4450  -24.8835  -51.2800 C.3       17 UNK         0.1400 
     96 CB         -6.1155  -25.0631  -52.7724 C.3       17 UNK        -0.1800 
     97 C          -5.9633  -23.5195  -50.7684 C.2       17 UNK         0.5000 
     98 O          -4.8658  -23.4439  -50.2156 O.2       17 UNK        -0.5000 
     99 N          -6.7791  -22.4726  -50.9388 N.am      18 UNK        -0.5000 
    100 CA        -6.5064  -21.1235  -50.4359 C.3       18 UNK         0.1400 
    101 CB        -7.7211  -20.2252  -50.7178 C.3       18 UNK        -0.1800 
    102 C         -5.2309  -20.4994  -51.0348 C.2       18 UNK         0.5000 
    103 O         -5.0871  -20.4611  -52.2578 O.2       18 UNK        -0.5000 
    104 N         -4.3613  -19.9641  -50.1664 N.am      19 UNK        -0.5000 
    105 CA        -3.1062  -19.2950  -50.5336 C.3       19 UNK         0.1400 
    106 CB        -2.2527  -19.1044  -49.2713 C.3       19 UNK        -0.1800 
    107 C         -3.3078  -17.9565  -51.2758 C.2       19 UNK         0.5000 
    108 O         -2.3720  -17.4511  -51.8907 O.2       19 UNK        -0.5000 
    109 N         -4.5355  -17.4203  -51.2536 N.am      20 UNK        -0.5000 
    110 CA        -4.9532  -16.2781  -52.0648 C.3       20 UNK         0.1400 
    111 CB        -6.3568  -15.8390  -51.6214 C.3       20 UNK        -0.1800 
    112 C         -4.9329  -16.5711  -53.5802 C.2       20 UNK         0.5000 
    113 O         -4.7373  -15.6435  -54.3662 O.2       20 UNK        -0.5000 
    114 N         -5.1109  -17.8447  -53.9697 N.am      21 UNK        -0.5000 
    115 CA        -5.1497  -18.2908  -55.3655 C.3       21 UNK         0.1400 
    116 CB        -5.6264  -19.7499  -55.4227 C.3       21 UNK        -0.1800 
    117 C         -3.8076  -18.1332  -56.1059 C.2       21 UNK         0.5000 
    118 O         -3.8146  -17.9186  -57.3188 O.2       21 UNK        -0.5000 
    119 N         -2.6921  -18.2219  -55.3704 N.am      22 UNK        -0.5000 
    120 CA        -1.3321  -17.9616  -55.8691 C.3       22 UNK         0.1400 
    121 C         -0.8578  -16.4909  -55.6681 C.2       22 UNK         0.5000 
    122 N         -1.6854  -15.5779  -55.1716 N.am      22 UNK        -0.7600 
    123 O          0.2781  -16.1598  -55.9971 O.2       22 UNK        -0.5000 
    124 C124       -0.3069  -19.0149  -55.3634 C.3       23 UNK        -0.0398 
    125 S125       -0.2396  -19.2342  -53.5513 S.3       23 UNK        -0.2404 
    126 C126        1.1917  -18.1949  -53.1291 C.3       23 UNK        -0.0205 
    127 H127       -3.1995  -10.3886  -45.2034 H         1 UNK         0.0600 
    128 H128       -3.6036   -9.7778  -46.8106 H         1 UNK         0.0600 
    129 H129       -2.2328   -9.0991  -45.9276 H         1 UNK         0.0600 
    130 H130       -2.9352  -11.1172  -48.4458 H         1 UNK         0.3000 
    131 H131       -1.9736  -12.6716  -49.6320 H         1 UNK         0.0600 
    132 H132       -0.3519  -13.7845  -47.2843 H         1 UNK         0.0800 
    133 H133       -2.0661  -14.0286  -47.3953 H         1 UNK         0.0800 
    134 H134        0.6579  -16.1625  -47.5789 H         1 UNK         0.0800 
    135 H135        1.3951  -15.0688  -48.7187 H         1 UNK         0.0800 
    136 H136        0.3485  -16.3308  -51.3411 H         1 UNK         0.1150 
    137 H137        2.5854  -19.9641  -51.6121 H         1 UNK         0.1150 
    138 H138        2.1683  -17.9910  -47.8275 H         1 UNK         0.1150 
    139 H139        3.4147  -21.0501  -49.6809 H         1 UNK         0.0800 
    140 H140        4.3402  -19.7933  -48.8967 H         1 UNK         0.0800 
    141 H141        1.0260  -21.6009  -48.8602 H         1 UNK         0.0800 
    142 H142        0.3625  -20.5393  -47.6395 H         1 UNK         0.0800 
    143 H143        1.4409  -23.3497  -47.0757 H         1 UNK         0.0600 
    144 H144        0.6743  -21.3183  -45.2577 H         1 UNK         0.3000 
    145 H145       -0.1863  -23.4813  -42.5170 H         1 UNK         0.0600 
    146 H146        1.4893  -21.9702  -41.4836 H         1 UNK         0.0600 
    147 H147        2.2800  -23.1435  -42.5267 H         1 UNK         0.0600 
    148 H148        2.0731  -21.4846  -43.0729 H         1 UNK         0.0600 
    149 H149       -0.2588  -20.6326  -42.8580 H         1 UNK         0.3000 
    150 H150       -3.7271  -20.4371  -43.7500 H         1 UNK         0.0600 
    151 H151       -3.5795  -20.6598  -41.2578 H         1 UNK         0.0600 
    152 H152       -3.6893  -18.9772  -41.7539 H         1 UNK         0.0600 
    153 H153       -2.1398  -19.6462  -41.2486 H         1 UNK         0.0600 
    154 H154       -1.8554  -18.3646  -43.3761 H         1 UNK         0.3000 
    155 H155       -0.5605  -18.2351  -46.7296 H         1 UNK         0.0600 
    156 H156       -1.3436  -15.8586  -46.1285 H         1 UNK         0.0600 
    157 H157       -2.5904  -16.9143  -46.7734 H         1 UNK         0.0600 
    158 H158       -2.5237  -16.5852  -45.0527 H         1 UNK         0.0600 
    159 H159        0.1836  -16.6351  -44.5974 H         1 UNK         0.3000 
    160 H160        2.6860  -18.6930  -43.0537 H         1 UNK         0.0600 
    161 H161        2.7207  -16.1265  -44.7331 H         1 UNK         0.0600 
    162 H162        3.6917  -17.5601  -45.0250 H         1 UNK         0.0600 
    163 H163        3.9463  -16.6142  -43.5662 H         1 UNK         0.0600 
    164 H164        1.5336  -16.0819  -42.5406 H         1 UNK         0.3000 
    165 H165       -0.8096  -17.1711  -40.0952 H         1 UNK         0.0600 
    166 H166        0.4285  -15.5183  -38.7211 H         1 UNK         0.0600 
    167 H167        1.3562  -17.0033  -38.8580 H         1 UNK         0.0600 
    168 H168        1.8101  -15.5980  -39.8147 H         1 UNK         0.0600 
    169 H169       -0.0558  -14.5912  -41.0977 H         1 UNK         0.3000 
    170 H170       -2.2437  -14.5058  -43.8901 H         1 UNK         0.0600 
    171 H171       -3.7789  -14.0361  -41.9771 H         1 UNK         0.0600 
    172 H172       -2.5185  -13.1006  -41.1815 H         1 UNK         0.0600 
    173 H173       -3.1977  -12.5520  -42.7147 H         1 UNK         0.0600 
    174 H174       -0.6663  -12.4689  -42.7313 H         1 UNK         0.3000 
    175 H175        1.0908  -11.7097  -44.1838 H         1 UNK         0.0600 
    176 H176        1.8395  -12.5069  -41.9050 H         1 UNK         0.0600 
    177 H177        2.8624  -13.7252  -42.6594 H         1 UNK         0.0600 
    178 H178        3.2191  -12.0128  -42.8684 H         1 UNK         0.0600 
    179 H179        2.1456  -13.9894  -45.5688 H         1 UNK         0.3000 
    180 H180        4.7001  -12.1884  -47.3335 H         1 UNK         0.0600 
    181 H181        3.4693  -14.9670  -46.8699 H         1 UNK         0.0600 
    182 H182        4.9050  -14.3659  -46.0427 H         1 UNK         0.0600 
    183 H183        4.9189  -14.5837  -47.7851 H         1 UNK         0.0600 
    184 H184        1.9298  -12.9556  -48.0442 H         1 UNK         0.3000 
    185 H185        2.0044  -11.4117  -51.0188 H         1 UNK         0.0600 
    186 H186        2.4510  -14.4420  -51.2203 H         1 UNK         0.0600 
    187 H187        1.6019  -13.4521  -52.4076 H         1 UNK         0.0600 
    188 H188        3.3183  -13.2122  -52.1305 H         1 UNK         0.0600 
    189 H189        0.4005  -13.6526  -50.1510 H         1 UNK         0.3000 
    190 H190       -1.7793  -21.8201  -46.5100 H         1 UNK         0.3000 
    191 H191       -3.1151  -23.2286  -48.5447 H         1 UNK         0.0600 
    192 H192       -4.2183  -22.0300  -45.9474 H         1 UNK         0.0600 
    193 H193       -5.1929  -22.5196  -47.3309 H         1 UNK         0.0600 
    194 H194       -4.0518  -21.1938  -47.4893 H         1 UNK         0.0600 
    195 H195       -2.5897  -24.0695  -45.1070 H         1 UNK         0.3000 
    196 H196       -4.1353  -26.4561  -45.0699 H         1 UNK         0.0600 
    197 H197       -2.7996  -26.9659  -43.0174 H         1 UNK         0.0600 
    198 H198       -3.3911  -25.3115  -43.0083 H         1 UNK         0.0600 
    199 H199       -1.7033  -25.6414  -43.3916 H         1 UNK         0.0600 
    200 H200       -0.7206  -25.8578  -45.9533 H         1 UNK         0.3000 
    201 H201       -0.0327  -28.6122  -46.3985 H         1 UNK         0.0600 
    202 H202        1.6683  -26.8765  -45.9224 H         1 UNK         0.0600 
    203 H203        1.2719  -26.0328  -47.4165 H         1 UNK         0.0600 
    204 H204        1.9924  -27.6367  -47.4737 H         1 UNK         0.0600 
    205 H205       -1.0668  -25.9583  -48.5975 H         1 UNK         0.3000 
    206 H206       -0.8856  -27.4984  -51.0001 H         1 UNK         0.0600 
    207 H207       -0.7236  -25.0247  -50.9551 H         1 UNK         0.0600 
    208 H208       -2.0537  -25.5187  -51.9918 H         1 UNK         0.0600 
    209 H209       -2.3849  -24.8972  -50.3798 H         1 UNK         0.0600 
    210 H210       -3.4806  -27.0433  -48.6775 H         1 UNK         0.3000 
    211 H211       -5.5187  -27.8052  -48.3925 H         1 UNK         0.0600 
    212 H212       -5.1028  -29.8292  -50.6538 H         1 UNK         0.0600 
    213 H213       -6.3423  -29.8749  -49.4104 H         1 UNK         0.0600 
    214 H214       -4.6569  -30.0925  -48.9678 H         1 UNK         0.0600 
    215 H215       -4.9709  -25.5385  -49.9668 H         1 UNK         0.3000 
    216 H216       -7.5221  -24.9637  -51.1207 H         1 UNK         0.0600 
    217 H217       -5.0414  -25.0040  -52.9538 H         1 UNK         0.0600 
    218 H218       -6.5946  -24.2907  -53.3751 H         1 UNK         0.0600 
    219 H219       -6.4642  -26.0269  -53.1432 H         1 UNK         0.0600 
    220 H220       -7.6489  -22.6008  -51.4346 H         1 UNK         0.3000 
    221 H221       -6.3840  -21.1979  -49.3532 H         1 UNK         0.0600 
    222 H222       -8.6209  -20.6161  -50.2423 H         1 UNK         0.0600 
    223 H223       -7.9172  -20.1380  -51.7875 H         1 UNK         0.0600 
    224 H224       -7.5630  -19.2178  -50.3305 H         1 UNK         0.0600 
    225 H225       -4.5576  -20.0236  -49.1785 H         1 UNK         0.3000 
    226 H226       -2.5603  -19.9538  -51.2123 H         1 UNK         0.0600 
    227 H227       -2.0151  -20.0620  -48.8079 H         1 UNK         0.0600 
    228 H228       -1.3059  -18.6177  -49.5076 H         1 UNK         0.0600 
    229 H229       -2.7636  -18.4887  -48.5318 H         1 UNK         0.0600 
    230 H230       -5.2500  -17.8843  -50.7145 H         1 UNK         0.3000 
    231 H231       -4.2588  -15.4564  -51.8763 H         1 UNK         0.0600 
    232 H232       -7.0919  -16.6315  -51.7679 H         1 UNK         0.0600 
    233 H233       -6.6920  -14.9709  -52.1906 H         1 UNK         0.0600 
    234 H234       -6.3685  -15.5591  -50.5678 H         1 UNK         0.0600 
    235 H235       -5.2169  -18.5675  -53.2670 H         1 UNK         0.3000 
    236 H236       -5.8855  -17.6753  -55.8873 H         1 UNK         0.0600 
    237 H237       -6.5880  -19.8736  -54.9242 H         1 UNK         0.0600 
    238 H238       -5.7496  -20.0794  -56.4551 H         1 UNK         0.0600 
    239 H239       -4.9127  -20.4243  -54.9479 H         1 UNK         0.0600 
    240 H240       -2.7693  -18.3708  -54.3735 H         1 UNK         0.3000 
    241 H241       -1.3452  -18.0772  -56.9542 H         1 UNK         0.0600 
    242 H242       -1.3612  -14.6307  -55.0608 H         1 UNK         0.3800 
    243 H243       -2.6375  -15.8115  -54.9240 H         1 UNK         0.3800 
    244 H244        0.6925  -18.8014  -55.7459 H         1 UNK         0.0800 
    245 H245       -0.5695  -19.9849  -55.7872 H         1 UNK         0.0800 
    246 H246        2.0794  -18.5739  -53.6377 H         1 UNK         0.0800 
    247 H247        1.0310  -17.1830  -53.5024 H         1 UNK         0.0800 
@<TRIPOS>BOND
     1    1    2 1    
     2    1  127 1    
     3    1  128 1    
     4    1  129 1    
     5    2    3 2    
     6    2    4 am   BACKBONE|DICT|INTERRES
     7    4    5 1    
     8    4  130 1    
     9    5    6 1    
    10    5   65 1    
    11    5  131 1    
    12    6    7 1    
    13    6  132 1    
    14    6  133 1    
    15    7    8 1    
    16    8    9 1    
    17    8  134 1    
    18    8  135 1    
    19    9   10 ar   
    20    9   14 ar   
    21   10   11 ar   
    22   10  136 1    
    23   11   12 ar   
    24   11  126 1    
    25   12   13 ar   
    26   12  137 1    
    27   13   14 ar   
    28   13   15 1    
    29   14  138 1    
    30   15   16 1    
    31   15  139 1    
    32   15  140 1    
    33   16   17 1    
    34   17   18 1    
    35   17  141 1    
    36   17  142 1    
    37   18   19 1    
    38   18   67 1    
    39   18  143 1    
    40   19   20 am   BACKBONE|DICT|INTERRES
    41   19  144 1    
    42   20   21 2    
    43   20   22 1    
    44   22   23 1    
    45   22   24 1    
    46   22  145 1    
    47   23  146 1    
    48   23  147 1    
    49   23  148 1    
    50   24   25 am   BACKBONE|DICT|INTERRES
    51   24  149 1    
    52   25   26 2    
    53   25   27 1    
    54   27   28 1    
    55   27   29 1    
    56   27  150 1    
    57   28  151 1    
    58   28  152 1    
    59   28  153 1    
    60   29   30 am   BACKBONE|DICT|INTERRES
    61   29  154 1    
    62   30   31 2    
    63   30   32 1    
    64   32   33 1    
    65   32   34 1    
    66   32  155 1    
    67   33  156 1    
    68   33  157 1    
    69   33  158 1    
    70   34   35 am   BACKBONE|DICT|INTERRES
    71   34  159 1    
    72   35   36 2    
    73   35   37 1    
    74   37   38 1    
    75   37   39 1    
    76   37  160 1    
    77   38  161 1    
    78   38  162 1    
    79   38  163 1    
    80   39   40 am   BACKBONE|DICT|INTERRES
    81   39  164 1    
    82   40   41 2    
    83   40   42 1    
    84   42   43 1    
    85   42   44 1    
    86   42  165 1    
    87   43  166 1    
    88   43  167 1    
    89   43  168 1    
    90   44   45 am   BACKBONE|DICT|INTERRES
    91   44  169 1    
    92   45   46 2    
    93   45   47 1    
    94   47   48 1    
    95   47   49 1    
    96   47  170 1    
    97   48  171 1    
    98   48  172 1    
    99   48  173 1    
   100   49   50 am   BACKBONE|DICT|INTERRES
   101   49  174 1    
   102   50   51 2    
   103   50   52 1    
   104   52   53 1    
   105   52   54 1    
   106   52  175 1    
   107   53  176 1    
   108   53  177 1    
   109   53  178 1    
   110   54   55 am   BACKBONE|DICT|INTERRES
   111   54  179 1    
   112   55   56 2    
   113   55   57 1    
   114   57   58 1    
   115   57   59 1    
   116   57  180 1    
   117   58  181 1    
   118   58  182 1    
   119   58  183 1    
   120   59   60 am   BACKBONE|DICT|INTERRES
   121   59  184 1    
   122   60   61 2    
   123   60   62 1    
   124   62   63 1    
   125   62   64 1    
   126   62  185 1    
   127   63  186 1    
   128   63  187 1    
   129   63  188 1    
   130   64   65 am   BACKBONE|DICT|INTERRES
   131   64  189 1    
   132   65   66 2    
   133   67   68 2    
   134   67   69 am   BACKBONE|DICT|INTERRES
   135   69   70 1    
   136   69  190 1    
   137   70   71 1    
   138   70   72 1    
   139   70  191 1    
   140   71  192 1    
   141   71  193 1    
   142   71  194 1    
   143   72   73 2    
   144   72   74 am   BACKBONE|DICT|INTERRES
   145   74   75 1    
   146   74  195 1    
   147   75   76 1    
   148   75   77 1    
   149   75  196 1    
   150   76  197 1    
   151   76  198 1    
   152   76  199 1    
   153   77   78 2    
   154   77   79 am   BACKBONE|DICT|INTERRES
   155   79   80 1    
   156   79  200 1    
   157   80   81 1    
   158   80   82 1    
   159   80  201 1    
   160   81  202 1    
   161   81  203 1    
   162   81  204 1    
   163   82   83 2    
   164   82   84 am   BACKBONE|DICT|INTERRES
   165   84   85 1    
   166   84  205 1    
   167   85   86 1    
   168   85   87 1    
   169   85  206 1    
   170   86  207 1    
   171   86  208 1    
   172   86  209 1    
   173   87   88 2    
   174   87   89 am   BACKBONE|DICT|INTERRES
   175   89   90 1    
   176   89  210 1    
   177   90   91 1    
   178   90   92 1    
   179   90  211 1    
   180   91  212 1    
   181   91  213 1    
   182   91  214 1    
   183   92   93 2    
   184   92   94 am   BACKBONE|DICT|INTERRES
   185   94   95 1    
   186   94  215 1    
   187   95   96 1    
   188   95   97 1    
   189   95  216 1    
   190   96  217 1    
   191   96  218 1    
   192   96  219 1    
   193   97   98 2    
   194   97   99 am   BACKBONE|DICT|INTERRES
   195   99  100 1    
   196   99  220 1    
   197  100  101 1    
   198  100  102 1    
   199  100  221 1    
   200  101  222 1    
   201  101  223 1    
   202  101  224 1    
   203  102  103 2    
   204  102  104 am   BACKBONE|DICT|INTERRES
   205  104  105 1    
   206  104  225 1    
   207  105  106 1    
   208  105  107 1    
   209  105  226 1    
   210  106  227 1    
   211  106  228 1    
   212  106  229 1    
   213  107  108 2    
   214  107  109 am   BACKBONE|DICT|INTERRES
   215  109  110 1    
   216  109  230 1    
   217  110  111 1    
   218  110  112 1    
   219  110  231 1    
   220  111  232 1    
   221  111  233 1    
   222  111  234 1    
   223  112  113 2    
   224  112  114 am   BACKBONE|DICT|INTERRES
   225  114  115 1    
   226  114  235 1    
   227  115  116 1    
   228  115  117 1    
   229  115  236 1    
   230  116  237 1    
   231  116  238 1    
   232  116  239 1    
   233  117  118 2    
   234  117  119 am   BACKBONE|DICT|INTERRES
   235  119  120 1    
   236  119  240 1    
   237  120  121 1    
   238  120  124 1    
   239  120  241 1    
   240  121  122 am   BACKBONE|DICT|INTERRES
   241  121  123 2    
   242  122  242 1    
   243  122  243 1    
   244  124  125 1    
   245  124  244 1    
   246  124  245 1    
   247  125  126 1    
   248  126  246 1    
   249  126  247 1    
@<TRIPOS>SUBSTRUCTURE
     1 UNK         1 GROUP             0       ****    0 ROOT    
