@<TRIPOS>MOLECULE
3R540
247   249    1
SMALL
USER_CHARGES


@<TRIPOS>ATOM
      1 CA          3.0605  -10.5276  -51.1634 C.3       0 UNK        -0.1800 
      2 C           3.9088  -10.8242  -49.9351 C.2       0 UNK         0.5000 
      3 O           4.7416  -10.0032  -49.5515 O.2       0 UNK        -0.5000 
      4 N           3.6900  -11.9883  -49.3113 N.am      1 UNK        -0.5000 
      5 CA          4.4285  -12.4710  -48.1336 C.3       1 UNK         0.1400 
      6 C6          4.5967  -14.0125  -48.1365 C.3       23 UNK        -0.0398 
      7 S7          5.4500  -14.6312  -49.6258 S.3       23 UNK        -0.2404 
      8 C8          4.0909  -15.4402  -50.5389 C.3       23 UNK        -0.0205 
      9 C9          3.5109  -16.6800  -49.8589 C.ar      23 UNK        -0.0193 
     10 C10         2.1421  -16.9467  -49.9752 C.ar      23 UNK        -0.1150 
     11 C11         1.5838  -18.0932  -49.4016 C.ar      23 UNK        -0.0193 
     12 C12         2.4108  -18.9738  -48.6979 C.ar      23 UNK        -0.1150 
     13 C13         3.7783  -18.7268  -48.5730 C.ar      23 UNK        -0.0193 
     14 C14         4.3236  -17.5819  -49.1600 C.ar      23 UNK        -0.1150 
     15 C15         4.6706  -19.7197  -47.8431 C.3       23 UNK        -0.0205 
     16 S16         4.8692  -19.3242  -46.0744 S.3       23 UNK        -0.2404 
     17 C17         3.2697  -19.8391  -45.3516 C.3       23 UNK        -0.0398 
     18 CA          3.3097  -21.2447  -44.7054 C.3       11 UNK         0.1400 
     19 N           2.1489  -21.4760  -43.8437 N.am      11 UNK        -0.5000 
     20 C           2.0686  -22.4410  -42.9151 C.2       10 UNK         0.5000 
     21 O           2.9901  -23.2131  -42.6485 O.2       10 UNK        -0.5000 
     22 CA          0.7393  -22.5655  -42.1516 C.3       10 UNK         0.1400 
     23 CB          0.6737  -21.5498  -41.0005 C.3       10 UNK        -0.1800 
     24 N          -0.3940  -22.3668  -43.0545 N.am      10 UNK        -0.5000 
     25 C          -1.0470  -23.3650  -43.6673 C.2       9 UNK         0.5000 
     26 O          -0.8681  -24.5542  -43.4020 O.2       9 UNK        -0.5000 
     27 CA         -2.0937  -22.9954  -44.7400 C.3       9 UNK         0.1400 
     28 CB         -3.5037  -23.4261  -44.3036 C.3       9 UNK        -0.1800 
     29 N          -2.1256  -21.5726  -45.0828 N.am      9 UNK        -0.5000 
     30 C          -1.2181  -20.9499  -45.8451 C.2       8 UNK         0.5000 
     31 O          -0.2084  -21.4887  -46.2938 O.2       8 UNK        -0.5000 
     32 CA         -1.4556  -19.4516  -46.0875 C.3       8 UNK         0.1400 
     33 CB         -2.6348  -19.2378  -47.0515 C.3       8 UNK        -0.1800 
     34 N          -1.7055  -18.6849  -44.8678 N.am      8 UNK        -0.5000 
     35 C          -0.9395  -18.6532  -43.7699 C.2       7 UNK         0.5000 
     36 O           0.0281  -19.3972  -43.5917 O.2       7 UNK        -0.5000 
     37 CA         -1.3279  -17.6013  -42.7074 C.3       7 UNK         0.1400 
     38 CB         -0.3160  -17.5280  -41.5509 C.3       7 UNK        -0.1800 
     39 N          -1.4648  -16.2682  -43.3008 N.am      7 UNK        -0.5000 
     40 C          -2.5409  -15.8112  -43.9562 C.2       6 UNK         0.5000 
     41 O          -3.5806  -16.4585  -44.0853 O.2       6 UNK        -0.5000 
     42 CA         -2.4047  -14.4414  -44.6468 C.3       6 UNK         0.1400 
     43 CB         -2.4505  -13.2923  -43.6281 C.3       6 UNK        -0.1800 
     44 N          -1.1767  -14.3548  -45.4374 N.am      6 UNK        -0.5000 
     45 C          -0.9324  -15.0703  -46.5458 C.2       5 UNK         0.5000 
     46 O          -1.7612  -15.8022  -47.0841 O.2       5 UNK        -0.5000 
     47 CA          0.4816  -14.9715  -47.1425 C.3       5 UNK         0.1400 
     48 CB          0.5783  -13.8169  -48.1518 C.3       5 UNK        -0.1800 
     49 N           1.4961  -14.8274  -46.0969 N.am      5 UNK        -0.5000 
     50 C           1.9296  -15.8533  -45.3483 C.2       4 UNK         0.5000 
     51 O           1.6044  -17.0215  -45.5495 O.2       4 UNK        -0.5000 
     52 CA          2.8406  -15.5265  -44.1491 C.3       4 UNK         0.1400 
     53 CB          4.3208  -15.7331  -44.4929 C.3       4 UNK        -0.1800 
     54 N           2.6493  -14.1666  -43.6445 N.am      4 UNK        -0.5000 
     55 C           1.6100  -13.7963  -42.8843 C.2       3 UNK         0.5000 
     56 O           0.7253  -14.5700  -42.5227 O.2       3 UNK        -0.5000 
     57 CA          1.5084  -12.3068  -42.5042 C.3       3 UNK         0.1400 
     58 CB          2.2573  -12.0342  -41.1916 C.3       3 UNK        -0.1800 
     59 N           2.0048  -11.3998  -43.5410 N.am      3 UNK        -0.5000 
     60 C           1.5260  -11.3234  -44.7898 C.2       2 UNK         0.5000 
     61 O           0.6025  -12.0255  -45.2030 O.2       2 UNK        -0.5000 
     62 CA          2.2050  -10.3345  -45.7584 C.3       2 UNK         0.1400 
     63 CB          3.1913   -9.3593  -45.0771 C.3       2 UNK        -0.1800 
     64 N           2.8652  -11.0248  -46.8716 N.am      2 UNK        -0.5000 
     65 C           3.8228  -11.9639  -46.8011 C.2       1 UNK         0.5000 
     66 O           4.2316  -12.4307  -45.7365 O.2       1 UNK        -0.5000 
     67 C           3.4604  -22.3676  -45.7531 C.2       11 UNK         0.5000 
     68 O           4.5238  -22.9855  -45.8351 O.2       11 UNK        -0.5000 
     69 N           2.3979  -22.6148  -46.5290 N.am      12 UNK        -0.5000 
     70 CA          2.3229  -23.6998  -47.5042 C.3       12 UNK         0.1400 
     71 CB          1.3857  -23.2746  -48.6464 C.3       12 UNK        -0.1800 
     72 C           1.8239  -24.9925  -46.8357 C.2       12 UNK         0.5000 
     73 O           1.3173  -24.9575  -45.7128 O.2       12 UNK        -0.5000 
     74 N           1.9559  -26.1185  -47.5495 N.am      13 UNK        -0.5000 
     75 CA          1.4836  -27.4358  -47.1079 C.3       13 UNK         0.1400 
     76 CB          2.0390  -28.5116  -48.0540 C.3       13 UNK        -0.1800 
     77 C          -0.0534  -27.5370  -47.0178 C.2       13 UNK         0.5000 
     78 O          -0.5658  -28.3066  -46.2041 O.2       13 UNK        -0.5000 
     79 N          -0.7527  -26.7521  -47.8437 N.am      14 UNK        -0.5000 
     80 CA         -2.2003  -26.5974  -47.8782 C.3       14 UNK         0.1400 
     81 CB         -2.8524  -27.8094  -48.5697 C.3       14 UNK        -0.1800 
     82 C          -2.5191  -25.2975  -48.6292 C.2       14 UNK         0.5000 
     83 O          -1.6886  -24.8219  -49.4083 O.2       14 UNK        -0.5000 
     84 N          -3.7195  -24.7626  -48.3988 N.am      15 UNK        -0.5000 
     85 CA         -4.2625  -23.5796  -49.0563 C.3       15 UNK         0.1400 
     86 CB         -3.6873  -22.3092  -48.4072 C.3       15 UNK        -0.1800 
     87 C          -5.7912  -23.6209  -48.9293 C.2       15 UNK         0.5000 
     88 O          -6.3027  -24.2447  -47.9943 O.2       15 UNK        -0.5000 
     89 N          -6.4943  -22.9553  -49.8503 N.am      16 UNK        -0.5000 
     90 CA         -7.9529  -22.8613  -49.8704 C.3       16 UNK         0.1400 
     91 CB         -8.5570  -24.1457  -50.4684 C.3       16 UNK        -0.1800 
     92 C          -8.3736  -21.6428  -50.6973 C.2       16 UNK         0.5000 
     93 O          -7.6451  -21.2443  -51.6072 O.2       16 UNK        -0.5000 
     94 N          -9.5642  -21.0981  -50.4166 N.am      17 UNK        -0.5000 
     95 CA        -10.1492  -19.9723  -51.1545 C.3       17 UNK         0.1400 
     96 CB        -11.4435  -19.5213  -50.4614 C.3       17 UNK        -0.1800 
     97 C         -10.4100  -20.3017  -52.6372 C.2       17 UNK         0.5000 
     98 O         -10.1409  -19.4714  -53.5052 O.2       17 UNK        -0.5000 
     99 N         -10.8600  -21.5369  -52.9004 N.am      18 UNK        -0.5000 
    100 CA       -11.0815  -22.0862  -54.2412 C.3       18 UNK         0.1400 
    101 CB       -11.8621  -23.4034  -54.1137 C.3       18 UNK        -0.1800 
    102 C         -9.7803  -22.3081  -55.0400 C.2       18 UNK         0.5000 
    103 O         -9.8238  -22.3361  -56.2701 O.2       18 UNK        -0.5000 
    104 N         -8.6507  -22.4454  -54.3328 N.am      19 UNK        -0.5000 
    105 CA        -7.3089  -22.5786  -54.9013 C.3       19 UNK         0.1400 
    106 CB        -6.4855  -23.5139  -53.9985 C.3       19 UNK        -0.1800 
    107 C         -6.6025  -21.2173  -55.0714 C.2       19 UNK         0.5000 
    108 O         -5.4594  -21.1971  -55.5280 O.2       19 UNK        -0.5000 
    109 N         -7.2787  -20.1166  -54.6992 N.am      20 UNK        -0.5000 
    110 CA        -6.7718  -18.7426  -54.6264 C.3       20 UNK         0.1400 
    111 CB        -6.4032  -18.2025  -56.0243 C.3       20 UNK        -0.1800 
    112 C         -5.6283  -18.6276  -53.5996 C.2       20 UNK         0.5000 
    113 O         -4.5245  -18.1889  -53.9327 O.2       20 UNK        -0.5000 
    114 N         -5.9183  -19.0820  -52.3717 N.am      21 UNK        -0.5000 
    115 CA        -5.0005  -19.2583  -51.2478 C.3       21 UNK         0.1400 
    116 CB        -4.4399  -17.9072  -50.7467 C.3       21 UNK        -0.1800 
    117 C         -3.9347  -20.3047  -51.6128 C.2       21 UNK         0.5000 
    118 O         -4.2710  -21.4865  -51.7047 O.2       21 UNK        -0.5000 
    119 N         -2.6955  -19.8539  -51.8247 N.am      22 UNK        -0.5000 
    120 CA        -1.5636  -20.6823  -52.2653 C.3       22 UNK         0.1400 
    121 C         -1.4544  -20.8132  -53.8129 C.2       22 UNK         0.5000 
    122 N         -2.2722  -20.1290  -54.6054 N.am      22 UNK        -0.7600 
    123 O         -0.6136  -21.5590  -54.3075 O.2       22 UNK        -0.5000 
    124 C124       -0.2250  -20.2024  -51.6462 C.3       23 UNK        -0.0398 
    125 S125       -0.3176  -20.1068  -49.8267 S.3       23 UNK        -0.2404 
    126 C126        0.0852  -18.3537  -49.5121 C.3       23 UNK        -0.0205 
    127 H127        3.6996  -10.3917  -52.0359 H         1 UNK         0.0600 
    128 H128        2.4883   -9.6121  -51.0128 H         1 UNK         0.0600 
    129 H129        2.3601  -11.3351  -51.3780 H         1 UNK         0.0600 
    130 H130        2.9900  -12.6157  -49.6774 H         1 UNK         0.3000 
    131 H131        5.4358  -12.0504  -48.1684 H         1 UNK         0.0600 
    132 H132        5.2118  -14.3217  -47.2918 H         1 UNK         0.0800 
    133 H133        3.6402  -14.5199  -48.0139 H         1 UNK         0.0800 
    134 H134        3.3078  -14.7030  -50.7206 H         1 UNK         0.0800 
    135 H135        4.4652  -15.7360  -51.5195 H         1 UNK         0.0800 
    136 H136        1.5078  -16.2600  -50.5181 H         1 UNK         0.1150 
    137 H137        1.9878  -19.8632  -48.2536 H         1 UNK         0.1150 
    138 H138        5.3858  -17.4011  -49.0775 H         1 UNK         0.1150 
    139 H139        4.2837  -20.7319  -47.9626 H         1 UNK         0.0800 
    140 H140        5.6583  -19.7252  -48.3062 H         1 UNK         0.0800 
    141 H141        3.0322  -19.1038  -44.5817 H         1 UNK         0.0800 
    142 H142        2.4624  -19.7578  -46.0773 H         1 UNK         0.0800 
    143 H143        4.1927  -21.2808  -44.0630 H         1 UNK         0.0600 
    144 H144        1.3615  -20.8473  -43.9645 H         1 UNK         0.3000 
    145 H145        0.6968  -23.5636  -41.7105 H         1 UNK         0.0600 
    146 H146       -0.2848  -21.5971  -40.4836 H         1 UNK         0.0600 
    147 H147        1.4520  -21.7516  -40.2637 H         1 UNK         0.0600 
    148 H148        0.8185  -20.5288  -41.3508 H         1 UNK         0.0600 
    149 H149       -0.5831  -21.4130  -43.3359 H         1 UNK         0.3000 
    150 H150       -1.8340  -23.5563  -45.6410 H         1 UNK         0.0600 
    151 H151       -3.5374  -24.4938  -44.0830 H         1 UNK         0.0600 
    152 H152       -4.2369  -23.2383  -45.0881 H         1 UNK         0.0600 
    153 H153       -3.8257  -22.8954  -43.4070 H         1 UNK         0.0600 
    154 H154       -2.8993  -21.0360  -44.7186 H         1 UNK         0.3000 
    155 H155       -0.5485  -19.0461  -46.5381 H         1 UNK         0.0600 
    156 H156       -2.7557  -18.1865  -47.3069 H         1 UNK         0.0600 
    157 H157       -3.5764  -19.5843  -46.6245 H         1 UNK         0.0600 
    158 H158       -2.4829  -19.7751  -47.9854 H         1 UNK         0.0600 
    159 H159       -2.4788  -18.0308  -44.9035 H         1 UNK         0.3000 
    160 H160       -2.2893  -17.9031  -42.2873 H         1 UNK         0.0600 
    161 H161        0.6909  -17.3120  -41.9102 H         1 UNK         0.0600 
    162 H162       -0.2786  -18.4699  -41.0042 H         1 UNK         0.0600 
    163 H163       -0.5886  -16.7514  -40.8362 H         1 UNK         0.0600 
    164 H164       -0.6504  -15.6647  -43.2196 H         1 UNK         0.3000 
    165 H165       -3.2511  -14.3226  -45.3265 H         1 UNK         0.0600 
    166 H166       -1.6396  -13.3575  -42.9034 H         1 UNK         0.0600 
    167 H167       -2.3783  -12.3237  -44.1233 H         1 UNK         0.0600 
    168 H168       -3.3880  -13.3049  -43.0711 H         1 UNK         0.0600 
    169 H169       -0.4660  -13.7071  -45.1147 H         1 UNK         0.3000 
    170 H170        0.6697  -15.8988  -47.6858 H         1 UNK         0.0600 
    171 H171       -0.2041  -13.8980  -48.9075 H         1 UNK         0.0600 
    172 H172        0.4701  -12.8431  -47.6756 H         1 UNK         0.0600 
    173 H173        1.5295  -13.8340  -48.6789 H         1 UNK         0.0600 
    174 H174        1.7432  -13.8861  -45.8246 H         1 UNK         0.3000 
    175 H175        2.5872  -16.2325  -43.3550 H         1 UNK         0.0600 
    176 H176        4.6710  -15.0075  -45.2228 H         1 UNK         0.0600 
    177 H177        4.9463  -15.6405  -43.6051 H         1 UNK         0.0600 
    178 H178        4.4915  -16.7250  -44.9076 H         1 UNK         0.0600 
    179 H179        3.3127  -13.4658  -43.9532 H         1 UNK         0.3000 
    180 H180        0.4521  -12.0800  -42.3472 H         1 UNK         0.0600 
    181 H181        3.3286  -12.2112  -41.2951 H         1 UNK         0.0600 
    182 H182        1.8930  -12.6816  -40.3927 H         1 UNK         0.0600 
    183 H183        2.1164  -11.0044  -40.8629 H         1 UNK         0.0600 
    184 H184        2.7841  -10.8090  -43.2900 H         1 UNK         0.3000 
    185 H185        1.4010   -9.7396  -46.1939 H         1 UNK         0.0600 
    186 H186        3.5760   -8.6353  -45.7956 H         1 UNK         0.0600 
    187 H187        2.7019   -8.7912  -44.2848 H         1 UNK         0.0600 
    188 H188        4.0490   -9.8733  -44.6416 H         1 UNK         0.0600 
    189 H189        2.5799  -10.7313  -47.7945 H         1 UNK         0.3000 
    190 H190        1.5213  -22.1271  -46.3534 H         1 UNK         0.3000 
    191 H191        3.3139  -23.8863  -47.9233 H         1 UNK         0.0600 
    192 H192        1.3539  -24.0265  -49.4353 H         1 UNK         0.0600 
    193 H193        1.7204  -22.3432  -49.1030 H         1 UNK         0.0600 
    194 H194        0.3626  -23.1267  -48.2987 H         1 UNK         0.0600 
    195 H195        2.3836  -26.0764  -48.4634 H         1 UNK         0.3000 
    196 H196        1.8837  -27.6210  -46.1087 H         1 UNK         0.0600 
    197 H197        1.7269  -29.5079  -47.7379 H         1 UNK         0.0600 
    198 H198        3.1290  -28.5028  -48.0660 H         1 UNK         0.0600 
    199 H199        1.6892  -28.3676  -49.0770 H         1 UNK         0.0600 
    200 H200       -0.2631  -26.1243  -48.4693 H         1 UNK         0.3000 
    201 H201       -2.5725  -26.5084  -46.8552 H         1 UNK         0.0600 
    202 H202       -2.6535  -28.7335  -48.0272 H         1 UNK         0.0600 
    203 H203       -2.4840  -27.9339  -49.5887 H         1 UNK         0.0600 
    204 H204       -3.9357  -27.6950  -48.6232 H         1 UNK         0.0600 
    205 H205       -4.3785  -25.2210  -47.7807 H         1 UNK         0.3000 
    206 H206       -4.0012  -23.6069  -50.1160 H         1 UNK         0.0600 
    207 H207       -2.6084  -22.2439  -48.5518 H         1 UNK         0.0600 
    208 H208       -4.1281  -21.4127  -48.8420 H         1 UNK         0.0600 
    209 H209       -3.8857  -22.2824  -47.3361 H         1 UNK         0.0600 
    210 H210       -6.0195  -22.4387  -50.5849 H         1 UNK         0.3000 
    211 H211       -8.3189  -22.7238  -48.8506 H         1 UNK         0.0600 
    212 H212       -8.1955  -24.3253  -51.4815 H         1 UNK         0.0600 
    213 H213       -9.6451  -24.0870  -50.5127 H         1 UNK         0.0600 
    214 H214       -8.3078  -25.0196  -49.8666 H         1 UNK         0.0600 
    215 H215      -10.1160  -21.4785  -49.6609 H         1 UNK         0.3000 
    216 H216       -9.4383  -19.1439  -51.1209 H         1 UNK         0.0600 
    217 H217      -11.8900  -18.6733  -50.9825 H         1 UNK         0.0600 
    218 H218      -11.2519  -19.2059  -49.4357 H         1 UNK         0.0600 
    219 H219      -12.1871  -20.3188  -50.4346 H         1 UNK         0.0600 
    220 H220      -11.0473  -22.1536  -52.1235 H         1 UNK         0.3000 
    221 H221      -11.6938  -21.3768  -54.8019 H         1 UNK         0.0600 
    222 H222      -11.3042  -24.1482  -53.5445 H         1 UNK         0.0600 
    223 H223      -12.8201  -23.2482  -53.6171 H         1 UNK         0.0600 
    224 H224      -12.0722  -23.8302  -55.0953 H         1 UNK         0.0600 
    225 H225       -8.6944  -22.3606  -53.3269 H         1 UNK         0.3000 
    226 H226       -7.3730  -23.0369  -55.8903 H         1 UNK         0.0600 
    227 H227       -6.9763  -24.4794  -53.8758 H         1 UNK         0.0600 
    228 H228       -5.5005  -23.7039  -54.4265 H         1 UNK         0.0600 
    229 H229       -6.3296  -23.0868  -53.0078 H         1 UNK         0.0600 
    230 H230       -8.2172  -20.2435  -54.3427 H         1 UNK         0.3000 
    231 H231       -7.5920  -18.1317  -54.2463 H         1 UNK         0.0600 
    232 H232       -6.1375  -17.1462  -55.9724 H         1 UNK         0.0600 
    233 H233       -7.2416  -18.2934  -56.7147 H         1 UNK         0.0600 
    234 H234       -5.5528  -18.7290  -56.4579 H         1 UNK         0.0600 
    235 H235       -6.8041  -19.5622  -52.2504 H         1 UNK         0.3000 
    236 H236       -5.5854  -19.6891  -50.4339 H         1 UNK         0.0600 
    237 H237       -5.2480  -17.2502  -50.4254 H         1 UNK         0.0600 
    238 H238       -3.7845  -18.0521  -49.8865 H         1 UNK         0.0600 
    239 H239       -3.8710  -17.3757  -51.5095 H         1 UNK         0.0600 
    240 H240       -2.5224  -18.8627  -51.7556 H         1 UNK         0.3000 
    241 H241       -1.7287  -21.6986  -51.9013 H         1 UNK         0.0600 
    242 H242       -2.9905  -19.5222  -54.2257 H         1 UNK         0.3800 
    243 H243       -2.2005  -20.2425  -55.6036 H         1 UNK         0.3800 
    244 H244        0.5815  -20.8926  -51.8991 H         1 UNK         0.0800 
    245 H245        0.0642  -19.2342  -52.0576 H         1 UNK         0.0800 
    246 H246       -0.3805  -18.0459  -48.5772 H         1 UNK         0.0800 
    247 H247       -0.3656  -17.7313  -50.2862 H         1 UNK         0.0800 
@<TRIPOS>BOND
     1    1    2 1    
     2    1  127 1    
     3    1  128 1    
     4    1  129 1    
     5    2    3 2    
     6    2    4 am   BACKBONE|DICT|INTERRES
     7    4    5 1    
     8    4  130 1    
     9    5    6 1    
    10    5   65 1    
    11    5  131 1    
    12    6    7 1    
    13    6  132 1    
    14    6  133 1    
    15    7    8 1    
    16    8    9 1    
    17    8  134 1    
    18    8  135 1    
    19    9   10 ar   
    20    9   14 ar   
    21   10   11 ar   
    22   10  136 1    
    23   11   12 ar   
    24   11  126 1    
    25   12   13 ar   
    26   12  137 1    
    27   13   14 ar   
    28   13   15 1    
    29   14  138 1    
    30   15   16 1    
    31   15  139 1    
    32   15  140 1    
    33   16   17 1    
    34   17   18 1    
    35   17  141 1    
    36   17  142 1    
    37   18   19 1    
    38   18   67 1    
    39   18  143 1    
    40   19   20 am   BACKBONE|DICT|INTERRES
    41   19  144 1    
    42   20   21 2    
    43   20   22 1    
    44   22   23 1    
    45   22   24 1    
    46   22  145 1    
    47   23  146 1    
    48   23  147 1    
    49   23  148 1    
    50   24   25 am   BACKBONE|DICT|INTERRES
    51   24  149 1    
    52   25   26 2    
    53   25   27 1    
    54   27   28 1    
    55   27   29 1    
    56   27  150 1    
    57   28  151 1    
    58   28  152 1    
    59   28  153 1    
    60   29   30 am   BACKBONE|DICT|INTERRES
    61   29  154 1    
    62   30   31 2    
    63   30   32 1    
    64   32   33 1    
    65   32   34 1    
    66   32  155 1    
    67   33  156 1    
    68   33  157 1    
    69   33  158 1    
    70   34   35 am   BACKBONE|DICT|INTERRES
    71   34  159 1    
    72   35   36 2    
    73   35   37 1    
    74   37   38 1    
    75   37   39 1    
    76   37  160 1    
    77   38  161 1    
    78   38  162 1    
    79   38  163 1    
    80   39   40 am   BACKBONE|DICT|INTERRES
    81   39  164 1    
    82   40   41 2    
    83   40   42 1    
    84   42   43 1    
    85   42   44 1    
    86   42  165 1    
    87   43  166 1    
    88   43  167 1    
    89   43  168 1    
    90   44   45 am   BACKBONE|DICT|INTERRES
    91   44  169 1    
    92   45   46 2    
    93   45   47 1    
    94   47   48 1    
    95   47   49 1    
    96   47  170 1    
    97   48  171 1    
    98   48  172 1    
    99   48  173 1    
   100   49   50 am   BACKBONE|DICT|INTERRES
   101   49  174 1    
   102   50   51 2    
   103   50   52 1    
   104   52   53 1    
   105   52   54 1    
   106   52  175 1    
   107   53  176 1    
   108   53  177 1    
   109   53  178 1    
   110   54   55 am   BACKBONE|DICT|INTERRES
   111   54  179 1    
   112   55   56 2    
   113   55   57 1    
   114   57   58 1    
   115   57   59 1    
   116   57  180 1    
   117   58  181 1    
   118   58  182 1    
   119   58  183 1    
   120   59   60 am   BACKBONE|DICT|INTERRES
   121   59  184 1    
   122   60   61 2    
   123   60   62 1    
   124   62   63 1    
   125   62   64 1    
   126   62  185 1    
   127   63  186 1    
   128   63  187 1    
   129   63  188 1    
   130   64   65 am   BACKBONE|DICT|INTERRES
   131   64  189 1    
   132   65   66 2    
   133   67   68 2    
   134   67   69 am   BACKBONE|DICT|INTERRES
   135   69   70 1    
   136   69  190 1    
   137   70   71 1    
   138   70   72 1    
   139   70  191 1    
   140   71  192 1    
   141   71  193 1    
   142   71  194 1    
   143   72   73 2    
   144   72   74 am   BACKBONE|DICT|INTERRES
   145   74   75 1    
   146   74  195 1    
   147   75   76 1    
   148   75   77 1    
   149   75  196 1    
   150   76  197 1    
   151   76  198 1    
   152   76  199 1    
   153   77   78 2    
   154   77   79 am   BACKBONE|DICT|INTERRES
   155   79   80 1    
   156   79  200 1    
   157   80   81 1    
   158   80   82 1    
   159   80  201 1    
   160   81  202 1    
   161   81  203 1    
   162   81  204 1    
   163   82   83 2    
   164   82   84 am   BACKBONE|DICT|INTERRES
   165   84   85 1    
   166   84  205 1    
   167   85   86 1    
   168   85   87 1    
   169   85  206 1    
   170   86  207 1    
   171   86  208 1    
   172   86  209 1    
   173   87   88 2    
   174   87   89 am   BACKBONE|DICT|INTERRES
   175   89   90 1    
   176   89  210 1    
   177   90   91 1    
   178   90   92 1    
   179   90  211 1    
   180   91  212 1    
   181   91  213 1    
   182   91  214 1    
   183   92   93 2    
   184   92   94 am   BACKBONE|DICT|INTERRES
   185   94   95 1    
   186   94  215 1    
   187   95   96 1    
   188   95   97 1    
   189   95  216 1    
   190   96  217 1    
   191   96  218 1    
   192   96  219 1    
   193   97   98 2    
   194   97   99 am   BACKBONE|DICT|INTERRES
   195   99  100 1    
   196   99  220 1    
   197  100  101 1    
   198  100  102 1    
   199  100  221 1    
   200  101  222 1    
   201  101  223 1    
   202  101  224 1    
   203  102  103 2    
   204  102  104 am   BACKBONE|DICT|INTERRES
   205  104  105 1    
   206  104  225 1    
   207  105  106 1    
   208  105  107 1    
   209  105  226 1    
   210  106  227 1    
   211  106  228 1    
   212  106  229 1    
   213  107  108 2    
   214  107  109 am   BACKBONE|DICT|INTERRES
   215  109  110 1    
   216  109  230 1    
   217  110  111 1    
   218  110  112 1    
   219  110  231 1    
   220  111  232 1    
   221  111  233 1    
   222  111  234 1    
   223  112  113 2    
   224  112  114 am   BACKBONE|DICT|INTERRES
   225  114  115 1    
   226  114  235 1    
   227  115  116 1    
   228  115  117 1    
   229  115  236 1    
   230  116  237 1    
   231  116  238 1    
   232  116  239 1    
   233  117  118 2    
   234  117  119 am   BACKBONE|DICT|INTERRES
   235  119  120 1    
   236  119  240 1    
   237  120  121 1    
   238  120  124 1    
   239  120  241 1    
   240  121  122 am   BACKBONE|DICT|INTERRES
   241  121  123 2    
   242  122  242 1    
   243  122  243 1    
   244  124  125 1    
   245  124  244 1    
   246  124  245 1    
   247  125  126 1    
   248  126  246 1    
   249  126  247 1    
@<TRIPOS>SUBSTRUCTURE
     1 UNK         1 GROUP             0       ****    0 ROOT    
