@<TRIPOS>MOLECULE
3R540
247   249    1
SMALL
USER_CHARGES


@<TRIPOS>ATOM
      1 CA         -3.7583   -9.8652  -47.0419 C.3       0 UNK        -0.1800 
      2 C          -2.3895  -10.4209  -46.6795 C.2       0 UNK         0.5000 
      3 O          -1.7228   -9.8818  -45.7966 O.2       0 UNK        -0.5000 
      4 N          -1.9706  -11.5089  -47.3387 N.am      1 UNK        -0.5000 
      5 CA         -0.6792  -12.1755  -47.1252 C.3       1 UNK         0.1400 
      6 C6         -0.3718  -13.2251  -48.2210 C.3       23 UNK        -0.0398 
      7 S7         -1.6202  -14.5495  -48.3571 S.3       23 UNK        -0.2404 
      8 C8         -0.9428  -15.5031  -49.7488 C.3       23 UNK        -0.0205 
      9 C9         -1.4113  -16.9474  -49.6976 C.ar      23 UNK        -0.0193 
     10 C10        -2.7236  -17.2759  -50.0503 C.ar      23 UNK        -0.1150 
     11 C11        -3.1622  -18.6019  -49.9929 C.ar      23 UNK        -0.0193 
     12 C12        -2.2755  -19.6011  -49.5854 C.ar      23 UNK        -0.1150 
     13 C13        -0.9569  -19.2877  -49.2451 C.ar      23 UNK        -0.0193 
     14 C14        -0.5319  -17.9575  -49.2969 C.ar      23 UNK        -0.1150 
     15 C15         0.0084  -20.3883  -48.8309 C.3       23 UNK        -0.0205 
     16 S16         0.4970  -20.2672  -47.0821 S.3       23 UNK        -0.2404 
     17 C17        -1.1033  -20.4805  -46.2273 C.3       23 UNK        -0.0398 
     18 CA         -1.4453  -21.9627  -45.9497 C.3       11 UNK         0.1400 
     19 N          -0.4117  -22.6376  -45.1536 N.am      11 UNK        -0.5000 
     20 C          -0.3316  -23.9635  -44.9682 C.2       10 UNK         0.5000 
     21 O          -1.1507  -24.7572  -45.4301 O.2       10 UNK        -0.5000 
     22 CA          0.8180  -24.5015  -44.0945 C.3       10 UNK         0.1400 
     23 CB          1.9659  -25.0045  -44.9818 C.3       10 UNK        -0.1800 
     24 N           1.3464  -23.5226  -43.1442 N.am      10 UNK        -0.5000 
     25 C           0.6661  -22.9814  -42.1229 C.2       9 UNK         0.5000 
     26 O          -0.4917  -23.2864  -41.8360 O.2       9 UNK        -0.5000 
     27 CA          1.3881  -21.8726  -41.3280 C.3       9 UNK         0.1400 
     28 CB          2.1033  -22.4652  -40.1047 C.3       9 UNK        -0.1800 
     29 N           2.3551  -21.1173  -42.1360 N.am      9 UNK        -0.5000 
     30 C           2.0288  -20.3875  -43.2113 C.2       8 UNK         0.5000 
     31 O           0.8684  -20.2480  -43.6029 O.2       8 UNK        -0.5000 
     32 CA          3.1943  -19.7912  -44.0197 C.3       8 UNK         0.1400 
     33 CB          3.8956  -20.8949  -44.8293 C.3       8 UNK        -0.1800 
     34 N           2.7100  -18.7776  -44.9539 N.am      8 UNK        -0.5000 
     35 C           2.5107  -17.4926  -44.6492 C.2       7 UNK         0.5000 
     36 O           2.7980  -16.9897  -43.5595 O.2       7 UNK        -0.5000 
     37 CA          1.8485  -16.6337  -45.7427 C.3       7 UNK         0.1400 
     38 CB          0.3275  -16.5899  -45.5373 C.3       7 UNK        -0.1800 
     39 N           2.3724  -15.2691  -45.7324 N.am      7 UNK        -0.5000 
     40 C           3.6032  -14.9243  -46.1380 C.2       6 UNK         0.5000 
     41 O           4.3900  -15.7054  -46.6744 O.2       6 UNK        -0.5000 
     42 CA          4.0337  -13.4666  -45.8951 C.3       6 UNK         0.1400 
     43 CB          3.7029  -12.5901  -47.1130 C.3       6 UNK        -0.1800 
     44 N           3.3745  -12.9065  -44.7189 N.am      6 UNK        -0.5000 
     45 C           3.8078  -13.0219  -43.4578 C.2       5 UNK         0.5000 
     46 O           4.8797  -13.5461  -43.1497 O.2       5 UNK        -0.5000 
     47 CA          2.8699  -12.4606  -42.3664 C.3       5 UNK         0.1400 
     48 CB          3.6005  -12.1207  -41.0508 C.3       5 UNK        -0.1800 
     49 N           2.0631  -11.3273  -42.8343 N.am      5 UNK        -0.5000 
     50 C           2.4936  -10.1213  -43.2376 C.2       4 UNK         0.5000 
     51 O           3.6719   -9.7651  -43.2061 O.2       4 UNK        -0.5000 
     52 CA          1.4338   -9.1514  -43.8023 C.3       4 UNK         0.1400 
     53 CB          1.5874   -9.0330  -45.3269 C.3       4 UNK        -0.1800 
     54 N           0.0569   -9.5501  -43.5032 N.am      4 UNK        -0.5000 
     55 C          -0.5258   -9.4713  -42.2991 C.2       3 UNK         0.5000 
     56 O           0.0127   -8.9803  -41.3067 O.2       3 UNK        -0.5000 
     57 CA         -1.9304  -10.0893  -42.1793 C.3       3 UNK         0.1400 
     58 CB         -3.0128   -9.0793  -42.5907 C.3       3 UNK        -0.1800 
     59 N          -2.0643  -11.3067  -42.9834 N.am      3 UNK        -0.5000 
     60 C          -1.4951  -12.4826  -42.6809 C.2       2 UNK         0.5000 
     61 O          -0.8153  -12.6732  -41.6729 O.2       2 UNK        -0.5000 
     62 CA         -1.6827  -13.6272  -43.6924 C.3       2 UNK         0.1400 
     63 CB         -3.0087  -14.3622  -43.4496 C.3       2 UNK        -0.1800 
     64 N          -1.6347  -13.1592  -45.0769 N.am      2 UNK        -0.5000 
     65 C          -0.5197  -12.7598  -45.7035 C.2       1 UNK         0.5000 
     66 O           0.6000  -12.8104  -45.1935 O.2       1 UNK        -0.5000 
     67 C          -2.8563  -22.0807  -45.3325 C.2       11 UNK         0.5000 
     68 O          -3.8410  -21.9045  -46.0487 O.2       11 UNK        -0.5000 
     69 N          -2.9394  -22.3907  -44.0301 N.am      12 UNK        -0.5000 
     70 CA         -4.1909  -22.6951  -43.3375 C.3       12 UNK         0.1400 
     71 CB         -3.9739  -22.5387  -41.8247 C.3       12 UNK        -0.1800 
     72 C          -4.7223  -24.1063  -43.6623 C.2       12 UNK         0.5000 
     73 O          -5.9260  -24.3357  -43.5381 O.2       12 UNK        -0.5000 
     74 N          -3.8269  -25.0238  -44.0541 N.am      13 UNK        -0.5000 
     75 CA         -4.1457  -26.4112  -44.3860 C.3       13 UNK         0.1400 
     76 CB         -3.0501  -27.3277  -43.8172 C.3       13 UNK        -0.1800 
     77 C          -4.2849  -26.6141  -45.9035 C.2       13 UNK         0.5000 
     78 O          -5.1940  -27.3236  -46.3366 O.2       13 UNK        -0.5000 
     79 N          -3.3797  -26.0062  -46.6824 N.am      14 UNK        -0.5000 
     80 CA         -3.3382  -26.0941  -48.1406 C.3       14 UNK         0.1400 
     81 CB         -2.0126  -25.5016  -48.6448 C.3       14 UNK        -0.1800 
     82 C          -4.5317  -25.3826  -48.8024 C.2       14 UNK         0.5000 
     83 O          -4.8503  -24.2482  -48.4407 O.2       14 UNK        -0.5000 
     84 N          -5.1448  -26.0538  -49.7825 N.am      15 UNK        -0.5000 
     85 CA         -6.1681  -25.4877  -50.6589 C.3       15 UNK         0.1400 
     86 CB         -7.0329  -26.6357  -51.2042 C.3       15 UNK        -0.1800 
     87 C          -5.5110  -24.7234  -51.8202 C.2       15 UNK         0.5000 
     88 O          -4.3512  -24.9856  -52.1463 O.2       15 UNK        -0.5000 
     89 N          -6.2819  -23.8492  -52.4794 N.am      16 UNK        -0.5000 
     90 CA         -5.8625  -23.0465  -53.6379 C.3       16 UNK         0.1400 
     91 CB         -7.0067  -22.0916  -54.0113 C.3       16 UNK        -0.1800 
     92 C          -5.4222  -23.8694  -54.8695 C.2       16 UNK         0.5000 
     93 O          -4.7162  -23.3465  -55.7309 O.2       16 UNK        -0.5000 
     94 N          -5.8256  -25.1460  -54.9284 N.am      17 UNK        -0.5000 
     95 CA         -5.3657  -26.1184  -55.9203 C.3       17 UNK         0.1400 
     96 CB         -6.2798  -27.3522  -55.8652 C.3       17 UNK        -0.1800 
     97 C          -3.8914  -26.5323  -55.7248 C.2       17 UNK         0.5000 
     98 O          -3.2439  -26.9193  -56.6985 O.2       17 UNK        -0.5000 
     99 N          -3.3931  -26.4513  -54.4832 N.am      18 UNK        -0.5000 
    100 CA        -2.0148  -26.7631  -54.1087 C.3       18 UNK         0.1400 
    101 CB        -2.0228  -27.6258  -52.8357 C.3       18 UNK        -0.1800 
    102 C         -1.2045  -25.4772  -53.8816 C.2       18 UNK         0.5000 
    103 O         -0.0688  -25.3814  -54.3488 O.2       18 UNK        -0.5000 
    104 N         -1.7985  -24.5118  -53.1689 N.am      19 UNK        -0.5000 
    105 CA        -1.2136  -23.2145  -52.8555 C.3       19 UNK         0.1400 
    106 CB        -1.9217  -22.6257  -51.6249 C.3       19 UNK        -0.1800 
    107 C         -1.3022  -22.2711  -54.0656 C.2       19 UNK         0.5000 
    108 O         -2.2845  -21.5418  -54.2118 O.2       19 UNK        -0.5000 
    109 N         -0.2576  -22.2782  -54.9035 N.am      20 UNK        -0.5000 
    110 CA        -0.1198  -21.4516  -56.1105 C.3       20 UNK         0.1400 
    111 CB         1.1732  -21.8534  -56.8369 C.3       20 UNK        -0.1800 
    112 C         -0.1494  -19.9266  -55.8602 C.2       20 UNK         0.5000 
    113 O         -0.3598  -19.1616  -56.8018 O.2       20 UNK        -0.5000 
    114 N          0.0375  -19.5155  -54.5984 N.am      21 UNK        -0.5000 
    115 CA        -0.1237  -18.1471  -54.1091 C.3       21 UNK         0.1400 
    116 CB         0.4110  -18.0793  -52.6720 C.3       21 UNK        -0.1800 
    117 C         -1.5768  -17.6274  -54.1695 C.2       21 UNK         0.5000 
    118 O         -1.7681  -16.4105  -54.1921 O.2       21 UNK        -0.5000 
    119 N         -2.5639  -18.5327  -54.2116 N.am      22 UNK        -0.5000 
    120 CA        -3.9890  -18.2070  -54.3811 C.3       22 UNK         0.1400 
    121 C         -4.7373  -19.1161  -55.3959 C.2       22 UNK         0.5000 
    122 N         -4.2309  -20.2895  -55.7496 N.am      22 UNK        -0.7600 
    123 O         -5.7913  -18.7333  -55.8968 O.2       22 UNK        -0.5000 
    124 C124       -4.7390  -18.0871  -53.0300 C.3       23 UNK        -0.0398 
    125 S125       -4.7419  -19.6212  -52.0342 S.3       23 UNK        -0.2404 
    126 C126       -4.5970  -18.9629  -50.3440 C.3       23 UNK        -0.0205 
    127 H127       -4.4040   -9.8586  -46.1638 H         1 UNK         0.0600 
    128 H128       -4.2435  -10.4571  -47.8183 H         1 UNK         0.0600 
    129 H129       -3.6620   -8.8414  -47.4031 H         1 UNK         0.0600 
    130 H130       -2.5634  -11.9254  -48.0434 H         1 UNK         0.3000 
    131 H131        0.0841  -11.4003  -47.2148 H         1 UNK         0.0600 
    132 H132       -0.2979  -12.7265  -49.1885 H         1 UNK         0.0800 
    133 H133        0.6039  -13.6824  -48.0473 H         1 UNK         0.0800 
    134 H134       -1.2524  -15.0455  -50.6896 H         1 UNK         0.0800 
    135 H135        0.1475  -15.4634  -49.7295 H         1 UNK         0.0800 
    136 H136       -3.4046  -16.4937  -50.3540 H         1 UNK         0.1150 
    137 H137       -2.6183  -20.6250  -49.5343 H         1 UNK         0.1150 
    138 H138        0.4851  -17.7123  -49.0249 H         1 UNK         0.1150 
    139 H139       -0.4220  -21.3741  -49.0127 H         1 UNK         0.0800 
    140 H140        0.9031  -20.3271  -49.4518 H         1 UNK         0.0800 
    141 H141       -1.8909  -20.0056  -46.8130 H         1 UNK         0.0800 
    142 H142       -1.0638  -19.9209  -45.2922 H         1 UNK         0.0800 
    143 H143       -1.4917  -22.4741  -46.9133 H         1 UNK         0.0600 
    144 H144        0.2665  -22.0296  -44.7110 H         1 UNK         0.3000 
    145 H145        0.4266  -25.3466  -43.5243 H         1 UNK         0.0600 
    146 H146        2.7535  -25.4656  -44.3855 H         1 UNK         0.0600 
    147 H147        1.6127  -25.7570  -45.6884 H         1 UNK         0.0600 
    148 H148        2.4116  -24.1944  -45.5606 H         1 UNK         0.0600 
    149 H149        2.2927  -23.2098  -43.3004 H         1 UNK         0.3000 
    150 H150        0.6266  -21.1738  -40.9754 H         1 UNK         0.0600 
    151 H151        2.8949  -23.1565  -40.3962 H         1 UNK         0.0600 
    152 H152        1.4043  -23.0142  -39.4722 H         1 UNK         0.0600 
    153 H153        2.5489  -21.6825  -39.4905 H         1 UNK         0.0600 
    154 H154        3.3260  -21.1967  -41.8689 H         1 UNK         0.3000 
    155 H155        3.9125  -19.3451  -43.3285 H         1 UNK         0.0600 
    156 H156        3.2060  -21.3963  -45.5102 H         1 UNK         0.0600 
    157 H157        4.3235  -21.6557  -44.1755 H         1 UNK         0.0600 
    158 H158        4.7130  -20.4865  -45.4239 H         1 UNK         0.0600 
    159 H159        2.3605  -19.1270  -45.8356 H         1 UNK         0.3000 
    160 H160        2.0534  -17.0753  -46.7205 H         1 UNK         0.0600 
    161 H161        0.0667  -16.1993  -44.5543 H         1 UNK         0.0600 
    162 H162       -0.1055  -17.5871  -45.6164 H         1 UNK         0.0600 
    163 H163       -0.1563  -15.9678  -46.2878 H         1 UNK         0.0600 
    164 H164        1.7972  -14.5630  -45.2912 H         1 UNK         0.3000 
    165 H165        5.1157  -13.4536  -45.7479 H         1 UNK         0.0600 
    166 H166        4.1751  -12.9799  -48.0157 H         1 UNK         0.0600 
    167 H167        2.6296  -12.5413  -47.2964 H         1 UNK         0.0600 
    168 H168        4.0626  -11.5707  -46.9714 H         1 UNK         0.0600 
    169 H169        2.4436  -12.5272  -44.8649 H         1 UNK         0.3000 
    170 H170        2.1596  -13.2592  -42.1471 H         1 UNK         0.0600 
    171 H171        4.0652  -13.0093  -40.6220 H         1 UNK         0.0600 
    172 H172        4.3882  -11.3823  -41.2014 H         1 UNK         0.0600 
    173 H173        2.9080  -11.7271  -40.3067 H         1 UNK         0.0600 
    174 H174        1.0735  -11.5125  -42.9200 H         1 UNK         0.3000 
    175 H175        1.6132   -8.1696  -43.3595 H         1 UNK         0.0600 
    176 H176        0.8604   -8.3367  -45.7456 H         1 UNK         0.0600 
    177 H177        2.5797   -8.6673  -45.5938 H         1 UNK         0.0600 
    178 H178        1.4510   -9.9966  -45.8179 H         1 UNK         0.0600 
    179 H179       -0.4970   -9.8910  -44.2840 H         1 UNK         0.3000 
    180 H180       -2.0922  -10.3499  -41.1311 H         1 UNK         0.0600 
    181 H181       -2.9101   -8.7751  -43.6326 H         1 UNK         0.0600 
    182 H182       -2.9551   -8.1776  -41.9797 H         1 UNK         0.0600 
    183 H183       -4.0113   -9.4965  -42.4599 H         1 UNK         0.0600 
    184 H184       -2.5608  -11.2175  -43.8578 H         1 UNK         0.3000 
    185 H185       -0.8681  -14.3364  -43.5370 H         1 UNK         0.0600 
    186 H186       -3.0649  -14.7383  -42.4273 H         1 UNK         0.0600 
    187 H187       -3.8680  -13.7094  -43.6077 H         1 UNK         0.0600 
    188 H188       -3.1102  -15.2190  -44.1163 H         1 UNK         0.0600 
    189 H189       -2.5107  -13.1025  -45.5754 H         1 UNK         0.3000 
    190 H190       -2.0862  -22.5105  -43.4997 H         1 UNK         0.3000 
    191 H191       -4.9495  -21.9733  -43.6479 H         1 UNK         0.0600 
    192 H192       -3.6299  -21.5346  -41.5762 H         1 UNK         0.0600 
    193 H193       -4.9020  -22.7093  -41.2778 H         1 UNK         0.0600 
    194 H194       -3.2366  -23.2489  -41.4484 H         1 UNK         0.0600 
    195 H195       -2.8649  -24.7409  -44.1890 H         1 UNK         0.3000 
    196 H196       -5.0916  -26.6995  -43.9225 H         1 UNK         0.0600 
    197 H197       -3.2646  -28.3743  -44.0369 H         1 UNK         0.0600 
    198 H198       -2.9807  -27.2308  -42.7336 H         1 UNK         0.0600 
    199 H199       -2.0697  -27.0986  -44.2365 H         1 UNK         0.0600 
    200 H200       -2.6425  -25.4603  -46.2442 H         1 UNK         0.3000 
    201 H201       -3.3611  -27.1520  -48.4107 H         1 UNK         0.0600 
    202 H202       -1.9349  -25.5862  -49.7298 H         1 UNK         0.0600 
    203 H203       -1.9231  -24.4451  -48.3894 H         1 UNK         0.0600 
    204 H204       -1.1571  -26.0227  -48.2145 H         1 UNK         0.0600 
    205 H205       -4.7953  -26.9640  -50.0428 H         1 UNK         0.3000 
    206 H206       -6.8017  -24.8012  -50.0933 H         1 UNK         0.0600 
    207 H207       -7.4958  -27.1981  -50.3930 H         1 UNK         0.0600 
    208 H208       -7.8390  -26.2579  -51.8343 H         1 UNK         0.0600 
    209 H209       -6.4471  -27.3343  -51.8035 H         1 UNK         0.0600 
    210 H210       -7.2302  -23.7047  -52.1637 H         1 UNK         0.3000 
    211 H211       -5.0014  -22.4479  -53.3340 H         1 UNK         0.0600 
    212 H212       -7.9148  -22.6351  -54.2745 H         1 UNK         0.0600 
    213 H213       -6.7383  -21.4703  -54.8662 H         1 UNK         0.0600 
    214 H214       -7.2419  -21.4177  -53.1873 H         1 UNK         0.0600 
    215 H215       -6.4248  -25.4919  -54.1945 H         1 UNK         0.3000 
    216 H216       -5.4557  -25.6685  -56.9113 H         1 UNK         0.0600 
    217 H217       -5.9831  -28.0915  -56.6104 H         1 UNK         0.0600 
    218 H218       -7.3167  -27.0848  -56.0698 H         1 UNK         0.0600 
    219 H219       -6.2434  -27.8372  -54.8888 H         1 UNK         0.0600 
    220 H220       -3.9755  -26.0666  -53.7477 H         1 UNK         0.3000 
    221 H221       -1.5232  -27.3344  -54.8988 H         1 UNK         0.0600 
    222 H222       -2.5040  -27.1149  -52.0007 H         1 UNK         0.0600 
    223 H223       -2.5519  -28.5643  -53.0018 H         1 UNK         0.0600 
    224 H224       -1.0069  -27.8752  -52.5269 H         1 UNK         0.0600 
    225 H225       -2.7410  -24.6695  -52.8178 H         1 UNK         0.3000 
    226 H226       -0.1614  -23.3501  -52.5965 H         1 UNK         0.0600 
    227 H227       -1.5119  -21.6446  -51.3871 H         1 UNK         0.0600 
    228 H228       -2.9931  -22.5028  -51.7883 H         1 UNK         0.0600 
    229 H229       -1.7881  -23.2588  -50.7485 H         1 UNK         0.0600 
    230 H230        0.4850  -22.9423  -54.7313 H         1 UNK         0.3000 
    231 H231       -0.9649  -21.6830  -56.7621 H         1 UNK         0.0600 
    232 H232        2.0537  -21.6682  -56.2204 H         1 UNK         0.0600 
    233 H233        1.2953  -21.2889  -57.7623 H         1 UNK         0.0600 
    234 H234        1.1645  -22.9107  -57.1028 H         1 UNK         0.0600 
    235 H235        0.2166  -20.2210  -53.9005 H         1 UNK         0.3000 
    236 H236        0.4849  -17.4910  -54.7346 H         1 UNK         0.0600 
    237 H237        0.3150  -17.0724  -52.2638 H         1 UNK         0.0600 
    238 H238       -0.1376  -18.7552  -52.0158 H         1 UNK         0.0600 
    239 H239        1.4663  -18.3486  -52.6271 H         1 UNK         0.0600 
    240 H240       -2.3386  -19.5197  -54.1699 H         1 UNK         0.3000 
    241 H241       -4.0453  -17.2214  -54.8474 H         1 UNK         0.0600 
    242 H242       -3.4458  -20.7010  -55.2500 H         1 UNK         0.3800 
    243 H243       -4.7317  -20.8655  -56.4067 H         1 UNK         0.3800 
    244 H244       -5.7740  -17.7829  -53.1937 H         1 UNK         0.0800 
    245 H245       -4.2875  -17.2823  -52.4510 H         1 UNK         0.0800 
    246 H246       -5.2554  -18.1012  -50.2241 H         1 UNK         0.0800 
    247 H247       -4.9582  -19.7185  -49.6447 H         1 UNK         0.0800 
@<TRIPOS>BOND
     1    1    2 1    
     2    1  127 1    
     3    1  128 1    
     4    1  129 1    
     5    2    3 2    
     6    2    4 am   BACKBONE|DICT|INTERRES
     7    4    5 1    
     8    4  130 1    
     9    5    6 1    
    10    5   65 1    
    11    5  131 1    
    12    6    7 1    
    13    6  132 1    
    14    6  133 1    
    15    7    8 1    
    16    8    9 1    
    17    8  134 1    
    18    8  135 1    
    19    9   10 ar   
    20    9   14 ar   
    21   10   11 ar   
    22   10  136 1    
    23   11   12 ar   
    24   11  126 1    
    25   12   13 ar   
    26   12  137 1    
    27   13   14 ar   
    28   13   15 1    
    29   14  138 1    
    30   15   16 1    
    31   15  139 1    
    32   15  140 1    
    33   16   17 1    
    34   17   18 1    
    35   17  141 1    
    36   17  142 1    
    37   18   19 1    
    38   18   67 1    
    39   18  143 1    
    40   19   20 am   BACKBONE|DICT|INTERRES
    41   19  144 1    
    42   20   21 2    
    43   20   22 1    
    44   22   23 1    
    45   22   24 1    
    46   22  145 1    
    47   23  146 1    
    48   23  147 1    
    49   23  148 1    
    50   24   25 am   BACKBONE|DICT|INTERRES
    51   24  149 1    
    52   25   26 2    
    53   25   27 1    
    54   27   28 1    
    55   27   29 1    
    56   27  150 1    
    57   28  151 1    
    58   28  152 1    
    59   28  153 1    
    60   29   30 am   BACKBONE|DICT|INTERRES
    61   29  154 1    
    62   30   31 2    
    63   30   32 1    
    64   32   33 1    
    65   32   34 1    
    66   32  155 1    
    67   33  156 1    
    68   33  157 1    
    69   33  158 1    
    70   34   35 am   BACKBONE|DICT|INTERRES
    71   34  159 1    
    72   35   36 2    
    73   35   37 1    
    74   37   38 1    
    75   37   39 1    
    76   37  160 1    
    77   38  161 1    
    78   38  162 1    
    79   38  163 1    
    80   39   40 am   BACKBONE|DICT|INTERRES
    81   39  164 1    
    82   40   41 2    
    83   40   42 1    
    84   42   43 1    
    85   42   44 1    
    86   42  165 1    
    87   43  166 1    
    88   43  167 1    
    89   43  168 1    
    90   44   45 am   BACKBONE|DICT|INTERRES
    91   44  169 1    
    92   45   46 2    
    93   45   47 1    
    94   47   48 1    
    95   47   49 1    
    96   47  170 1    
    97   48  171 1    
    98   48  172 1    
    99   48  173 1    
   100   49   50 am   BACKBONE|DICT|INTERRES
   101   49  174 1    
   102   50   51 2    
   103   50   52 1    
   104   52   53 1    
   105   52   54 1    
   106   52  175 1    
   107   53  176 1    
   108   53  177 1    
   109   53  178 1    
   110   54   55 am   BACKBONE|DICT|INTERRES
   111   54  179 1    
   112   55   56 2    
   113   55   57 1    
   114   57   58 1    
   115   57   59 1    
   116   57  180 1    
   117   58  181 1    
   118   58  182 1    
   119   58  183 1    
   120   59   60 am   BACKBONE|DICT|INTERRES
   121   59  184 1    
   122   60   61 2    
   123   60   62 1    
   124   62   63 1    
   125   62   64 1    
   126   62  185 1    
   127   63  186 1    
   128   63  187 1    
   129   63  188 1    
   130   64   65 am   BACKBONE|DICT|INTERRES
   131   64  189 1    
   132   65   66 2    
   133   67   68 2    
   134   67   69 am   BACKBONE|DICT|INTERRES
   135   69   70 1    
   136   69  190 1    
   137   70   71 1    
   138   70   72 1    
   139   70  191 1    
   140   71  192 1    
   141   71  193 1    
   142   71  194 1    
   143   72   73 2    
   144   72   74 am   BACKBONE|DICT|INTERRES
   145   74   75 1    
   146   74  195 1    
   147   75   76 1    
   148   75   77 1    
   149   75  196 1    
   150   76  197 1    
   151   76  198 1    
   152   76  199 1    
   153   77   78 2    
   154   77   79 am   BACKBONE|DICT|INTERRES
   155   79   80 1    
   156   79  200 1    
   157   80   81 1    
   158   80   82 1    
   159   80  201 1    
   160   81  202 1    
   161   81  203 1    
   162   81  204 1    
   163   82   83 2    
   164   82   84 am   BACKBONE|DICT|INTERRES
   165   84   85 1    
   166   84  205 1    
   167   85   86 1    
   168   85   87 1    
   169   85  206 1    
   170   86  207 1    
   171   86  208 1    
   172   86  209 1    
   173   87   88 2    
   174   87   89 am   BACKBONE|DICT|INTERRES
   175   89   90 1    
   176   89  210 1    
   177   90   91 1    
   178   90   92 1    
   179   90  211 1    
   180   91  212 1    
   181   91  213 1    
   182   91  214 1    
   183   92   93 2    
   184   92   94 am   BACKBONE|DICT|INTERRES
   185   94   95 1    
   186   94  215 1    
   187   95   96 1    
   188   95   97 1    
   189   95  216 1    
   190   96  217 1    
   191   96  218 1    
   192   96  219 1    
   193   97   98 2    
   194   97   99 am   BACKBONE|DICT|INTERRES
   195   99  100 1    
   196   99  220 1    
   197  100  101 1    
   198  100  102 1    
   199  100  221 1    
   200  101  222 1    
   201  101  223 1    
   202  101  224 1    
   203  102  103 2    
   204  102  104 am   BACKBONE|DICT|INTERRES
   205  104  105 1    
   206  104  225 1    
   207  105  106 1    
   208  105  107 1    
   209  105  226 1    
   210  106  227 1    
   211  106  228 1    
   212  106  229 1    
   213  107  108 2    
   214  107  109 am   BACKBONE|DICT|INTERRES
   215  109  110 1    
   216  109  230 1    
   217  110  111 1    
   218  110  112 1    
   219  110  231 1    
   220  111  232 1    
   221  111  233 1    
   222  111  234 1    
   223  112  113 2    
   224  112  114 am   BACKBONE|DICT|INTERRES
   225  114  115 1    
   226  114  235 1    
   227  115  116 1    
   228  115  117 1    
   229  115  236 1    
   230  116  237 1    
   231  116  238 1    
   232  116  239 1    
   233  117  118 2    
   234  117  119 am   BACKBONE|DICT|INTERRES
   235  119  120 1    
   236  119  240 1    
   237  120  121 1    
   238  120  124 1    
   239  120  241 1    
   240  121  122 am   BACKBONE|DICT|INTERRES
   241  121  123 2    
   242  122  242 1    
   243  122  243 1    
   244  124  125 1    
   245  124  244 1    
   246  124  245 1    
   247  125  126 1    
   248  126  246 1    
   249  126  247 1    
@<TRIPOS>SUBSTRUCTURE
     1 UNK         1 GROUP             0       ****    0 ROOT    
