@<TRIPOS>MOLECULE
3R540
247   249    1
SMALL
USER_CHARGES


@<TRIPOS>ATOM
      1 CA          6.1142  -13.4140  -47.2779 C.3       0 UNK        -0.1800 
      2 C           6.6539  -14.8339  -47.1866 C.2       0 UNK         0.5000 
      3 O           7.2093  -15.2133  -46.1555 O.2       0 UNK        -0.5000 
      4 N           6.4781  -15.6239  -48.2543 N.am      1 UNK        -0.5000 
      5 CA          6.9067  -17.0267  -48.3630 C.3       1 UNK         0.1400 
      6 C6          6.6931  -17.5788  -49.8014 C.3       23 UNK        -0.0398 
      7 S7          4.9671  -18.0156  -50.2359 S.3       23 UNK        -0.2404 
      8 C8          4.3041  -16.4498  -50.8789 C.3       23 UNK        -0.0205 
      9 C9          2.7870  -16.4307  -50.7785 C.ar      23 UNK        -0.0193 
     10 C10         2.0237  -17.1865  -51.6710 C.ar      23 UNK        -0.1150 
     11 C11         0.6291  -17.1873  -51.5925 C.ar      23 UNK        -0.0193 
     12 C12        -0.0020  -16.4039  -50.6227 C.ar      23 UNK        -0.1150 
     13 C13         0.7474  -15.6418  -49.7197 C.ar      23 UNK        -0.0193 
     14 C14         2.1441  -15.6661  -49.7984 C.ar      23 UNK        -0.1150 
     15 C15         0.0506  -14.7594  -48.6896 C.3       23 UNK        -0.0205 
     16 S16        -0.2445  -15.6065  -47.1017 S.3       23 UNK        -0.2404 
     17 C17        -1.5490  -16.8008  -47.5504 C.3       23 UNK        -0.0398 
     18 CA         -1.0280  -18.2532  -47.4609 C.3       11 UNK         0.1400 
     19 N          -0.9754  -18.7168  -46.0708 N.am      11 UNK        -0.5000 
     20 C          -0.4154  -19.8645  -45.6669 C.2       10 UNK         0.5000 
     21 O           0.1584  -20.6502  -46.4186 O.2       10 UNK        -0.5000 
     22 CA         -0.5568  -20.2074  -44.1762 C.3       10 UNK         0.1400 
     23 CB          0.4841  -19.4516  -43.3386 C.3       10 UNK        -0.1800 
     24 N          -1.9037  -19.9202  -43.6813 N.am      10 UNK        -0.5000 
     25 C          -2.9906  -20.6198  -44.0391 C.2       9 UNK         0.5000 
     26 O          -2.9611  -21.5819  -44.8069 O.2       9 UNK        -0.5000 
     27 CA         -4.3432  -20.1394  -43.4836 C.3       9 UNK         0.1400 
     28 CB         -4.5346  -20.6102  -42.0342 C.3       9 UNK        -0.1800 
     29 N          -4.5051  -18.6868  -43.5477 N.am      9 UNK        -0.5000 
     30 C          -4.5172  -17.9671  -44.6786 C.2       8 UNK         0.5000 
     31 O          -4.3999  -18.4541  -45.8006 O.2       8 UNK        -0.5000 
     32 CA         -4.6470  -16.4405  -44.5360 C.3       8 UNK         0.1400 
     33 CB         -6.1227  -16.0201  -44.5990 C.3       8 UNK        -0.1800 
     34 N          -4.0450  -15.9085  -43.3122 N.am      8 UNK        -0.5000 
     35 C          -2.7507  -16.0104  -42.9811 C.2       7 UNK         0.5000 
     36 O          -1.9153  -16.5980  -43.6757 O.2       7 UNK        -0.5000 
     37 CA         -2.3556  -15.3214  -41.6592 C.3       7 UNK         0.1400 
     38 CB         -3.1404  -15.8824  -40.4530 C.3       7 UNK        -0.1800 
     39 N          -0.9123  -15.3400  -41.4143 N.am      7 UNK        -0.5000 
     40 C          -0.1266  -16.3785  -41.1044 C.2       6 UNK         0.5000 
     41 O          -0.5427  -17.5163  -40.8782 O.2       6 UNK        -0.5000 
     42 CA          1.3869  -16.0724  -41.0446 C.3       6 UNK         0.1400 
     43 CB          2.2127  -17.2664  -40.5336 C.3       6 UNK        -0.1800 
     44 N           1.9323  -15.6486  -42.3365 N.am      6 UNK        -0.5000 
     45 C           1.7097  -14.4820  -42.9559 C.2       5 UNK         0.5000 
     46 O           1.0013  -13.5838  -42.4940 O.2       5 UNK        -0.5000 
     47 CA          2.4380  -14.2947  -44.3001 C.3       5 UNK         0.1400 
     48 CB          1.9824  -13.0451  -45.0814 C.3       5 UNK        -0.1800 
     49 N           3.8928  -14.3071  -44.1223 N.am      5 UNK        -0.5000 
     50 C           4.6430  -13.4632  -43.3953 C.2       4 UNK         0.5000 
     51 O           4.2045  -12.4685  -42.8158 O.2       4 UNK        -0.5000 
     52 CA          6.1490  -13.7958  -43.3231 C.3       4 UNK         0.1400 
     53 CB          6.8693  -13.1298  -42.1310 C.3       4 UNK        -0.1800 
     54 N           6.4097  -15.2404  -43.3774 N.am      4 UNK        -0.5000 
     55 C           6.0807  -16.1560  -42.4530 C.2       3 UNK         0.5000 
     56 O           5.5676  -15.8825  -41.3672 O.2       3 UNK        -0.5000 
     57 CA          6.3434  -17.6274  -42.8403 C.3       3 UNK         0.1400 
     58 CB          5.8740  -18.6290  -41.7643 C.3       3 UNK        -0.1800 
     59 N           5.7711  -17.9809  -44.1452 N.am      3 UNK        -0.5000 
     60 C           4.4896  -17.8839  -44.5274 C.2       2 UNK         0.5000 
     61 O           3.5926  -17.4371  -43.8111 O.2       2 UNK        -0.5000 
     62 CA          4.1731  -18.3217  -45.9714 C.3       2 UNK         0.1400 
     63 CB          2.7089  -18.0666  -46.3637 C.3       2 UNK        -0.1800 
     64 N           5.0116  -17.6280  -46.9402 N.am      2 UNK        -0.5000 
     65 C           6.2699  -17.9315  -47.2814 C.2       1 UNK         0.5000 
     66 O           6.9207  -18.8409  -46.7647 O.2       1 UNK        -0.5000 
     67 C          -1.8414  -19.2050  -48.3630 C.2       11 UNK         0.5000 
     68 O          -1.4499  -19.4342  -49.5061 O.2       11 UNK        -0.5000 
     69 N          -2.9324  -19.7742  -47.8337 N.am      12 UNK        -0.5000 
     70 CA         -3.7195  -20.8057  -48.5011 C.3       12 UNK         0.1400 
     71 CB         -5.0524  -21.0053  -47.7638 C.3       12 UNK        -0.1800 
     72 C          -2.9472  -22.1270  -48.6301 C.2       12 UNK         0.5000 
     73 O          -2.8973  -22.6876  -49.7249 O.2       12 UNK        -0.5000 
     74 N          -2.3353  -22.5841  -47.5277 N.am      13 UNK        -0.5000 
     75 CA         -1.5308  -23.8090  -47.4611 C.3       13 UNK         0.1400 
     76 CB         -1.1357  -24.0795  -46.0022 C.3       13 UNK        -0.1800 
     77 C          -0.2821  -23.7859  -48.3652 C.2       13 UNK         0.5000 
     78 O           0.1442  -24.8407  -48.8356 O.2       13 UNK        -0.5000 
     79 N           0.2578  -22.5869  -48.6213 N.am      14 UNK        -0.5000 
     80 CA          1.3408  -22.3279  -49.5710 C.3       14 UNK         0.1400 
     81 CB          1.8976  -20.9158  -49.3182 C.3       14 UNK        -0.1800 
     82 C           0.9309  -22.4951  -51.0514 C.2       14 UNK         0.5000 
     83 O           1.8132  -22.5074  -51.9115 O.2       14 UNK        -0.5000 
     84 N          -0.3730  -22.6166  -51.3330 N.am      15 UNK        -0.5000 
     85 CA         -0.9356  -22.7812  -52.6671 C.3       15 UNK         0.1400 
     86 CB         -1.4181  -21.4164  -53.1860 C.3       15 UNK        -0.1800 
     87 C          -2.0007  -23.8925  -52.6602 C.2       15 UNK         0.5000 
     88 O          -1.6697  -25.0323  -52.3291 O.2       15 UNK        -0.5000 
     89 N          -3.2358  -23.5770  -53.0708 N.am      16 UNK        -0.5000 
     90 CA         -4.2824  -24.5506  -53.3875 C.3       16 UNK         0.1400 
     91 CB         -5.0846  -24.0176  -54.5844 C.3       16 UNK        -0.1800 
     92 C          -5.2054  -24.8967  -52.2022 C.2       16 UNK         0.5000 
     93 O          -6.1583  -25.6552  -52.3939 O.2       16 UNK        -0.5000 
     94 N          -4.9210  -24.3610  -51.0055 N.am      17 UNK        -0.5000 
     95 CA         -5.6387  -24.5939  -49.7491 C.3       17 UNK         0.1400 
     96 CB         -5.3697  -26.0260  -49.2353 C.3       17 UNK        -0.1800 
     97 C          -7.1320  -24.2242  -49.8620 C.2       17 UNK         0.5000 
     98 O          -7.4461  -23.0539  -50.0835 O.2       17 UNK        -0.5000 
     99 N          -8.0227  -25.2150  -49.7258 N.am      18 UNK        -0.5000 
    100 CA        -9.4755  -25.0593  -49.8133 C.3       18 UNK         0.1400 
    101 CB       -10.1433  -26.3815  -49.4065 C.3       18 UNK        -0.1800 
    102 C         -9.9780  -24.6068  -51.1986 C.2       18 UNK         0.5000 
    103 O        -11.0410  -23.9890  -51.2784 O.2       18 UNK        -0.5000 
    104 N         -9.2119  -24.8875  -52.2623 N.am      19 UNK        -0.5000 
    105 CA        -9.5200  -24.5004  -53.6394 C.3       19 UNK         0.1400 
    106 CB        -8.8944  -25.5225  -54.6037 C.3       19 UNK        -0.1800 
    107 C         -9.0988  -23.0437  -53.9285 C.2       19 UNK         0.5000 
    108 O         -8.2899  -22.7939  -54.8221 O.2       19 UNK        -0.5000 
    109 N         -9.6792  -22.1107  -53.1619 N.am      20 UNK        -0.5000 
    110 CA        -9.5584  -20.6530  -53.2736 C.3       20 UNK         0.1400 
    111 CB       -10.1089  -20.1560  -54.6278 C.3       20 UNK        -0.1800 
    112 C         -8.1551  -20.0937  -52.9531 C.2       20 UNK         0.5000 
    113 O         -7.7772  -19.0534  -53.4976 O.2       20 UNK        -0.5000 
    114 N         -7.4299  -20.7516  -52.0353 N.am      21 UNK        -0.5000 
    115 CA        -6.1572  -20.3169  -51.4511 C.3       21 UNK         0.1400 
    116 CB        -6.4069  -19.1310  -50.4885 C.3       21 UNK        -0.1800 
    117 C         -5.0689  -20.0487  -52.5127 C.2       21 UNK         0.5000 
    118 O         -4.6513  -20.9862  -53.1922 O.2       21 UNK        -0.5000 
    119 N         -4.6279  -18.7901  -52.6286 N.am      22 UNK        -0.5000 
    120 CA        -3.6720  -18.3120  -53.6399 C.3       22 UNK         0.1400 
    121 C         -4.3234  -17.9654  -55.0155 C.2       22 UNK         0.5000 
    122 N         -5.6366  -18.0667  -55.1867 N.am      22 UNK        -0.7600 
    123 O         -3.6254  -17.6082  -55.9598 O.2       22 UNK        -0.5000 
    124 C124       -2.8092  -17.1488  -53.0720 C.3       23 UNK        -0.0398 
    125 S125       -1.1186  -17.1001  -53.7659 S.3       23 UNK        -0.2404 
    126 C126       -0.1817  -18.0628  -52.5366 C.3       23 UNK        -0.0205 
    127 H127        6.8913  -12.6990  -47.0083 H         1 UNK         0.0600 
    128 H128        5.2771  -13.2851  -46.5923 H         1 UNK         0.0600 
    129 H129        5.7689  -13.1761  -48.2842 H         1 UNK         0.0600 
    130 H130        6.0321  -15.2405  -49.0736 H         1 UNK         0.3000 
    131 H131        7.9822  -17.0301  -48.1733 H         1 UNK         0.0600 
    132 H132        7.0857  -16.8788  -50.5404 H         1 UNK         0.0800 
    133 H133        7.2885  -18.4851  -49.9231 H         1 UNK         0.0800 
    134 H134        4.7227  -15.6042  -50.3354 H         1 UNK         0.0800 
    135 H135        4.6094  -16.3284  -51.9193 H         1 UNK         0.0800 
    136 H136        2.5225  -17.7883  -52.4179 H         1 UNK         0.1150 
    137 H137       -1.0797  -16.3883  -50.5789 H         1 UNK         0.1150 
    138 H138        2.7278  -15.0786  -49.1038 H         1 UNK         0.1150 
    139 H139        0.6593  -13.8743  -48.4984 H         1 UNK         0.0800 
    140 H140       -0.8954  -14.3888  -49.0872 H         1 UNK         0.0800 
    141 H141       -1.9266  -16.5650  -48.5443 H         1 UNK         0.0800 
    142 H142       -2.3979  -16.6569  -46.8820 H         1 UNK         0.0800 
    143 H143       -0.0079  -18.2768  -47.8512 H         1 UNK         0.0600 
    144 H144       -1.4019  -18.1166  -45.3758 H         1 UNK         0.3000 
    145 H145       -0.3713  -21.2769  -44.0574 H         1 UNK         0.0600 
    146 H146        0.3814  -18.3707  -43.4435 H         1 UNK         0.0600 
    147 H147        1.4977  -19.7158  -43.6414 H         1 UNK         0.0600 
    148 H148        0.3911  -19.6975  -42.2809 H         1 UNK         0.0600 
    149 H149       -2.0080  -19.1102  -43.0854 H         1 UNK         0.3000 
    150 H150       -5.1289  -20.5887  -44.0947 H         1 UNK         0.0600 
    151 H151       -4.4304  -21.6935  -41.9590 H         1 UNK         0.0600 
    152 H152       -5.5277  -20.3543  -41.6643 H         1 UNK         0.0600 
    153 H153       -3.8004  -20.1620  -41.3633 H         1 UNK         0.0600 
    154 H154       -4.5985  -18.1986  -42.6697 H         1 UNK         0.3000 
    155 H155       -4.1289  -15.9858  -45.3821 H         1 UNK         0.0600 
    156 H156       -6.2251  -14.9347  -44.5930 H         1 UNK         0.0600 
    157 H157       -6.6912  -16.4169  -43.7570 H         1 UNK         0.0600 
    158 H158       -6.5935  -16.3838  -45.5135 H         1 UNK         0.0600 
    159 H159       -4.6657  -15.4044  -42.6956 H         1 UNK         0.3000 
    160 H160       -2.6171  -14.2679  -41.7672 H         1 UNK         0.0600 
    161 H161       -3.0456  -16.9656  -40.3707 H         1 UNK         0.0600 
    162 H162       -4.2040  -15.6573  -40.5332 H         1 UNK         0.0600 
    163 H163       -2.7920  -15.4442  -39.5176 H         1 UNK         0.0600 
    164 H164       -0.4248  -14.4824  -41.6623 H         1 UNK         0.3000 
    165 H165        1.5199  -15.2535  -40.3349 H         1 UNK         0.0600 
    166 H166        3.2573  -16.9889  -40.3950 H         1 UNK         0.0600 
    167 H167        1.8424  -17.6194  -39.5705 H         1 UNK         0.0600 
    168 H168        2.1801  -18.1052  -41.2297 H         1 UNK         0.0600 
    169 H169        2.5330  -16.3262  -42.8034 H         1 UNK         0.3000 
    170 H170        2.1889  -15.1638  -44.9097 H         1 UNK         0.0600 
    171 H171        0.9107  -13.0845  -45.2802 H         1 UNK         0.0600 
    172 H172        2.1785  -12.1231  -44.5338 H         1 UNK         0.0600 
    173 H173        2.4879  -12.9784  -46.0447 H         1 UNK         0.0600 
    174 H174        4.3607  -15.1220  -44.4903 H         1 UNK         0.3000 
    175 H175        6.5873  -13.3776  -44.2296 H         1 UNK         0.0600 
    176 H176        6.4252  -13.4100  -41.1757 H         1 UNK         0.0600 
    177 H177        7.9243  -13.4025  -42.1052 H         1 UNK         0.0600 
    178 H178        6.8182  -12.0430  -42.2045 H         1 UNK         0.0600 
    179 H179        6.8131  -15.5565  -44.2556 H         1 UNK         0.3000 
    180 H180        7.4252  -17.7301  -42.9364 H         1 UNK         0.0600 
    181 H181        6.1280  -19.6518  -42.0421 H         1 UNK         0.0600 
    182 H182        4.7958  -18.5834  -41.6101 H         1 UNK         0.0600 
    183 H183        6.3513  -18.4259  -40.8050 H         1 UNK         0.0600 
    184 H184        6.4273  -18.3284  -44.8370 H         1 UNK         0.3000 
    185 H185        4.3596  -19.3956  -46.0353 H         1 UNK         0.0600 
    186 H186        2.4745  -17.0028  -46.3925 H         1 UNK         0.0600 
    187 H187        2.4841  -18.4822  -47.3461 H         1 UNK         0.0600 
    188 H188        2.0312  -18.5302  -45.6517 H         1 UNK         0.0600 
    189 H189        4.5809  -16.8518  -47.4191 H         1 UNK         0.3000 
    190 H190       -3.2557  -19.4746  -46.9179 H         1 UNK         0.3000 
    191 H191       -3.9320  -20.4566  -49.5115 H         1 UNK         0.0600 
    192 H192       -5.6036  -20.0684  -47.6863 H         1 UNK         0.0600 
    193 H193       -4.9047  -21.3856  -46.7528 H         1 UNK         0.0600 
    194 H194       -5.6935  -21.7101  -48.2922 H         1 UNK         0.0600 
    195 H195       -2.4482  -22.0746  -46.6560 H         1 UNK         0.3000 
    196 H196       -2.1617  -24.6329  -47.8012 H         1 UNK         0.0600 
    197 H197       -0.5269  -23.2714  -45.5961 H         1 UNK         0.0600 
    198 H198       -2.0160  -24.1874  -45.3684 H         1 UNK         0.0600 
    199 H199       -0.5588  -25.0012  -45.9167 H         1 UNK         0.0600 
    200 H200       -0.0993  -21.7835  -48.1152 H         1 UNK         0.3000 
    201 H201        2.1392  -23.0462  -49.3751 H         1 UNK         0.0600 
    202 H202        1.1433  -20.1476  -49.4895 H         1 UNK         0.0600 
    203 H203        2.7383  -20.6984  -49.9783 H         1 UNK         0.0600 
    204 H204        2.2565  -20.8109  -48.2944 H         1 UNK         0.0600 
    205 H205       -1.0457  -22.6345  -50.5735 H         1 UNK         0.3000 
    206 H206       -0.1652  -23.1375  -53.3538 H         1 UNK         0.0600 
    207 H207       -0.5676  -20.7608  -53.3595 H         1 UNK         0.0600 
    208 H208       -1.9439  -21.5010  -54.1378 H         1 UNK         0.0600 
    209 H209       -2.0761  -20.9275  -52.4674 H         1 UNK         0.0600 
    210 H210       -3.4755  -22.6053  -53.2479 H         1 UNK         0.3000 
    211 H211       -3.8139  -25.4854  -53.7019 H         1 UNK         0.0600 
    212 H212       -5.7560  -24.7792  -54.9778 H         1 UNK         0.0600 
    213 H213       -4.4285  -23.7196  -55.4023 H         1 UNK         0.0600 
    214 H214       -5.6891  -23.1535  -54.3089 H         1 UNK         0.0600 
    215 H215       -4.1193  -23.7426  -50.9342 H         1 UNK         0.3000 
    216 H216       -5.2189  -23.9099  -49.0140 H         1 UNK         0.0600 
    217 H217       -5.8434  -26.1941  -48.2672 H         1 UNK         0.0600 
    218 H218       -5.7319  -26.7901  -49.9239 H         1 UNK         0.0600 
    219 H219       -4.3007  -26.1903  -49.0983 H         1 UNK         0.0600 
    220 H220       -7.6778  -26.1517  -49.5750 H         1 UNK         0.3000 
    221 H221       -9.7711  -24.2920  -49.0948 H         1 UNK         0.0600 
    222 H222       -9.8657  -26.6690  -48.3922 H         1 UNK         0.0600 
    223 H223       -9.8636  -27.1957  -50.0762 H         1 UNK         0.0600 
    224 H224      -11.2305  -26.2946  -49.4316 H         1 UNK         0.0600 
    225 H225       -8.3142  -25.3351  -52.1145 H         1 UNK         0.3000 
    226 H226      -10.6009  -24.5482  -53.7884 H         1 UNK         0.0600 
    227 H227       -7.8141  -25.5788  -54.4875 H         1 UNK         0.0600 
    228 H228       -9.2980  -26.5204  -54.4319 H         1 UNK         0.0600 
    229 H229       -9.1029  -25.2633  -55.6424 H         1 UNK         0.0600 
    230 H230      -10.3082  -22.4453  -52.4390 H         1 UNK         0.3000 
    231 H231      -10.2107  -20.2486  -52.4986 H         1 UNK         0.0600 
    232 H232       -9.4685  -20.4523  -55.4590 H         1 UNK         0.0600 
    233 H233      -10.1818  -19.0680  -54.6458 H         1 UNK         0.0600 
    234 H234      -11.1082  -20.5483  -54.8163 H         1 UNK         0.0600 
    235 H235       -7.7974  -21.6147  -51.6517 H         1 UNK         0.3000 
    236 H236       -5.7890  -21.1546  -50.8591 H         1 UNK         0.0600 
    237 H237       -5.4865  -18.7927  -50.0120 H         1 UNK         0.0600 
    238 H238       -6.8495  -18.2732  -50.9958 H         1 UNK         0.0600 
    239 H239       -7.0889  -19.4228  -49.6898 H         1 UNK         0.0600 
    240 H240       -5.0597  -18.0792  -52.0570 H         1 UNK         0.3000 
    241 H241       -2.9969  -19.1411  -53.8525 H         1 UNK         0.0600 
    242 H242       -6.0297  -17.8418  -56.0863 H         1 UNK         0.3800 
    243 H243       -6.2528  -18.3911  -54.4460 H         1 UNK         0.3800 
    244 H244       -2.7228  -17.2374  -51.9887 H         1 UNK         0.0800 
    245 H245       -3.2900  -16.1845  -53.2445 H         1 UNK         0.0800 
    246 H246       -0.8497  -18.7031  -51.9604 H         1 UNK         0.0800 
    247 H247        0.4858  -18.7348  -53.0768 H         1 UNK         0.0800 
@<TRIPOS>BOND
     1    1    2 1    
     2    1  127 1    
     3    1  128 1    
     4    1  129 1    
     5    2    3 2    
     6    2    4 am   BACKBONE|DICT|INTERRES
     7    4    5 1    
     8    4  130 1    
     9    5    6 1    
    10    5   65 1    
    11    5  131 1    
    12    6    7 1    
    13    6  132 1    
    14    6  133 1    
    15    7    8 1    
    16    8    9 1    
    17    8  134 1    
    18    8  135 1    
    19    9   10 ar   
    20    9   14 ar   
    21   10   11 ar   
    22   10  136 1    
    23   11   12 ar   
    24   11  126 1    
    25   12   13 ar   
    26   12  137 1    
    27   13   14 ar   
    28   13   15 1    
    29   14  138 1    
    30   15   16 1    
    31   15  139 1    
    32   15  140 1    
    33   16   17 1    
    34   17   18 1    
    35   17  141 1    
    36   17  142 1    
    37   18   19 1    
    38   18   67 1    
    39   18  143 1    
    40   19   20 am   BACKBONE|DICT|INTERRES
    41   19  144 1    
    42   20   21 2    
    43   20   22 1    
    44   22   23 1    
    45   22   24 1    
    46   22  145 1    
    47   23  146 1    
    48   23  147 1    
    49   23  148 1    
    50   24   25 am   BACKBONE|DICT|INTERRES
    51   24  149 1    
    52   25   26 2    
    53   25   27 1    
    54   27   28 1    
    55   27   29 1    
    56   27  150 1    
    57   28  151 1    
    58   28  152 1    
    59   28  153 1    
    60   29   30 am   BACKBONE|DICT|INTERRES
    61   29  154 1    
    62   30   31 2    
    63   30   32 1    
    64   32   33 1    
    65   32   34 1    
    66   32  155 1    
    67   33  156 1    
    68   33  157 1    
    69   33  158 1    
    70   34   35 am   BACKBONE|DICT|INTERRES
    71   34  159 1    
    72   35   36 2    
    73   35   37 1    
    74   37   38 1    
    75   37   39 1    
    76   37  160 1    
    77   38  161 1    
    78   38  162 1    
    79   38  163 1    
    80   39   40 am   BACKBONE|DICT|INTERRES
    81   39  164 1    
    82   40   41 2    
    83   40   42 1    
    84   42   43 1    
    85   42   44 1    
    86   42  165 1    
    87   43  166 1    
    88   43  167 1    
    89   43  168 1    
    90   44   45 am   BACKBONE|DICT|INTERRES
    91   44  169 1    
    92   45   46 2    
    93   45   47 1    
    94   47   48 1    
    95   47   49 1    
    96   47  170 1    
    97   48  171 1    
    98   48  172 1    
    99   48  173 1    
   100   49   50 am   BACKBONE|DICT|INTERRES
   101   49  174 1    
   102   50   51 2    
   103   50   52 1    
   104   52   53 1    
   105   52   54 1    
   106   52  175 1    
   107   53  176 1    
   108   53  177 1    
   109   53  178 1    
   110   54   55 am   BACKBONE|DICT|INTERRES
   111   54  179 1    
   112   55   56 2    
   113   55   57 1    
   114   57   58 1    
   115   57   59 1    
   116   57  180 1    
   117   58  181 1    
   118   58  182 1    
   119   58  183 1    
   120   59   60 am   BACKBONE|DICT|INTERRES
   121   59  184 1    
   122   60   61 2    
   123   60   62 1    
   124   62   63 1    
   125   62   64 1    
   126   62  185 1    
   127   63  186 1    
   128   63  187 1    
   129   63  188 1    
   130   64   65 am   BACKBONE|DICT|INTERRES
   131   64  189 1    
   132   65   66 2    
   133   67   68 2    
   134   67   69 am   BACKBONE|DICT|INTERRES
   135   69   70 1    
   136   69  190 1    
   137   70   71 1    
   138   70   72 1    
   139   70  191 1    
   140   71  192 1    
   141   71  193 1    
   142   71  194 1    
   143   72   73 2    
   144   72   74 am   BACKBONE|DICT|INTERRES
   145   74   75 1    
   146   74  195 1    
   147   75   76 1    
   148   75   77 1    
   149   75  196 1    
   150   76  197 1    
   151   76  198 1    
   152   76  199 1    
   153   77   78 2    
   154   77   79 am   BACKBONE|DICT|INTERRES
   155   79   80 1    
   156   79  200 1    
   157   80   81 1    
   158   80   82 1    
   159   80  201 1    
   160   81  202 1    
   161   81  203 1    
   162   81  204 1    
   163   82   83 2    
   164   82   84 am   BACKBONE|DICT|INTERRES
   165   84   85 1    
   166   84  205 1    
   167   85   86 1    
   168   85   87 1    
   169   85  206 1    
   170   86  207 1    
   171   86  208 1    
   172   86  209 1    
   173   87   88 2    
   174   87   89 am   BACKBONE|DICT|INTERRES
   175   89   90 1    
   176   89  210 1    
   177   90   91 1    
   178   90   92 1    
   179   90  211 1    
   180   91  212 1    
   181   91  213 1    
   182   91  214 1    
   183   92   93 2    
   184   92   94 am   BACKBONE|DICT|INTERRES
   185   94   95 1    
   186   94  215 1    
   187   95   96 1    
   188   95   97 1    
   189   95  216 1    
   190   96  217 1    
   191   96  218 1    
   192   96  219 1    
   193   97   98 2    
   194   97   99 am   BACKBONE|DICT|INTERRES
   195   99  100 1    
   196   99  220 1    
   197  100  101 1    
   198  100  102 1    
   199  100  221 1    
   200  101  222 1    
   201  101  223 1    
   202  101  224 1    
   203  102  103 2    
   204  102  104 am   BACKBONE|DICT|INTERRES
   205  104  105 1    
   206  104  225 1    
   207  105  106 1    
   208  105  107 1    
   209  105  226 1    
   210  106  227 1    
   211  106  228 1    
   212  106  229 1    
   213  107  108 2    
   214  107  109 am   BACKBONE|DICT|INTERRES
   215  109  110 1    
   216  109  230 1    
   217  110  111 1    
   218  110  112 1    
   219  110  231 1    
   220  111  232 1    
   221  111  233 1    
   222  111  234 1    
   223  112  113 2    
   224  112  114 am   BACKBONE|DICT|INTERRES
   225  114  115 1    
   226  114  235 1    
   227  115  116 1    
   228  115  117 1    
   229  115  236 1    
   230  116  237 1    
   231  116  238 1    
   232  116  239 1    
   233  117  118 2    
   234  117  119 am   BACKBONE|DICT|INTERRES
   235  119  120 1    
   236  119  240 1    
   237  120  121 1    
   238  120  124 1    
   239  120  241 1    
   240  121  122 am   BACKBONE|DICT|INTERRES
   241  121  123 2    
   242  122  242 1    
   243  122  243 1    
   244  124  125 1    
   245  124  244 1    
   246  124  245 1    
   247  125  126 1    
   248  126  246 1    
   249  126  247 1    
@<TRIPOS>SUBSTRUCTURE
     1 UNK         1 GROUP             0       ****    0 ROOT    
