@<TRIPOS>MOLECULE
3R540
247   249    1
SMALL
USER_CHARGES


@<TRIPOS>ATOM
      1 CA          2.2346  -14.3798  -52.6796 C.3       0 UNK        -0.1800 
      2 C           1.7592  -14.1789  -51.2480 C.2       0 UNK         0.5000 
      3 O           1.2343  -13.1147  -50.9200 O.2       0 UNK        -0.5000 
      4 N           1.9461  -15.1944  -50.3971 N.am      1 UNK        -0.5000 
      5 CA          1.4340  -15.2428  -49.0250 C.3       1 UNK         0.1400 
      6 C6          2.2418  -16.2494  -48.1643 C.3       23 UNK        -0.0398 
      7 S7          1.9196  -18.0089  -48.5188 S.3       23 UNK        -0.2404 
      8 C8          3.2623  -18.4934  -49.6384 C.3       23 UNK        -0.0205 
      9 C9          2.9027  -19.8252  -50.2735 C.ar      23 UNK        -0.0193 
     10 C10         1.9257  -19.8657  -51.2696 C.ar      23 UNK        -0.1150 
     11 C11         1.5053  -21.0849  -51.7987 C.ar      23 UNK        -0.0193 
     12 C12         2.0845  -22.2705  -51.3394 C.ar      23 UNK        -0.1150 
     13 C13         3.0622  -22.2538  -50.3382 C.ar      23 UNK        -0.0193 
     14 C14         3.4781  -21.0166  -49.8213 C.ar      23 UNK        -0.1150 
     15 C15         3.5932  -23.6034  -49.8410 C.3       23 UNK        -0.0205 
     16 S16         4.7794  -23.5647  -48.4508 S.3       23 UNK        -0.2404 
     17 C17         3.7502  -22.9248  -47.0855 C.3       23 UNK        -0.0398 
     18 CA          3.5570  -23.9242  -45.9142 C.3       11 UNK         0.1400 
     19 N           3.4685  -23.2081  -44.6363 N.am      11 UNK        -0.5000 
     20 C           3.7672  -23.7170  -43.4344 C.2       10 UNK         0.5000 
     21 O           4.1845  -24.8623  -43.2609 O.2       10 UNK        -0.5000 
     22 CA          3.5284  -22.7992  -42.2191 C.3       10 UNK         0.1400 
     23 CB          4.7209  -21.8538  -42.0117 C.3       10 UNK        -0.1800 
     24 N           2.2971  -22.0090  -42.3131 N.am      10 UNK        -0.5000 
     25 C           1.0573  -22.5194  -42.3503 C.2       9 UNK         0.5000 
     26 O           0.8115  -23.7252  -42.3510 O.2       9 UNK        -0.5000 
     27 CA         -0.1016  -21.5128  -42.4449 C.3       9 UNK         0.1400 
     28 CB         -0.3833  -20.8604  -41.0829 C.3       9 UNK        -0.1800 
     29 N           0.1740  -20.4805  -43.4411 N.am      9 UNK        -0.5000 
     30 C           0.0980  -20.6836  -44.7630 C.2       8 UNK         0.5000 
     31 O          -0.2784  -21.7410  -45.2694 O.2       8 UNK        -0.5000 
     32 CA          0.5658  -19.5314  -45.6704 C.3       8 UNK         0.1400 
     33 CB         -0.5875  -18.5685  -45.9842 C.3       8 UNK        -0.1800 
     34 N           1.6832  -18.7726  -45.1063 N.am      8 UNK        -0.5000 
     35 C           2.9053  -19.2796  -44.8976 C.2       7 UNK         0.5000 
     36 O           3.2091  -20.4463  -45.1318 O.2       7 UNK        -0.5000 
     37 CA          3.9462  -18.3431  -44.2637 C.3       7 UNK         0.1400 
     38 CB          4.6361  -17.4934  -45.3409 C.3       7 UNK        -0.1800 
     39 N           3.3923  -17.4673  -43.2276 N.am      7 UNK        -0.5000 
     40 C           2.7848  -17.8839  -42.1073 C.2       6 UNK         0.5000 
     41 O           2.5368  -19.0642  -41.8575 O.2       6 UNK        -0.5000 
     42 CA          2.3320  -16.7878  -41.1377 C.3       6 UNK         0.1400 
     43 CB          3.4221  -15.7151  -40.9128 C.3       6 UNK        -0.1800 
     44 N           1.1020  -16.2033  -41.6631 N.am      6 UNK        -0.5000 
     45 C           0.2860  -15.3756  -41.0014 C.2       5 UNK         0.5000 
     46 O           0.4953  -14.9628  -39.8597 O.2       5 UNK        -0.5000 
     47 CA         -0.9967  -14.9498  -41.7392 C.3       5 UNK         0.1400 
     48 CB         -0.7125  -13.7731  -42.6847 C.3       5 UNK        -0.1800 
     49 N          -1.6385  -16.0300  -42.4941 N.am      5 UNK        -0.5000 
     50 C          -2.1736  -17.1334  -41.9462 C.2       4 UNK         0.5000 
     51 O          -2.0657  -17.4187  -40.7528 O.2       4 UNK        -0.5000 
     52 CA         -2.9825  -18.0609  -42.8836 C.3       4 UNK         0.1400 
     53 CB         -4.0383  -18.8986  -42.1329 C.3       4 UNK        -0.1800 
     54 N          -3.6043  -17.3667  -44.0188 N.am      4 UNK        -0.5000 
     55 C          -4.4588  -16.3340  -43.9687 C.2       3 UNK         0.5000 
     56 O          -4.8414  -15.8158  -42.9184 O.2       3 UNK        -0.5000 
     57 CA         -4.9757  -15.7919  -45.3177 C.3       3 UNK         0.1400 
     58 CB         -5.5191  -14.3531  -45.2019 C.3       3 UNK        -0.1800 
     59 N          -4.0290  -15.8610  -46.4380 N.am      3 UNK        -0.5000 
     60 C          -2.7971  -15.3372  -46.5122 C.2       2 UNK         0.5000 
     61 O          -2.1337  -14.9459  -45.5486 O.2       2 UNK        -0.5000 
     62 CA         -2.2637  -15.1569  -47.9392 C.3       2 UNK         0.1400 
     63 CB         -2.8211  -13.8620  -48.5580 C.3       2 UNK        -0.1800 
     64 N          -0.8041  -15.1068  -47.9802 N.am      2 UNK        -0.5000 
     65 C          -0.0903  -15.5146  -49.0369 C.2       1 UNK         0.5000 
     66 O          -0.5968  -16.0844  -50.0077 O.2       1 UNK        -0.5000 
     67 C           2.3482  -24.8627  -46.1515 C.2       11 UNK         0.5000 
     68 O           2.3623  -25.6293  -47.1148 O.2       11 UNK        -0.5000 
     69 N           1.3266  -24.7866  -45.2815 N.am      12 UNK        -0.5000 
     70 CA          0.0623  -25.5319  -45.3148 C.3       12 UNK         0.1400 
     71 CB          0.3040  -27.0422  -45.1128 C.3       12 UNK        -0.1800 
     72 C          -0.7973  -25.2136  -46.5573 C.2       12 UNK         0.5000 
     73 O          -1.5246  -26.0774  -47.0504 O.2       12 UNK        -0.5000 
     74 N          -0.7049  -23.9650  -47.0290 N.am      13 UNK        -0.5000 
     75 CA         -1.4792  -23.4187  -48.1420 C.3       13 UNK         0.1400 
     76 CB         -0.5948  -22.4127  -48.8895 C.3       13 UNK        -0.1800 
     77 C          -2.7969  -22.7707  -47.6698 C.2       13 UNK         0.5000 
     78 O          -3.6775  -22.5267  -48.4965 O.2       13 UNK        -0.5000 
     79 N          -2.9129  -22.5228  -46.3549 N.am      14 UNK        -0.5000 
     80 CA         -4.0663  -21.9835  -45.6328 C.3       14 UNK         0.1400 
     81 CB         -5.2416  -22.9851  -45.6508 C.3       14 UNK        -0.1800 
     82 C          -4.4340  -20.5772  -46.1340 C.2       14 UNK         0.5000 
     83 O          -3.7484  -19.6196  -45.7812 O.2       14 UNK        -0.5000 
     84 N          -5.4858  -20.4676  -46.9548 N.am      15 UNK        -0.5000 
     85 CA         -5.8913  -19.2217  -47.6036 C.3       15 UNK         0.1400 
     86 CB         -7.2545  -19.4195  -48.2773 C.3       15 UNK        -0.1800 
     87 C          -4.8544  -18.7084  -48.6194 C.2       15 UNK         0.5000 
     88 O          -4.7112  -17.4923  -48.7619 O.2       15 UNK        -0.5000 
     89 N          -4.1435  -19.6376  -49.2788 N.am      16 UNK        -0.5000 
     90 CA         -3.0833  -19.4055  -50.2618 C.3       16 UNK         0.1400 
     91 CB         -1.7884  -18.9910  -49.5376 C.3       16 UNK        -0.1800 
     92 C          -3.5375  -18.4417  -51.3783 C.2       16 UNK         0.5000 
     93 O          -4.5291  -18.7405  -52.0496 O.2       16 UNK        -0.5000 
     94 N          -2.8593  -17.2967  -51.5469 N.am      17 UNK        -0.5000 
     95 CA         -3.1774  -16.2951  -52.5679 C.3       17 UNK         0.1400 
     96 CB         -2.0483  -15.2575  -52.6523 C.3       17 UNK        -0.1800 
     97 C          -4.5437  -15.6003  -52.3888 C.2       17 UNK         0.5000 
     98 O          -5.0430  -15.0381  -53.3634 O.2       17 UNK        -0.5000 
     99 N          -5.1535  -15.6728  -51.1928 N.am      18 UNK        -0.5000 
    100 CA        -6.5022  -15.1483  -50.9397 C.3       18 UNK         0.1400 
    101 CB        -6.7816  -15.0952  -49.4289 C.3       18 UNK        -0.1800 
    102 C         -7.6003  -15.9630  -51.6515 C.2       18 UNK         0.5000 
    103 O         -8.6227  -15.3942  -52.0352 O.2       18 UNK        -0.5000 
    104 N         -7.3604  -17.2695  -51.8259 N.am      19 UNK        -0.5000 
    105 CA        -8.2389  -18.1941  -52.5468 C.3       19 UNK         0.1400 
    106 CB        -8.3522  -19.4902  -51.7273 C.3       19 UNK        -0.1800 
    107 C         -7.7215  -18.5048  -53.9649 C.2       19 UNK         0.5000 
    108 O         -8.3976  -19.2209  -54.7041 O.2       19 UNK        -0.5000 
    109 N         -6.5220  -18.0017  -54.3008 N.am      20 UNK        -0.5000 
    110 CA        -5.7082  -18.3404  -55.4755 C.3       20 UNK         0.1400 
    111 CB        -6.3863  -17.8745  -56.7806 C.3       20 UNK        -0.1800 
    112 C         -5.3053  -19.8329  -55.4971 C.2       20 UNK         0.5000 
    113 O         -5.1565  -20.4283  -56.5668 O.2       20 UNK        -0.5000 
    114 N         -5.1231  -20.4137  -54.3035 N.am      21 UNK        -0.5000 
    115 CA        -4.8043  -21.8192  -54.0631 C.3       21 UNK         0.1400 
    116 CB        -5.3382  -22.2077  -52.6710 C.3       21 UNK        -0.1800 
    117 C         -3.2936  -22.0759  -54.2178 C.2       21 UNK         0.5000 
    118 O         -2.6385  -22.5114  -53.2684 O.2       21 UNK        -0.5000 
    119 N         -2.7657  -21.7641  -55.4079 N.am      22 UNK        -0.5000 
    120 CA        -1.3381  -21.8378  -55.7527 C.3       22 UNK         0.1400 
    121 C         -1.0734  -22.2867  -57.2239 C.2       22 UNK         0.5000 
    122 N         -2.0661  -22.7748  -57.9637 N.am      22 UNK        -0.7600 
    123 O          0.0527  -22.2081  -57.7070 O.2       22 UNK        -0.5000 
    124 C124       -0.5978  -20.5216  -55.3610 C.3       23 UNK        -0.0398 
    125 S125        0.9870  -20.8190  -54.5071 S.3       23 UNK        -0.2404 
    126 C126        0.3807  -21.1148  -52.8169 C.3       23 UNK        -0.0205 
    127 H127        2.6944  -15.3574  -52.8205 H         1 UNK         0.0600 
    128 H128        2.9675  -13.6181  -52.9426 H         1 UNK         0.0600 
    129 H129        1.3935  -14.2980  -53.3677 H         1 UNK         0.0600 
    130 H130        2.3280  -16.0608  -50.7426 H         1 UNK         0.3000 
    131 H131        1.5804  -14.2542  -48.5850 H         1 UNK         0.0600 
    132 H132        2.0038  -16.0880  -47.1125 H         1 UNK         0.0800 
    133 H133        3.3109  -16.0522  -48.2541 H         1 UNK         0.0800 
    134 H134        4.1988  -18.5601  -49.0823 H         1 UNK         0.0800 
    135 H135        3.4036  -17.7411  -50.4147 H         1 UNK         0.0800 
    136 H136        1.4618  -18.9477  -51.6033 H         1 UNK         0.1150 
    137 H137        1.7469  -23.2159  -51.7405 H         1 UNK         0.1150 
    138 H138        4.2242  -20.9658  -49.0431 H         1 UNK         0.1150 
    139 H139        2.7484  -24.2309  -49.5509 H         1 UNK         0.0800 
    140 H140        4.0767  -24.1092  -50.6781 H         1 UNK         0.0800 
    141 H141        4.2920  -22.0466  -46.7352 H         1 UNK         0.0800 
    142 H142        2.7934  -22.5484  -47.4529 H         1 UNK         0.0800 
    143 H143        4.4419  -24.5624  -45.8632 H         1 UNK         0.0600 
    144 H144        3.1939  -22.2290  -44.6954 H         1 UNK         0.3000 
    145 H145        3.4434  -23.4362  -41.3363 H         1 UNK         0.0600 
    146 H146        4.5849  -21.2338  -41.1254 H         1 UNK         0.0600 
    147 H147        4.8600  -21.1909  -42.8656 H         1 UNK         0.0600 
    148 H148        5.6459  -22.4159  -41.8783 H         1 UNK         0.0600 
    149 H149        2.4047  -20.9994  -42.2954 H         1 UNK         0.3000 
    150 H150       -0.9987  -22.0585  -42.7458 H         1 UNK         0.0600 
    151 H151       -0.6256  -21.6150  -40.3339 H         1 UNK         0.0600 
    152 H152       -1.2300  -20.1777  -41.1402 H         1 UNK         0.0600 
    153 H153        0.4733  -20.2969  -40.7131 H         1 UNK         0.0600 
    154 H154        0.5815  -19.6213  -43.1030 H         1 UNK         0.3000 
    155 H155        0.9015  -19.9805  -46.6071 H         1 UNK         0.0600 
    156 H156       -1.4036  -19.0976  -46.4721 H         1 UNK         0.0600 
    157 H157       -0.2777  -17.7757  -46.6627 H         1 UNK         0.0600 
    158 H158       -0.9777  -18.0929  -45.0866 H         1 UNK         0.0600 
    159 H159        1.5216  -17.8006  -44.8961 H         1 UNK         0.3000 
    160 H160        4.7048  -18.9705  -43.7926 H         1 UNK         0.0600 
    161 H161        3.9497  -16.7757  -45.7887 H         1 UNK         0.0600 
    162 H162        5.0276  -18.1194  -46.1443 H         1 UNK         0.0600 
    163 H163        5.4762  -16.9371  -44.9248 H         1 UNK         0.0600 
    164 H164        3.5461  -16.4768  -43.3484 H         1 UNK         0.3000 
    165 H165        2.1114  -17.2687  -40.1819 H         1 UNK         0.0600 
    166 H166        3.1708  -15.0649  -40.0749 H         1 UNK         0.0600 
    167 H167        4.3831  -16.1752  -40.6779 H         1 UNK         0.0600 
    168 H168        3.5621  -15.0811  -41.7892 H         1 UNK         0.0600 
    169 H169        0.8255  -16.5058  -42.5851 H         1 UNK         0.3000 
    170 H170       -1.7096  -14.6103  -40.9850 H         1 UNK         0.0600 
    171 H171       -0.2458  -12.9446  -42.1507 H         1 UNK         0.0600 
    172 H172       -0.0442  -14.0606  -43.4970 H         1 UNK         0.0600 
    173 H173       -1.6337  -13.3953  -43.1295 H         1 UNK         0.0600 
    174 H174       -1.8107  -15.8492  -43.4761 H         1 UNK         0.3000 
    175 H175       -2.2647  -18.7633  -43.3062 H         1 UNK         0.0600 
    176 H176       -4.7760  -18.2675  -41.6367 H         1 UNK         0.0600 
    177 H177       -4.5691  -19.5623  -42.8155 H         1 UNK         0.0600 
    178 H178       -3.5777  -19.5253  -41.3691 H         1 UNK         0.0600 
    179 H179       -3.4173  -17.7813  -44.9252 H         1 UNK         0.3000 
    180 H180       -5.8141  -16.4326  -45.5898 H         1 UNK         0.0600 
    181 H181       -5.9193  -14.0055  -46.1540 H         1 UNK         0.0600 
    182 H182       -4.7415  -13.6553  -44.8905 H         1 UNK         0.0600 
    183 H183       -6.3277  -14.2916  -44.4728 H         1 UNK         0.0600 
    184 H184       -4.4158  -16.2427  -47.2965 H         1 UNK         0.3000 
    185 H185       -2.6213  -16.0000  -48.5286 H         1 UNK         0.0600 
    186 H186       -2.4457  -12.9790  -48.0398 H         1 UNK         0.0600 
    187 H187       -2.5467  -13.7737  -49.6084 H         1 UNK         0.0600 
    188 H188       -3.9078  -13.8303  -48.5057 H         1 UNK         0.0600 
    189 H189       -0.3610  -14.6947  -47.1702 H         1 UNK         0.3000 
    190 H190        1.4200  -24.1434  -44.5059 H         1 UNK         0.3000 
    191 H191       -0.5131  -25.1784  -44.4583 H         1 UNK         0.0600 
    192 H192       -0.6384  -27.5738  -44.9774 H         1 UNK         0.0600 
    193 H193        0.9102  -27.2283  -44.2262 H         1 UNK         0.0600 
    194 H194        0.8110  -27.4910  -45.9671 H         1 UNK         0.0600 
    195 H195       -0.1431  -23.2982  -46.5103 H         1 UNK         0.3000 
    196 H196       -1.7400  -24.2196  -48.8369 H         1 UNK         0.0600 
    197 H197       -0.2704  -21.5990  -48.2407 H         1 UNK         0.0600 
    198 H198       -1.1189  -21.9814  -49.7428 H         1 UNK         0.0600 
    199 H199        0.2994  -22.9014  -49.2734 H         1 UNK         0.0600 
    200 H200       -2.0771  -22.6480  -45.7965 H         1 UNK         0.3000 
    201 H201       -3.7525  -21.8636  -44.5948 H         1 UNK         0.0600 
    202 H202       -5.5765  -23.2198  -46.6613 H         1 UNK         0.0600 
    203 H203       -6.0978  -22.5949  -45.0989 H         1 UNK         0.0600 
    204 H204       -4.9556  -23.9236  -45.1762 H         1 UNK         0.0600 
    205 H205       -5.9815  -21.3064  -47.2184 H         1 UNK         0.3000 
    206 H206       -6.0016  -18.4595  -46.8313 H         1 UNK         0.0600 
    207 H207       -8.0200  -19.6845  -47.5479 H         1 UNK         0.0600 
    208 H208       -7.5821  -18.5050  -48.7730 H         1 UNK         0.0600 
    209 H209       -7.2186  -20.2097  -49.0275 H         1 UNK         0.0600 
    210 H210       -4.3192  -20.6126  -49.0612 H         1 UNK         0.3000 
    211 H211       -2.8964  -20.3631  -50.7498 H         1 UNK         0.0600 
    212 H212       -1.9154  -18.0720  -48.9712 H         1 UNK         0.0600 
    213 H213       -0.9598  -18.8546  -50.2334 H         1 UNK         0.0600 
    214 H214       -1.4855  -19.7518  -48.8232 H         1 UNK         0.0600 
    215 H215       -2.0722  -17.0800  -50.9407 H         1 UNK         0.3000 
    216 H216       -3.2128  -16.8173  -53.5260 H         1 UNK         0.0600 
    217 H217       -2.2082  -14.5730  -53.4862 H         1 UNK         0.0600 
    218 H218       -1.0802  -15.7349  -52.8059 H         1 UNK         0.0600 
    219 H219       -1.9857  -14.6555  -51.7464 H         1 UNK         0.0600 
    220 H220       -4.7131  -16.1878  -50.4387 H         1 UNK         0.3000 
    221 H221       -6.5432  -14.1268  -51.3239 H         1 UNK         0.0600 
    222 H222       -7.7284  -14.5915  -49.2312 H         1 UNK         0.0600 
    223 H223       -6.8532  -16.0906  -48.9924 H         1 UNK         0.0600 
    224 H224       -6.0094  -14.5458  -48.8949 H         1 UNK         0.0600 
    225 H225       -6.4829  -17.6507  -51.4952 H         1 UNK         0.3000 
    226 H226       -9.2398  -17.7709  -52.6536 H         1 UNK         0.0600 
    227 H227       -8.8261  -19.3014  -50.7646 H         1 UNK         0.0600 
    228 H228       -8.9620  -20.2339  -52.2416 H         1 UNK         0.0600 
    229 H229       -7.3737  -19.9365  -51.5442 H         1 UNK         0.0600 
    230 H230       -6.0669  -17.4169  -53.6156 H         1 UNK         0.3000 
    231 H231       -4.7783  -17.7796  -55.3718 H         1 UNK         0.0600 
    232 H232       -5.7132  -17.9882  -57.6317 H         1 UNK         0.0600 
    233 H233       -6.6642  -16.8215  -56.7260 H         1 UNK         0.0600 
    234 H234       -7.2867  -18.4489  -56.9993 H         1 UNK         0.0600 
    235 H235       -5.1577  -19.8226  -53.4768 H         1 UNK         0.3000 
    236 H236       -5.3186  -22.4361  -54.8028 H         1 UNK         0.0600 
    237 H237       -4.8797  -21.6122  -51.8804 H         1 UNK         0.0600 
    238 H238       -6.4174  -22.0663  -52.6116 H         1 UNK         0.0600 
    239 H239       -5.1368  -23.2573  -52.4518 H         1 UNK         0.0600 
    240 H240       -3.3809  -21.3751  -56.1164 H         1 UNK         0.3000 
    241 H241       -0.9201  -22.6609  -55.1658 H         1 UNK         0.0600 
    242 H242       -1.8772  -23.0641  -58.9139 H         1 UNK         0.3800 
    243 H243       -2.9917  -22.8967  -57.5847 H         1 UNK         0.3800 
    244 H244       -1.2149  -19.9024  -54.7063 H         1 UNK         0.0800 
    245 H245       -0.4099  -19.8940  -56.2367 H         1 UNK         0.0800 
    246 H246       -0.1261  -22.0808  -52.7814 H         1 UNK         0.0800 
    247 H247       -0.3668  -20.3652  -52.5492 H         1 UNK         0.0800 
@<TRIPOS>BOND
     1    1    2 1    
     2    1  127 1    
     3    1  128 1    
     4    1  129 1    
     5    2    3 2    
     6    2    4 am   BACKBONE|DICT|INTERRES
     7    4    5 1    
     8    4  130 1    
     9    5    6 1    
    10    5   65 1    
    11    5  131 1    
    12    6    7 1    
    13    6  132 1    
    14    6  133 1    
    15    7    8 1    
    16    8    9 1    
    17    8  134 1    
    18    8  135 1    
    19    9   10 ar   
    20    9   14 ar   
    21   10   11 ar   
    22   10  136 1    
    23   11   12 ar   
    24   11  126 1    
    25   12   13 ar   
    26   12  137 1    
    27   13   14 ar   
    28   13   15 1    
    29   14  138 1    
    30   15   16 1    
    31   15  139 1    
    32   15  140 1    
    33   16   17 1    
    34   17   18 1    
    35   17  141 1    
    36   17  142 1    
    37   18   19 1    
    38   18   67 1    
    39   18  143 1    
    40   19   20 am   BACKBONE|DICT|INTERRES
    41   19  144 1    
    42   20   21 2    
    43   20   22 1    
    44   22   23 1    
    45   22   24 1    
    46   22  145 1    
    47   23  146 1    
    48   23  147 1    
    49   23  148 1    
    50   24   25 am   BACKBONE|DICT|INTERRES
    51   24  149 1    
    52   25   26 2    
    53   25   27 1    
    54   27   28 1    
    55   27   29 1    
    56   27  150 1    
    57   28  151 1    
    58   28  152 1    
    59   28  153 1    
    60   29   30 am   BACKBONE|DICT|INTERRES
    61   29  154 1    
    62   30   31 2    
    63   30   32 1    
    64   32   33 1    
    65   32   34 1    
    66   32  155 1    
    67   33  156 1    
    68   33  157 1    
    69   33  158 1    
    70   34   35 am   BACKBONE|DICT|INTERRES
    71   34  159 1    
    72   35   36 2    
    73   35   37 1    
    74   37   38 1    
    75   37   39 1    
    76   37  160 1    
    77   38  161 1    
    78   38  162 1    
    79   38  163 1    
    80   39   40 am   BACKBONE|DICT|INTERRES
    81   39  164 1    
    82   40   41 2    
    83   40   42 1    
    84   42   43 1    
    85   42   44 1    
    86   42  165 1    
    87   43  166 1    
    88   43  167 1    
    89   43  168 1    
    90   44   45 am   BACKBONE|DICT|INTERRES
    91   44  169 1    
    92   45   46 2    
    93   45   47 1    
    94   47   48 1    
    95   47   49 1    
    96   47  170 1    
    97   48  171 1    
    98   48  172 1    
    99   48  173 1    
   100   49   50 am   BACKBONE|DICT|INTERRES
   101   49  174 1    
   102   50   51 2    
   103   50   52 1    
   104   52   53 1    
   105   52   54 1    
   106   52  175 1    
   107   53  176 1    
   108   53  177 1    
   109   53  178 1    
   110   54   55 am   BACKBONE|DICT|INTERRES
   111   54  179 1    
   112   55   56 2    
   113   55   57 1    
   114   57   58 1    
   115   57   59 1    
   116   57  180 1    
   117   58  181 1    
   118   58  182 1    
   119   58  183 1    
   120   59   60 am   BACKBONE|DICT|INTERRES
   121   59  184 1    
   122   60   61 2    
   123   60   62 1    
   124   62   63 1    
   125   62   64 1    
   126   62  185 1    
   127   63  186 1    
   128   63  187 1    
   129   63  188 1    
   130   64   65 am   BACKBONE|DICT|INTERRES
   131   64  189 1    
   132   65   66 2    
   133   67   68 2    
   134   67   69 am   BACKBONE|DICT|INTERRES
   135   69   70 1    
   136   69  190 1    
   137   70   71 1    
   138   70   72 1    
   139   70  191 1    
   140   71  192 1    
   141   71  193 1    
   142   71  194 1    
   143   72   73 2    
   144   72   74 am   BACKBONE|DICT|INTERRES
   145   74   75 1    
   146   74  195 1    
   147   75   76 1    
   148   75   77 1    
   149   75  196 1    
   150   76  197 1    
   151   76  198 1    
   152   76  199 1    
   153   77   78 2    
   154   77   79 am   BACKBONE|DICT|INTERRES
   155   79   80 1    
   156   79  200 1    
   157   80   81 1    
   158   80   82 1    
   159   80  201 1    
   160   81  202 1    
   161   81  203 1    
   162   81  204 1    
   163   82   83 2    
   164   82   84 am   BACKBONE|DICT|INTERRES
   165   84   85 1    
   166   84  205 1    
   167   85   86 1    
   168   85   87 1    
   169   85  206 1    
   170   86  207 1    
   171   86  208 1    
   172   86  209 1    
   173   87   88 2    
   174   87   89 am   BACKBONE|DICT|INTERRES
   175   89   90 1    
   176   89  210 1    
   177   90   91 1    
   178   90   92 1    
   179   90  211 1    
   180   91  212 1    
   181   91  213 1    
   182   91  214 1    
   183   92   93 2    
   184   92   94 am   BACKBONE|DICT|INTERRES
   185   94   95 1    
   186   94  215 1    
   187   95   96 1    
   188   95   97 1    
   189   95  216 1    
   190   96  217 1    
   191   96  218 1    
   192   96  219 1    
   193   97   98 2    
   194   97   99 am   BACKBONE|DICT|INTERRES
   195   99  100 1    
   196   99  220 1    
   197  100  101 1    
   198  100  102 1    
   199  100  221 1    
   200  101  222 1    
   201  101  223 1    
   202  101  224 1    
   203  102  103 2    
   204  102  104 am   BACKBONE|DICT|INTERRES
   205  104  105 1    
   206  104  225 1    
   207  105  106 1    
   208  105  107 1    
   209  105  226 1    
   210  106  227 1    
   211  106  228 1    
   212  106  229 1    
   213  107  108 2    
   214  107  109 am   BACKBONE|DICT|INTERRES
   215  109  110 1    
   216  109  230 1    
   217  110  111 1    
   218  110  112 1    
   219  110  231 1    
   220  111  232 1    
   221  111  233 1    
   222  111  234 1    
   223  112  113 2    
   224  112  114 am   BACKBONE|DICT|INTERRES
   225  114  115 1    
   226  114  235 1    
   227  115  116 1    
   228  115  117 1    
   229  115  236 1    
   230  116  237 1    
   231  116  238 1    
   232  116  239 1    
   233  117  118 2    
   234  117  119 am   BACKBONE|DICT|INTERRES
   235  119  120 1    
   236  119  240 1    
   237  120  121 1    
   238  120  124 1    
   239  120  241 1    
   240  121  122 am   BACKBONE|DICT|INTERRES
   241  121  123 2    
   242  122  242 1    
   243  122  243 1    
   244  124  125 1    
   245  124  244 1    
   246  124  245 1    
   247  125  126 1    
   248  126  246 1    
   249  126  247 1    
@<TRIPOS>SUBSTRUCTURE
     1 UNK         1 GROUP             0       ****    0 ROOT    
