@<TRIPOS>MOLECULE
3R540
247   249    1
SMALL
USER_CHARGES


@<TRIPOS>ATOM
      1 CA         -1.7197  -10.8068  -50.0225 C.3       0 UNK        -0.1800 
      2 C          -0.6395  -11.5065  -49.2116 C.2       0 UNK         0.5000 
      3 O           0.1027  -10.8505  -48.4810 O.2       0 UNK        -0.5000 
      4 N          -0.5602  -12.8379  -49.3189 N.am      1 UNK        -0.5000 
      5 CA          0.3615  -13.6898  -48.5598 C.3       1 UNK         0.1400 
      6 C6          0.3601  -15.1559  -49.0559 C.3       23 UNK        -0.0398 
      7 S7          0.8683  -15.3103  -50.7995 S.3       23 UNK        -0.2404 
      8 C8          1.6139  -16.9810  -50.8107 C.3       23 UNK        -0.0205 
      9 C9          0.6441  -18.1589  -50.6706 C.ar      23 UNK        -0.0193 
     10 C10        -0.7439  -18.0248  -50.8160 C.ar      23 UNK        -0.1150 
     11 C11        -1.5825  -19.1381  -50.7236 C.ar      23 UNK        -0.0193 
     12 C12        -1.0313  -20.3971  -50.4769 C.ar      23 UNK        -0.1150 
     13 C13         0.3509  -20.5579  -50.3517 C.ar      23 UNK        -0.0193 
     14 C14         1.1783  -19.4334  -50.4452 C.ar      23 UNK        -0.1150 
     15 C15         0.9390  -21.9581  -50.1965 C.3       23 UNK        -0.0205 
     16 S16         2.1130  -22.1351  -48.8120 S.3       23 UNK        -0.2404 
     17 C17         1.0699  -21.7606  -47.3666 C.3       23 UNK        -0.0398 
     18 CA          0.5230  -23.0195  -46.6450 C.3       11 UNK         0.1400 
     19 N           0.2956  -22.7578  -45.2189 N.am      11 UNK        -0.5000 
     20 C          -0.1226  -23.6499  -44.3098 C.2       10 UNK         0.5000 
     21 O          -0.3101  -24.8381  -44.5539 O.2       10 UNK        -0.5000 
     22 CA         -0.4535  -23.1132  -42.9063 C.3       10 UNK         0.1400 
     23 CB          0.8069  -23.0048  -42.0348 C.3       10 UNK        -0.1800 
     24 N          -1.1357  -21.8211  -42.9706 N.am      10 UNK        -0.5000 
     25 C          -2.3795  -21.6523  -43.4432 C.2       9 UNK         0.5000 
     26 O          -3.1064  -22.5800  -43.7989 O.2       9 UNK        -0.5000 
     27 CA         -2.8678  -20.2006  -43.5947 C.3       9 UNK         0.1400 
     28 CB         -3.4367  -19.6740  -42.2693 C.3       9 UNK        -0.1800 
     29 N          -1.8030  -19.3114  -44.0631 N.am      9 UNK        -0.5000 
     30 C          -1.2813  -19.3611  -45.2989 C.2       8 UNK         0.5000 
     31 O          -1.6817  -20.1287  -46.1725 O.2       8 UNK        -0.5000 
     32 CA         -0.0800  -18.4423  -45.5981 C.3       8 UNK         0.1400 
     33 CB         -0.5703  -17.0893  -46.1169 C.3       8 UNK        -0.1800 
     34 N           0.7847  -18.2213  -44.4382 N.am      8 UNK        -0.5000 
     35 C           1.4339  -19.1909  -43.7781 C.2       7 UNK         0.5000 
     36 O           1.4442  -20.3629  -44.1504 O.2       7 UNK        -0.5000 
     37 CA          2.1461  -18.8182  -42.4616 C.3       7 UNK         0.1400 
     38 CB          3.6638  -18.7377  -42.6819 C.3       7 UNK        -0.1800 
     39 N           1.6913  -17.5646  -41.8556 N.am      7 UNK        -0.5000 
     40 C           0.4376  -17.2585  -41.4891 C.2       6 UNK         0.5000 
     41 O          -0.5088  -18.0413  -41.5806 O.2       6 UNK        -0.5000 
     42 CA          0.1910  -15.8205  -40.9850 C.3       6 UNK         0.1400 
     43 CB          0.0212  -15.8097  -39.4585 C.3       6 UNK        -0.1800 
     44 N           1.2457  -14.8673  -41.3558 N.am      6 UNK        -0.5000 
     45 C           1.5485  -14.5059  -42.6103 C.2       5 UNK         0.5000 
     46 O           0.9779  -14.9569  -43.6039 O.2       5 UNK        -0.5000 
     47 CA          2.7444  -13.5605  -42.7756 C.3       5 UNK         0.1400 
     48 CB          4.0333  -14.3716  -43.0087 C.3       5 UNK        -0.1800 
     49 N           2.5196  -12.6421  -43.8890 N.am      5 UNK        -0.5000 
     50 C           3.1532  -11.4710  -44.0415 C.2       4 UNK         0.5000 
     51 O           4.0074  -11.0514  -43.2589 O.2       4 UNK        -0.5000 
     52 CA          2.7605  -10.6054  -45.2516 C.3       4 UNK         0.1400 
     53 CB          3.4156  -11.1199  -46.5435 C.3       4 UNK        -0.1800 
     54 N           1.3114  -10.5321  -45.4225 N.am      4 UNK        -0.5000 
     55 C           0.4990   -9.7684  -44.6775 C.2       3 UNK         0.5000 
     56 O           0.8971   -9.0027  -43.7988 O.2       3 UNK        -0.5000 
     57 CA         -1.0133   -9.8785  -44.9495 C.3       3 UNK         0.1400 
     58 CB         -1.4643   -8.8255  -45.9734 C.3       3 UNK        -0.1800 
     59 N          -1.3917  -11.2090  -45.4223 N.am      3 UNK        -0.5000 
     60 C          -1.4910  -12.2874  -44.6327 C.2       2 UNK         0.5000 
     61 O          -1.3726  -12.2504  -43.4076 O.2       2 UNK        -0.5000 
     62 CA         -1.7488  -13.6361  -45.3289 C.3       2 UNK         0.1400 
     63 CB         -3.2471  -13.9716  -45.3289 C.3       2 UNK        -0.1800 
     64 N          -1.2436  -13.6937  -46.7027 N.am      2 UNK        -0.5000 
     65 C           0.0500  -13.6357  -47.0520 C.2       1 UNK         0.5000 
     66 O           0.9706  -13.4998  -46.2488 O.2       1 UNK        -0.5000 
     67 C          -0.7479  -23.5580  -47.3383 C.2       11 UNK         0.5000 
     68 O          -0.6886  -24.5770  -48.0323 O.2       11 UNK        -0.5000 
     69 N          -1.8801  -22.8799  -47.0988 N.am      12 UNK        -0.5000 
     70 CA         -3.2080  -23.2545  -47.5808 C.3       12 UNK         0.1400 
     71 CB         -4.2126  -22.1492  -47.2273 C.3       12 UNK        -0.1800 
     72 C          -3.6825  -24.6144  -47.0406 C.2       12 UNK         0.5000 
     73 O          -4.2152  -25.4177  -47.8059 O.2       12 UNK        -0.5000 
     74 N          -3.4642  -24.8542  -45.7405 N.am      13 UNK        -0.5000 
     75 CA         -3.7919  -26.1120  -45.0696 C.3       13 UNK         0.1400 
     76 CB         -3.6777  -25.9246  -43.5492 C.3       13 UNK        -0.1800 
     77 C          -2.9174  -27.2892  -45.5406 C.2       13 UNK         0.5000 
     78 O          -3.4305  -28.3975  -45.6998 O.2       13 UNK        -0.5000 
     79 N          -1.6190  -27.0309  -45.7479 N.am      14 UNK        -0.5000 
     80 CA         -0.6270  -28.0187  -46.1653 C.3       14 UNK         0.1400 
     81 CB          0.7872  -27.4414  -45.9967 C.3       14 UNK        -0.1800 
     82 C          -0.8315  -28.5172  -47.6038 C.2       14 UNK         0.5000 
     83 O          -0.7212  -29.7226  -47.8357 O.2       14 UNK        -0.5000 
     84 N          -1.1134  -27.6004  -48.5406 N.am      15 UNK        -0.5000 
     85 CA         -1.2653  -27.9372  -49.9573 C.3       15 UNK         0.1400 
     86 CB          0.1143  -28.1892  -50.5992 C.3       15 UNK        -0.1800 
     87 C          -2.0245  -26.8828  -50.7715 C.2       15 UNK         0.5000 
     88 O          -2.7298  -27.2612  -51.7075 O.2       15 UNK        -0.5000 
     89 N          -1.8157  -25.5911  -50.4743 N.am      16 UNK        -0.5000 
     90 CA         -2.2508  -24.4037  -51.2313 C.3       16 UNK         0.1400 
     91 CB         -3.7838  -24.3337  -51.3735 C.3       16 UNK        -0.1800 
     92 C          -1.5608  -24.2327  -52.6028 C.2       16 UNK         0.5000 
     93 O          -1.1857  -23.1135  -52.9515 O.2       16 UNK        -0.5000 
     94 N          -1.3789  -25.3401  -53.3345 N.am      17 UNK        -0.5000 
     95 CA         -0.8070  -25.4494  -54.6761 C.3       17 UNK         0.1400 
     96 CB          0.6842  -25.0398  -54.6765 C.3       17 UNK        -0.1800 
     97 C          -1.6810  -24.7133  -55.7127 C.2       17 UNK         0.5000 
     98 O          -2.8999  -24.8978  -55.7107 O.2       17 UNK        -0.5000 
     99 N          -1.0590  -23.9155  -56.5891 N.am      18 UNK        -0.5000 
    100 CA        -1.7386  -23.1238  -57.6164 C.3       18 UNK         0.1400 
    101 CB        -0.7202  -22.7575  -58.7078 C.3       18 UNK        -0.1800 
    102 C         -2.4145  -21.8530  -57.0624 C.2       18 UNK         0.5000 
    103 O         -3.2659  -21.2804  -57.7447 O.2       18 UNK        -0.5000 
    104 N         -2.0148  -21.4172  -55.8609 N.am      19 UNK        -0.5000 
    105 CA        -2.5486  -20.2362  -55.1898 C.3       19 UNK         0.1400 
    106 CB        -1.4923  -19.7101  -54.2065 C.3       19 UNK        -0.1800 
    107 C         -3.8714  -20.5448  -54.4652 C.2       19 UNK         0.5000 
    108 O         -4.1086  -21.6798  -54.0470 O.2       19 UNK        -0.5000 
    109 N         -4.6935  -19.5067  -54.3001 N.am      20 UNK        -0.5000 
    110 CA        -5.9631  -19.5092  -53.5817 C.3       20 UNK         0.1400 
    111 CB        -7.0683  -20.1289  -54.4564 C.3       20 UNK        -0.1800 
    112 C         -6.2923  -18.0550  -53.2140 C.2       20 UNK         0.5000 
    113 O         -5.7273  -17.1403  -53.8215 O.2       20 UNK        -0.5000 
    114 N         -7.1919  -17.8714  -52.2346 N.am      21 UNK        -0.5000 
    115 CA        -7.6151  -16.5831  -51.6625 C.3       21 UNK         0.1400 
    116 CB        -8.4424  -15.7751  -52.6845 C.3       21 UNK        -0.1800 
    117 C         -6.4124  -15.7993  -51.0959 C.2       21 UNK         0.5000 
    118 O         -6.1156  -14.6897  -51.5418 O.2       21 UNK        -0.5000 
    119 N         -5.7037  -16.4525  -50.1670 N.am      22 UNK        -0.5000 
    120 CA        -4.3609  -16.0862  -49.6867 C.3       22 UNK         0.1400 
    121 C         -4.2376  -14.7281  -48.9380 C.2       22 UNK         0.5000 
    122 N         -5.3222  -14.1025  -48.5012 N.am      22 UNK        -0.7600 
    123 O         -3.1294  -14.2376  -48.7478 O.2       22 UNK        -0.5000 
    124 C124       -3.7089  -17.2204  -48.8460 C.3       23 UNK        -0.0398 
    125 S125       -4.0399  -18.9186  -49.4371 S.3       23 UNK        -0.2404 
    126 C126       -3.0760  -19.0000  -50.9731 C.3       23 UNK        -0.0205 
    127 H127       -2.3607  -10.2202  -49.3644 H         1 UNK         0.0600 
    128 H128       -2.3466  -11.5193  -50.5597 H         1 UNK         0.0600 
    129 H129       -1.2661  -10.1330  -50.7493 H         1 UNK         0.0600 
    130 H130       -1.2356  -13.3291  -49.8885 H         1 UNK         0.3000 
    131 H131        1.3681  -13.2883  -48.6960 H         1 UNK         0.0600 
    132 H132       -0.6298  -15.6005  -48.9466 H         1 UNK         0.0800 
    133 H133        1.0392  -15.7564  -48.4485 H         1 UNK         0.0800 
    134 H134        2.3683  -17.0343  -50.0244 H         1 UNK         0.0800 
    135 H135        2.1492  -17.0998  -51.7535 H         1 UNK         0.0800 
    136 H136       -1.1833  -17.0626  -51.0315 H         1 UNK         0.1150 
    137 H137       -1.6828  -21.2569  -50.4271 H         1 UNK         0.1150 
    138 H138        2.2493  -19.5566  -50.3646 H         1 UNK         0.1150 
    139 H139        0.1499  -22.6990  -50.0757 H         1 UNK         0.0800 
    140 H140        1.4526  -22.2170  -51.1232 H         1 UNK         0.0800 
    141 H141        0.2731  -21.0705  -47.6456 H         1 UNK         0.0800 
    142 H142        1.7116  -21.1989  -46.6870 H         1 UNK         0.0800 
    143 H143        1.2798  -23.8053  -46.6919 H         1 UNK         0.0600 
    144 H144        0.4934  -21.8146  -44.8964 H         1 UNK         0.3000 
    145 H145       -1.1284  -23.8263  -42.4282 H         1 UNK         0.0600 
    146 H146        0.5645  -22.6486  -41.0335 H         1 UNK         0.0600 
    147 H147        1.5460  -22.3280  -42.4619 H         1 UNK         0.0600 
    148 H148        1.2847  -23.9791  -41.9256 H         1 UNK         0.0600 
    149 H149       -0.5924  -21.0041  -42.7346 H         1 UNK         0.3000 
    150 H150       -3.6700  -20.1927  -44.3358 H         1 UNK         0.0600 
    151 H151       -4.2700  -20.2914  -41.9317 H         1 UNK         0.0600 
    152 H152       -3.8087  -18.6550  -42.3766 H         1 UNK         0.0600 
    153 H153       -2.6865  -19.6755  -41.4778 H         1 UNK         0.0600 
    154 H154       -1.3944  -18.6890  -43.3746 H         1 UNK         0.3000 
    155 H155        0.5225  -18.9109  -46.3782 H         1 UNK         0.0600 
    156 H156       -1.0826  -17.2031  -47.0711 H         1 UNK         0.0600 
    157 H157        0.2647  -16.4066  -46.2655 H         1 UNK         0.0600 
    158 H158       -1.2666  -16.6234  -45.4199 H         1 UNK         0.0600 
    159 H159        0.8326  -17.2753  -44.0807 H         1 UNK         0.3000 
    160 H160        1.9427  -19.6198  -41.7490 H         1 UNK         0.0600 
    161 H161        3.9280  -17.9288  -43.3645 H         1 UNK         0.0600 
    162 H162        4.0477  -19.6659  -43.1079 H         1 UNK         0.0600 
    163 H163        4.1916  -18.5715  -41.7427 H         1 UNK         0.0600 
    164 H164        2.3918  -16.8477  -41.7435 H         1 UNK         0.3000 
    165 H165       -0.7422  -15.4771  -41.4366 H         1 UNK         0.0600 
    166 H166       -0.2403  -14.8150  -39.0972 H         1 UNK         0.0600 
    167 H167       -0.7772  -16.4857  -39.1489 H         1 UNK         0.0600 
    168 H168        0.9333  -16.1244  -38.9499 H         1 UNK         0.0600 
    169 H169        1.7745  -14.4710  -40.5919 H         1 UNK         0.3000 
    170 H170        2.8473  -12.9793  -41.8567 H         1 UNK         0.0600 
    171 H171        3.9805  -14.9463  -43.9344 H         1 UNK         0.0600 
    172 H172        4.9080  -13.7239  -43.0674 H         1 UNK         0.0600 
    173 H173        4.2091  -15.0750  -42.1940 H         1 UNK         0.0600 
    174 H174        1.8388  -12.9498  -44.5817 H         1 UNK         0.3000 
    175 H175        3.1360   -9.5951  -45.0749 H         1 UNK         0.0600 
    176 H176        3.1245  -12.1446  -46.7718 H         1 UNK         0.0600 
    177 H177        3.1450  -10.4981  -47.3972 H         1 UNK         0.0600 
    178 H178        4.5027  -11.1026  -46.4590 H         1 UNK         0.0600 
    179 H179        0.9066  -11.1448  -46.1178 H         1 UNK         0.3000 
    180 H180       -1.5358   -9.6796  -44.0113 H         1 UNK         0.0600 
    181 H181       -2.5396   -8.8764  -46.1451 H         1 UNK         0.0600 
    182 H182       -0.9643   -8.9525  -46.9336 H         1 UNK         0.0600 
    183 H183       -1.2392   -7.8187  -45.6194 H         1 UNK         0.0600 
    184 H184       -1.4841  -11.3311  -46.4203 H         1 UNK         0.3000 
    185 H185       -1.2341  -14.4007  -44.7483 H         1 UNK         0.0600 
    186 H186       -3.8196  -13.2472  -45.9090 H         1 UNK         0.0600 
    187 H187       -3.4298  -14.9597  -45.7518 H         1 UNK         0.0600 
    188 H188       -3.6480  -13.9730  -44.3146 H         1 UNK         0.0600 
    189 H189       -1.9388  -13.8008  -47.4401 H         1 UNK         0.3000 
    190 H190       -1.8271  -22.0181  -46.5623 H         1 UNK         0.3000 
    191 H191       -3.1553  -23.3219  -48.6661 H         1 UNK         0.0600 
    192 H192       -4.3360  -22.0418  -46.1498 H         1 UNK         0.0600 
    193 H193       -5.1940  -22.3625  -47.6524 H         1 UNK         0.0600 
    194 H194       -3.8887  -21.1865  -47.6195 H         1 UNK         0.0600 
    195 H195       -3.0673  -24.1189  -45.1651 H         1 UNK         0.3000 
    196 H196       -4.8306  -26.3563  -45.3022 H         1 UNK         0.0600 
    197 H197       -4.3453  -25.1377  -43.1977 H         1 UNK         0.0600 
    198 H198       -2.6630  -25.6595  -43.2512 H         1 UNK         0.0600 
    199 H199       -3.9468  -26.8402  -43.0213 H         1 UNK         0.0600 
    200 H200       -1.2616  -26.1065  -45.5187 H         1 UNK         0.3000 
    201 H201       -0.7166  -28.8813  -45.5017 H         1 UNK         0.0600 
    202 H202        0.9937  -27.2058  -44.9527 H         1 UNK         0.0600 
    203 H203        0.9219  -26.5293  -46.5795 H         1 UNK         0.0600 
    204 H204        1.5445  -28.1555  -46.3225 H         1 UNK         0.0600 
    205 H205       -1.2070  -26.6277  -48.2705 H         1 UNK         0.3000 
    206 H206       -1.8517  -28.8561  -50.0303 H         1 UNK         0.0600 
    207 H207        0.7678  -27.3225  -50.4933 H         1 UNK         0.0600 
    208 H208        0.6179  -29.0442  -50.1486 H         1 UNK         0.0600 
    209 H209        0.0200  -28.4006  -51.6654 H         1 UNK         0.0600 
    210 H210       -1.2132  -25.3731  -49.6858 H         1 UNK         0.3000 
    211 H211       -1.9450  -23.5526  -50.6257 H         1 UNK         0.0600 
    212 H212       -4.1644  -25.0824  -52.0685 H         1 UNK         0.0600 
    213 H213       -4.0890  -23.3584  -51.7546 H         1 UNK         0.0600 
    214 H214       -4.2846  -24.4822  -50.4178 H         1 UNK         0.0600 
    215 H215       -1.7954  -26.1898  -52.9650 H         1 UNK         0.3000 
    216 H216       -0.8554  -26.5068  -54.9391 H         1 UNK         0.0600 
    217 H217        1.1559  -25.2659  -55.6334 H         1 UNK         0.0600 
    218 H218        1.2367  -25.5892  -53.9141 H         1 UNK         0.0600 
    219 H219        0.8222  -23.9763  -54.4787 H         1 UNK         0.0600 
    220 H220       -0.0557  -23.8174  -56.5303 H         1 UNK         0.3000 
    221 H221       -2.5187  -23.7369  -58.0731 H         1 UNK         0.0600 
    222 H222        0.0909  -22.1448  -58.3123 H         1 UNK         0.0600 
    223 H223       -0.2814  -23.6501  -59.1542 H         1 UNK         0.0600 
    224 H224       -1.1946  -22.1939  -59.5124 H         1 UNK         0.0600 
    225 H225       -1.3817  -21.9904  -55.3210 H         1 UNK         0.3000 
    226 H226       -2.7333  -19.4602  -55.9360 H         1 UNK         0.0600 
    227 H227       -0.5555  -19.4830  -54.7153 H         1 UNK         0.0600 
    228 H228       -1.8278  -18.7911  -53.7252 H         1 UNK         0.0600 
    229 H229       -1.2775  -20.4353  -53.4213 H         1 UNK         0.0600 
    230 H230       -4.4279  -18.5860  -54.6302 H         1 UNK         0.3000 
    231 H231       -5.8528  -20.0840  -52.6597 H         1 UNK         0.0600 
    232 H232       -8.0284  -20.1239  -53.9394 H         1 UNK         0.0600 
    233 H233       -6.8425  -21.1656  -54.7065 H         1 UNK         0.0600 
    234 H234       -7.1943  -19.5797  -55.3902 H         1 UNK         0.0600 
    235 H235       -7.5986  -18.6892  -51.8020 H         1 UNK         0.3000 
    236 H236       -8.2677  -16.8099  -50.8180 H         1 UNK         0.0600 
    237 H237       -7.8515  -15.4883  -53.5548 H         1 UNK         0.0600 
    238 H238       -9.2998  -16.3482  -53.0371 H         1 UNK         0.0600 
    239 H239       -8.8267  -14.8586  -52.2353 H         1 UNK         0.0600 
    240 H240       -6.0229  -17.3644  -49.8737 H         1 UNK         0.3000 
    241 H241       -3.7531  -15.9674  -50.5854 H         1 UNK         0.0600 
    242 H242       -5.2296  -13.2181  -48.0298 H         1 UNK         0.3800 
    243 H243       -6.2368  -14.4883  -48.6703 H         1 UNK         0.3800 
    244 H244       -4.0656  -17.1773  -47.8152 H         1 UNK         0.0800 
    245 H245       -2.6303  -17.0754  -48.7940 H         1 UNK         0.0800 
    246 H246       -3.2891  -18.1297  -51.5950 H         1 UNK         0.0800 
    247 H247       -3.4198  -19.8646  -51.5420 H         1 UNK         0.0800 
@<TRIPOS>BOND
     1    1    2 1    
     2    1  127 1    
     3    1  128 1    
     4    1  129 1    
     5    2    3 2    
     6    2    4 am   BACKBONE|DICT|INTERRES
     7    4    5 1    
     8    4  130 1    
     9    5    6 1    
    10    5   65 1    
    11    5  131 1    
    12    6    7 1    
    13    6  132 1    
    14    6  133 1    
    15    7    8 1    
    16    8    9 1    
    17    8  134 1    
    18    8  135 1    
    19    9   10 ar   
    20    9   14 ar   
    21   10   11 ar   
    22   10  136 1    
    23   11   12 ar   
    24   11  126 1    
    25   12   13 ar   
    26   12  137 1    
    27   13   14 ar   
    28   13   15 1    
    29   14  138 1    
    30   15   16 1    
    31   15  139 1    
    32   15  140 1    
    33   16   17 1    
    34   17   18 1    
    35   17  141 1    
    36   17  142 1    
    37   18   19 1    
    38   18   67 1    
    39   18  143 1    
    40   19   20 am   BACKBONE|DICT|INTERRES
    41   19  144 1    
    42   20   21 2    
    43   20   22 1    
    44   22   23 1    
    45   22   24 1    
    46   22  145 1    
    47   23  146 1    
    48   23  147 1    
    49   23  148 1    
    50   24   25 am   BACKBONE|DICT|INTERRES
    51   24  149 1    
    52   25   26 2    
    53   25   27 1    
    54   27   28 1    
    55   27   29 1    
    56   27  150 1    
    57   28  151 1    
    58   28  152 1    
    59   28  153 1    
    60   29   30 am   BACKBONE|DICT|INTERRES
    61   29  154 1    
    62   30   31 2    
    63   30   32 1    
    64   32   33 1    
    65   32   34 1    
    66   32  155 1    
    67   33  156 1    
    68   33  157 1    
    69   33  158 1    
    70   34   35 am   BACKBONE|DICT|INTERRES
    71   34  159 1    
    72   35   36 2    
    73   35   37 1    
    74   37   38 1    
    75   37   39 1    
    76   37  160 1    
    77   38  161 1    
    78   38  162 1    
    79   38  163 1    
    80   39   40 am   BACKBONE|DICT|INTERRES
    81   39  164 1    
    82   40   41 2    
    83   40   42 1    
    84   42   43 1    
    85   42   44 1    
    86   42  165 1    
    87   43  166 1    
    88   43  167 1    
    89   43  168 1    
    90   44   45 am   BACKBONE|DICT|INTERRES
    91   44  169 1    
    92   45   46 2    
    93   45   47 1    
    94   47   48 1    
    95   47   49 1    
    96   47  170 1    
    97   48  171 1    
    98   48  172 1    
    99   48  173 1    
   100   49   50 am   BACKBONE|DICT|INTERRES
   101   49  174 1    
   102   50   51 2    
   103   50   52 1    
   104   52   53 1    
   105   52   54 1    
   106   52  175 1    
   107   53  176 1    
   108   53  177 1    
   109   53  178 1    
   110   54   55 am   BACKBONE|DICT|INTERRES
   111   54  179 1    
   112   55   56 2    
   113   55   57 1    
   114   57   58 1    
   115   57   59 1    
   116   57  180 1    
   117   58  181 1    
   118   58  182 1    
   119   58  183 1    
   120   59   60 am   BACKBONE|DICT|INTERRES
   121   59  184 1    
   122   60   61 2    
   123   60   62 1    
   124   62   63 1    
   125   62   64 1    
   126   62  185 1    
   127   63  186 1    
   128   63  187 1    
   129   63  188 1    
   130   64   65 am   BACKBONE|DICT|INTERRES
   131   64  189 1    
   132   65   66 2    
   133   67   68 2    
   134   67   69 am   BACKBONE|DICT|INTERRES
   135   69   70 1    
   136   69  190 1    
   137   70   71 1    
   138   70   72 1    
   139   70  191 1    
   140   71  192 1    
   141   71  193 1    
   142   71  194 1    
   143   72   73 2    
   144   72   74 am   BACKBONE|DICT|INTERRES
   145   74   75 1    
   146   74  195 1    
   147   75   76 1    
   148   75   77 1    
   149   75  196 1    
   150   76  197 1    
   151   76  198 1    
   152   76  199 1    
   153   77   78 2    
   154   77   79 am   BACKBONE|DICT|INTERRES
   155   79   80 1    
   156   79  200 1    
   157   80   81 1    
   158   80   82 1    
   159   80  201 1    
   160   81  202 1    
   161   81  203 1    
   162   81  204 1    
   163   82   83 2    
   164   82   84 am   BACKBONE|DICT|INTERRES
   165   84   85 1    
   166   84  205 1    
   167   85   86 1    
   168   85   87 1    
   169   85  206 1    
   170   86  207 1    
   171   86  208 1    
   172   86  209 1    
   173   87   88 2    
   174   87   89 am   BACKBONE|DICT|INTERRES
   175   89   90 1    
   176   89  210 1    
   177   90   91 1    
   178   90   92 1    
   179   90  211 1    
   180   91  212 1    
   181   91  213 1    
   182   91  214 1    
   183   92   93 2    
   184   92   94 am   BACKBONE|DICT|INTERRES
   185   94   95 1    
   186   94  215 1    
   187   95   96 1    
   188   95   97 1    
   189   95  216 1    
   190   96  217 1    
   191   96  218 1    
   192   96  219 1    
   193   97   98 2    
   194   97   99 am   BACKBONE|DICT|INTERRES
   195   99  100 1    
   196   99  220 1    
   197  100  101 1    
   198  100  102 1    
   199  100  221 1    
   200  101  222 1    
   201  101  223 1    
   202  101  224 1    
   203  102  103 2    
   204  102  104 am   BACKBONE|DICT|INTERRES
   205  104  105 1    
   206  104  225 1    
   207  105  106 1    
   208  105  107 1    
   209  105  226 1    
   210  106  227 1    
   211  106  228 1    
   212  106  229 1    
   213  107  108 2    
   214  107  109 am   BACKBONE|DICT|INTERRES
   215  109  110 1    
   216  109  230 1    
   217  110  111 1    
   218  110  112 1    
   219  110  231 1    
   220  111  232 1    
   221  111  233 1    
   222  111  234 1    
   223  112  113 2    
   224  112  114 am   BACKBONE|DICT|INTERRES
   225  114  115 1    
   226  114  235 1    
   227  115  116 1    
   228  115  117 1    
   229  115  236 1    
   230  116  237 1    
   231  116  238 1    
   232  116  239 1    
   233  117  118 2    
   234  117  119 am   BACKBONE|DICT|INTERRES
   235  119  120 1    
   236  119  240 1    
   237  120  121 1    
   238  120  124 1    
   239  120  241 1    
   240  121  122 am   BACKBONE|DICT|INTERRES
   241  121  123 2    
   242  122  242 1    
   243  122  243 1    
   244  124  125 1    
   245  124  244 1    
   246  124  245 1    
   247  125  126 1    
   248  126  246 1    
   249  126  247 1    
@<TRIPOS>SUBSTRUCTURE
     1 UNK         1 GROUP             0       ****    0 ROOT    
