@<TRIPOS>MOLECULE
3R540
247   249    1
SMALL
USER_CHARGES


@<TRIPOS>ATOM
      1 CA          7.4764  -14.4140  -49.2097 C.3       0 UNK        -0.1800 
      2 C           6.5828  -14.2563  -47.9881 C.2       0 UNK         0.5000 
      3 O           6.8985  -14.7857  -46.9217 O.2       0 UNK        -0.5000 
      4 N           5.4744  -13.5196  -48.1305 N.am      1 UNK        -0.5000 
      5 CA          4.4796  -13.2657  -47.0827 C.3       1 UNK         0.1400 
      6 C6          3.0673  -13.0055  -47.6725 C.3       23 UNK        -0.0398 
      7 S7          2.2742  -14.5287  -48.2856 S.3       23 UNK        -0.2404 
      8 C8          2.7906  -14.5489  -50.0271 C.3       23 UNK        -0.0205 
      9 C9          2.2426  -15.7673  -50.7529 C.ar      23 UNK        -0.0193 
     10 C10         1.2890  -15.6186  -51.7628 C.ar      23 UNK        -0.1150 
     11 C11         0.8168  -16.7327  -52.4624 C.ar      23 UNK        -0.0193 
     12 C12         1.2864  -18.0076  -52.1282 C.ar      23 UNK        -0.1150 
     13 C13         2.2383  -18.1697  -51.1163 C.ar      23 UNK        -0.0193 
     14 C14         2.7165  -17.0443  -50.4385 C.ar      23 UNK        -0.1150 
     15 C15         2.7921  -19.5485  -50.7840 C.3       23 UNK        -0.0205 
     16 S16         2.2905  -20.1174  -49.1284 S.3       23 UNK        -0.2404 
     17 C17         0.5544  -20.5997  -49.4038 C.3       23 UNK        -0.0398 
     18 CA          0.1205  -21.7446  -48.4558 C.3       11 UNK         0.1400 
     19 N           0.0675  -21.3363  -47.0458 N.am      11 UNK        -0.5000 
     20 C          -0.1290  -22.1752  -46.0174 C.2       10 UNK         0.5000 
     21 O          -0.2132  -23.3967  -46.1420 O.2       10 UNK        -0.5000 
     22 CA         -0.3250  -21.5514  -44.6224 C.3       10 UNK         0.1400 
     23 CB          1.0216  -21.2176  -43.9637 C.3       10 UNK        -0.1800 
     24 N          -1.1817  -20.3650  -44.6551 N.am      10 UNK        -0.5000 
     25 C          -2.4804  -20.3857  -44.9890 C.2       9 UNK         0.5000 
     26 O          -3.1019  -21.4189  -45.2312 O.2       9 UNK        -0.5000 
     27 CA         -3.1985  -19.0304  -45.1239 C.3       9 UNK         0.1400 
     28 CB         -3.7137  -18.5423  -43.7621 C.3       9 UNK        -0.1800 
     29 N          -2.3533  -18.0030  -45.7307 N.am      9 UNK        -0.5000 
     30 C          -1.8720  -18.0556  -46.9808 C.2       8 UNK         0.5000 
     31 O          -2.1500  -18.9479  -47.7806 O.2       8 UNK        -0.5000 
     32 CA         -0.8638  -16.9630  -47.3805 C.3       8 UNK         0.1400 
     33 CB         -1.5819  -15.6722  -47.7973 C.3       8 UNK        -0.1800 
     34 N           0.0897  -16.6777  -46.3074 N.am      8 UNK        -0.5000 
     35 C           1.0062  -17.5527  -45.8704 C.2       7 UNK         0.5000 
     36 O           1.1519  -18.6771  -46.3450 O.2       7 UNK        -0.5000 
     37 CA          1.8628  -17.1252  -44.6652 C.3       7 UNK         0.1400 
     38 CB          3.0590  -16.2797  -45.1161 C.3       7 UNK        -0.1800 
     39 N           1.0951  -16.3845  -43.6644 N.am      7 UNK        -0.5000 
     40 C           0.1145  -16.9202  -42.9256 C.2       6 UNK         0.5000 
     41 O          -0.2156  -18.1044  -42.9877 O.2       6 UNK        -0.5000 
     42 CA         -0.6552  -15.9654  -41.9963 C.3       6 UNK         0.1400 
     43 CB          0.1468  -15.6820  -40.7179 C.3       6 UNK        -0.1800 
     44 N          -1.0052  -14.6980  -42.6384 N.am      6 UNK        -0.5000 
     45 C          -1.7965  -14.5581  -43.7087 C.2       5 UNK         0.5000 
     46 O          -2.3167  -15.5082  -44.2915 O.2       5 UNK        -0.5000 
     47 CA         -2.0293  -13.1319  -44.2489 C.3       5 UNK         0.1400 
     48 CB         -3.1830  -12.4339  -43.5043 C.3       5 UNK        -0.1800 
     49 N          -0.8206  -12.2965  -44.2945 N.am      5 UNK        -0.5000 
     50 C          -0.0959  -11.8120  -43.2771 C.2       4 UNK         0.5000 
     51 O          -0.3899  -11.9459  -42.0868 O.2       4 UNK        -0.5000 
     52 CA          1.2093  -11.0918  -43.6626 C.3       4 UNK         0.1400 
     53 CB          1.0510   -9.5704  -43.5262 C.3       4 UNK        -0.1800 
     54 N           2.3559  -11.5287  -42.8634 N.am      4 UNK        -0.5000 
     55 C           2.7663  -12.7946  -42.7086 C.2       3 UNK         0.5000 
     56 O           2.2104  -13.7687  -43.2212 O.2       3 UNK        -0.5000 
     57 CA          4.0758  -12.9837  -41.9249 C.3       3 UNK         0.1400 
     58 CB          4.2034  -14.3924  -41.3184 C.3       3 UNK        -0.1800 
     59 N           5.1790  -12.7639  -42.8532 N.am      3 UNK        -0.5000 
     60 C           5.7168  -11.5713  -43.1422 C.2       2 UNK         0.5000 
     61 O           5.4811  -10.5396  -42.5123 O.2       2 UNK        -0.5000 
     62 CA          6.6150  -11.5219  -44.3929 C.3       2 UNK         0.1400 
     63 CB          8.0502  -11.9541  -44.0572 C.3       2 UNK        -0.1800 
     64 N           6.0889  -12.3704  -45.4656 N.am      2 UNK        -0.5000 
     65 C           4.9512  -12.1404  -46.1363 C.2       1 UNK         0.5000 
     66 O           4.2930  -11.1052  -46.0208 O.2       1 UNK        -0.5000 
     67 C          -1.2107  -22.3725  -48.9175 C.2       11 UNK         0.5000 
     68 O          -1.1880  -23.4291  -49.5497 O.2       11 UNK        -0.5000 
     69 N          -2.3406  -21.7504  -48.5505 N.am      12 UNK        -0.5000 
     70 CA         -3.6872  -22.2598  -48.8142 C.3       12 UNK         0.1400 
     71 CB         -4.7340  -21.2241  -48.3763 C.3       12 UNK        -0.1800 
     72 C          -3.9460  -23.6141  -48.1310 C.2       12 UNK         0.5000 
     73 O          -4.4694  -24.5236  -48.7724 O.2       12 UNK        -0.5000 
     74 N          -3.5444  -23.7385  -46.8579 N.am      13 UNK        -0.5000 
     75 CA         -3.6423  -24.9653  -46.0664 C.3       13 UNK         0.1400 
     76 CB         -3.2754  -24.6726  -44.6042 C.3       13 UNK        -0.1800 
     77 C          -2.7822  -26.1110  -46.6279 C.2       13 UNK         0.5000 
     78 O          -3.2623  -27.2422  -46.7020 O.2       13 UNK        -0.5000 
     79 N          -1.5520  -25.7988  -47.0612 N.am      14 UNK        -0.5000 
     80 CA         -0.6388  -26.7361  -47.7234 C.3       14 UNK         0.1400 
     81 CB          0.7340  -26.0718  -47.9063 C.3       14 UNK        -0.1800 
     82 C          -1.1796  -27.2514  -49.0721 C.2       14 UNK         0.5000 
     83 O          -0.9606  -28.4136  -49.4143 O.2       14 UNK        -0.5000 
     84 N          -1.9149  -26.3905  -49.7859 N.am      15 UNK        -0.5000 
     85 CA         -2.6393  -26.7033  -51.0176 C.3       15 UNK         0.1400 
     86 CB         -2.7337  -25.4194  -51.8543 C.3       15 UNK        -0.1800 
     87 C          -4.0391  -27.3104  -50.7690 C.2       15 UNK         0.5000 
     88 O          -4.7864  -27.5026  -51.7294 O.2       15 UNK        -0.5000 
     89 N          -4.3909  -27.5792  -49.5007 N.am      16 UNK        -0.5000 
     90 CA         -5.6539  -28.1570  -49.0215 C.3       16 UNK         0.1400 
     91 CB         -5.7649  -29.6324  -49.4582 C.3       16 UNK        -0.1800 
     92 C          -6.9025  -27.3293  -49.3998 C.2       16 UNK         0.5000 
     93 O          -7.9851  -27.8919  -49.5714 O.2       16 UNK        -0.5000 
     94 N          -6.7173  -26.0093  -49.5489 N.am      17 UNK        -0.5000 
     95 CA         -7.6791  -24.9984  -49.9998 C.3       17 UNK         0.1400 
     96 CB         -8.8377  -24.8548  -48.9924 C.3       17 UNK        -0.1800 
     97 C          -8.1784  -25.1863  -51.4509 C.2       17 UNK         0.5000 
     98 O          -9.1173  -24.4993  -51.8568 O.2       17 UNK        -0.5000 
     99 N          -7.5426  -26.0800  -52.2232 N.am      18 UNK        -0.5000 
    100 CA        -7.8498  -26.3248  -53.6349 C.3       18 UNK         0.1400 
    101 CB        -7.4031  -27.7482  -54.0022 C.3       18 UNK        -0.1800 
    102 C         -7.1854  -25.2919  -54.5654 C.2       18 UNK         0.5000 
    103 O         -7.6013  -25.1508  -55.7162 O.2       18 UNK        -0.5000 
    104 N         -6.1711  -24.5914  -54.0506 N.am      19 UNK        -0.5000 
    105 CA        -5.4041  -23.5404  -54.7022 C.3       19 UNK         0.1400 
    106 CB        -4.3685  -24.1675  -55.6573 C.3       19 UNK        -0.1800 
    107 C         -4.7356  -22.6943  -53.6058 C.2       19 UNK         0.5000 
    108 O         -4.9123  -22.9808  -52.4183 O.2       19 UNK        -0.5000 
    109 N         -3.9749  -21.6747  -54.0274 N.am      20 UNK        -0.5000 
    110 CA        -3.1133  -20.8172  -53.2017 C.3       20 UNK         0.1400 
    111 CB        -1.9265  -21.6263  -52.6403 C.3       20 UNK        -0.1800 
    112 C         -3.8536  -20.0190  -52.1071 C.2       20 UNK         0.5000 
    113 O         -3.2491  -19.6559  -51.0975 O.2       20 UNK        -0.5000 
    114 N         -5.1378  -19.7133  -52.3393 N.am      21 UNK        -0.5000 
    115 CA        -5.9900  -18.8869  -51.4803 C.3       21 UNK         0.1400 
    116 CB        -7.4620  -19.2261  -51.7740 C.3       21 UNK        -0.1800 
    117 C         -5.6690  -17.3864  -51.6552 C.2       21 UNK         0.5000 
    118 O         -6.5221  -16.6059  -52.0813 O.2       21 UNK        -0.5000 
    119 N         -4.4142  -17.0292  -51.3688 N.am      22 UNK        -0.5000 
    120 CA        -3.8037  -15.7188  -51.6409 C.3       22 UNK         0.1400 
    121 C         -4.1405  -14.6093  -50.6019 C.2       22 UNK         0.5000 
    122 N         -4.8634  -14.8973  -49.5265 N.am      22 UNK        -0.7600 
    123 O         -3.7471  -13.4602  -50.7809 O.2       22 UNK        -0.5000 
    124 C124       -2.2724  -15.8526  -51.8524 C.3       23 UNK        -0.0398 
    125 S125       -1.8528  -17.0572  -53.1610 S.3       23 UNK        -0.2404 
    126 C126       -0.1671  -16.5507  -53.6087 C.3       23 UNK        -0.0205 
    127 H127        7.0712  -13.8946  -50.0784 H         1 UNK         0.0600 
    128 H128        8.4681  -14.0113  -49.0036 H         1 UNK         0.0600 
    129 H129        7.5811  -15.4689  -49.4630 H         1 UNK         0.0600 
    130 H130        5.2979  -13.0677  -49.0158 H         1 UNK         0.3000 
    131 H131        4.4130  -14.1571  -46.4586 H         1 UNK         0.0600 
    132 H132        2.3965  -12.6151  -46.9050 H         1 UNK         0.0800 
    133 H133        3.0979  -12.2492  -48.4583 H         1 UNK         0.0800 
    134 H134        2.4613  -13.6283  -50.5115 H         1 UNK         0.0800 
    135 H135        3.8783  -14.5653  -50.0909 H         1 UNK         0.0800 
    136 H136        0.9293  -14.6321  -52.0198 H         1 UNK         0.1150 
    137 H137        0.9216  -18.8690  -52.6699 H         1 UNK         0.1150 
    138 H138        3.4594  -17.1627  -49.6619 H         1 UNK         0.1150 
    139 H139        2.4965  -20.2838  -51.5338 H         1 UNK         0.0800 
    140 H140        3.8815  -19.5045  -50.8190 H         1 UNK         0.0800 
    141 H141        0.4525  -20.9131  -50.4436 H         1 UNK         0.0800 
    142 H142       -0.0827  -19.7226  -49.2841 H         1 UNK         0.0800 
    143 H143        0.8719  -22.5342  -48.5274 H         1 UNK         0.0600 
    144 H144        0.1970  -20.3471  -46.8542 H         1 UNK         0.3000 
    145 H145       -0.8218  -22.2956  -43.9966 H         1 UNK         0.0600 
    146 H146        0.8807  -20.8069  -42.9638 H         1 UNK         0.0600 
    147 H147        1.6361  -22.1131  -43.8648 H         1 UNK         0.0600 
    148 H148        1.5924  -20.4948  -44.5447 H         1 UNK         0.0600 
    149 H149       -0.7528  -19.4796  -44.4082 H         1 UNK         0.3000 
    150 H150       -4.0604  -19.1772  -45.7778 H         1 UNK         0.0600 
    151 H151       -4.3722  -19.2826  -43.3063 H         1 UNK         0.0600 
    152 H152       -4.2832  -17.6185  -43.8650 H         1 UNK         0.0600 
    153 H153       -2.8976  -18.3548  -43.0646 H         1 UNK         0.0600 
    154 H154       -2.1244  -17.2008  -45.1499 H         1 UNK         0.3000 
    155 H155       -0.3010  -17.3284  -48.2429 H         1 UNK         0.0600 
    156 H156       -0.8780  -14.9337  -48.1809 H         1 UNK         0.0600 
    157 H157       -2.1271  -15.2221  -46.9682 H         1 UNK         0.0600 
    158 H158       -2.3038  -15.8748  -48.5873 H         1 UNK         0.0600 
    159 H159        0.0109  -15.7859  -45.8441 H         1 UNK         0.3000 
    160 H160        2.2482  -18.0330  -44.1965 H         1 UNK         0.0600 
    161 H161        2.7292  -15.3009  -45.4606 H         1 UNK         0.0600 
    162 H162        3.6011  -16.7579  -45.9332 H         1 UNK         0.0600 
    163 H163        3.7641  -16.1258  -44.2999 H         1 UNK         0.0600 
    164 H164        1.3395  -15.4053  -43.5313 H         1 UNK         0.3000 
    165 H165       -1.5858  -16.4609  -41.7125 H         1 UNK         0.0600 
    166 H166        1.0636  -15.1336  -40.9343 H         1 UNK         0.0600 
    167 H167       -0.4360  -15.0919  -40.0105 H         1 UNK         0.0600 
    168 H168        0.4266  -16.6093  -40.2165 H         1 UNK         0.0600 
    169 H169       -0.6187  -13.8509  -42.2326 H         1 UNK         0.3000 
    170 H170       -2.3413  -13.2449  -45.2884 H         1 UNK         0.0600 
    171 H171       -4.1041  -13.0115  -43.5919 H         1 UNK         0.0600 
    172 H172       -2.9756  -12.3177  -42.4404 H         1 UNK         0.0600 
    173 H173       -3.3788  -11.4451  -43.9188 H         1 UNK         0.0600 
    174 H174       -0.4675  -12.1355  -45.2274 H         1 UNK         0.3000 
    175 H175        1.4428  -11.3196  -44.7047 H         1 UNK         0.0600 
    176 H176        1.9465   -9.0488  -43.8648 H         1 UNK         0.0600 
    177 H177        0.2173   -9.2082  -44.1291 H         1 UNK         0.0600 
    178 H178        0.8610   -9.2777  -42.4927 H         1 UNK         0.0600 
    179 H179        2.9033  -10.7960  -42.4345 H         1 UNK         0.3000 
    180 H180        4.1107  -12.2574  -41.1101 H         1 UNK         0.0600 
    181 H181        4.1701  -15.1727  -42.0792 H         1 UNK         0.0600 
    182 H182        3.3953  -14.5855  -40.6127 H         1 UNK         0.0600 
    183 H183        5.1411  -14.5000  -40.7730 H         1 UNK         0.0600 
    184 H184        5.4152  -13.5437  -43.4486 H         1 UNK         0.3000 
    185 H185        6.6402  -10.4903  -44.7502 H         1 UNK         0.0600 
    186 H186        8.7016  -11.8644  -44.9267 H         1 UNK         0.0600 
    187 H187        8.4716  -11.3280  -43.2696 H         1 UNK         0.0600 
    188 H188        8.0912  -12.9882  -43.7129 H         1 UNK         0.0600 
    189 H189        6.5880  -13.2312  -45.6672 H         1 UNK         0.3000 
    190 H190       -2.2762  -20.8465  -48.0898 H         1 UNK         0.3000 
    191 H191       -3.7793  -22.4017  -49.8927 H         1 UNK         0.0600 
    192 H192       -4.5170  -20.2420  -48.7937 H         1 UNK         0.0600 
    193 H193       -5.7292  -21.5136  -48.7154 H         1 UNK         0.0600 
    194 H194       -4.7740  -21.1179  -47.2926 H         1 UNK         0.0600 
    195 H195       -3.1726  -22.9204  -46.3818 H         1 UNK         0.3000 
    196 H196       -4.6840  -25.2917  -46.0939 H         1 UNK         0.0600 
    197 H197       -3.3653  -25.5703  -43.9914 H         1 UNK         0.0600 
    198 H198       -3.9362  -23.9189  -44.1758 H         1 UNK         0.0600 
    199 H199       -2.2513  -24.3115  -44.5102 H         1 UNK         0.0600 
    200 H200       -1.2072  -24.8529  -46.9181 H         1 UNK         0.3000 
    201 H201       -0.5142  -27.5992  -47.0665 H         1 UNK         0.0600 
    202 H202        1.1590  -25.7754  -46.9472 H         1 UNK         0.0600 
    203 H203        0.6701  -25.1817  -48.5326 H         1 UNK         0.0600 
    204 H204        1.4403  -26.7562  -48.3779 H         1 UNK         0.0600 
    205 H205       -2.0028  -25.4383  -49.4479 H         1 UNK         0.3000 
    206 H206       -2.0711  -27.4380  -51.5913 H         1 UNK         0.0600 
    207 H207       -3.2657  -25.5883  -52.7908 H         1 UNK         0.0600 
    208 H208       -3.2603  -24.6369  -51.3088 H         1 UNK         0.0600 
    209 H209       -1.7442  -25.0379  -52.1064 H         1 UNK         0.0600 
    210 H210       -3.7282  -27.3498  -48.7698 H         1 UNK         0.3000 
    211 H211       -5.6020  -28.1384  -47.9323 H         1 UNK         0.0600 
    212 H212       -5.8845  -29.7262  -50.5381 H         1 UNK         0.0600 
    213 H213       -6.6223  -30.1174  -48.9905 H         1 UNK         0.0600 
    214 H214       -4.8782  -30.1963  -49.1685 H         1 UNK         0.0600 
    215 H215       -5.7866  -25.6404  -49.3556 H         1 UNK         0.3000 
    216 H216       -7.1291  -24.0560  -50.0005 H         1 UNK         0.0600 
    217 H217       -8.4626  -24.7002  -47.9807 H         1 UNK         0.0600 
    218 H218       -9.4787  -25.7366  -48.9827 H         1 UNK         0.0600 
    219 H219       -9.4665  -23.9982  -49.2372 H         1 UNK         0.0600 
    220 H220       -6.7638  -26.6002  -51.8349 H         1 UNK         0.3000 
    221 H221       -8.9299  -26.2602  -53.7822 H         1 UNK         0.0600 
    222 H222       -6.3219  -27.8649  -53.9213 H         1 UNK         0.0600 
    223 H223       -7.8701  -28.4890  -53.3528 H         1 UNK         0.0600 
    224 H224       -7.6822  -27.9918  -55.0280 H         1 UNK         0.0600 
    225 H225       -5.9315  -24.7209  -53.0752 H         1 UNK         0.3000 
    226 H226       -6.0834  -22.8951  -55.2626 H         1 UNK         0.0600 
    227 H227       -4.8493  -24.7921  -56.4101 H         1 UNK         0.0600 
    228 H228       -3.8047  -23.4034  -56.1928 H         1 UNK         0.0600 
    229 H229       -3.6519  -24.7886  -55.1190 H         1 UNK         0.0600 
    230 H230       -3.9199  -21.5036  -55.0218 H         1 UNK         0.3000 
    231 H231       -2.7005  -20.0682  -53.8788 H         1 UNK         0.0600 
    232 H232       -1.4020  -22.1621  -53.4311 H         1 UNK         0.0600 
    233 H233       -2.2524  -22.3564  -51.8999 H         1 UNK         0.0600 
    234 H234       -1.2014  -20.9705  -52.1585 H         1 UNK         0.0600 
    235 H235       -5.5474  -20.0269  -53.2062 H         1 UNK         0.3000 
    236 H236       -5.7957  -19.1403  -50.4371 H         1 UNK         0.0600 
    237 H237       -8.1312  -18.6525  -51.1315 H         1 UNK         0.0600 
    238 H238       -7.7288  -19.0062  -52.8085 H         1 UNK         0.0600 
    239 H239       -7.6654  -20.2819  -51.5925 H         1 UNK         0.0600 
    240 H240       -3.7798  -17.7631  -51.0667 H         1 UNK         0.3000 
    241 H241       -4.2223  -15.3596  -52.5830 H         1 UNK         0.0600 
    242 H242       -5.2080  -15.8317  -49.3791 H         1 UNK         0.3800 
    243 H243       -5.0848  -14.1683  -48.8672 H         1 UNK         0.3800 
    244 H244       -1.8405  -14.8869  -52.1205 H         1 UNK         0.0800 
    245 H245       -1.7813  -16.1663  -50.9301 H         1 UNK         0.0800 
    246 H246        0.1626  -17.1459  -54.4613 H         1 UNK         0.0800 
    247 H247       -0.1797  -15.5145  -53.9503 H         1 UNK         0.0800 
@<TRIPOS>BOND
     1    1    2 1    
     2    1  127 1    
     3    1  128 1    
     4    1  129 1    
     5    2    3 2    
     6    2    4 am   BACKBONE|DICT|INTERRES
     7    4    5 1    
     8    4  130 1    
     9    5    6 1    
    10    5   65 1    
    11    5  131 1    
    12    6    7 1    
    13    6  132 1    
    14    6  133 1    
    15    7    8 1    
    16    8    9 1    
    17    8  134 1    
    18    8  135 1    
    19    9   10 ar   
    20    9   14 ar   
    21   10   11 ar   
    22   10  136 1    
    23   11   12 ar   
    24   11  126 1    
    25   12   13 ar   
    26   12  137 1    
    27   13   14 ar   
    28   13   15 1    
    29   14  138 1    
    30   15   16 1    
    31   15  139 1    
    32   15  140 1    
    33   16   17 1    
    34   17   18 1    
    35   17  141 1    
    36   17  142 1    
    37   18   19 1    
    38   18   67 1    
    39   18  143 1    
    40   19   20 am   BACKBONE|DICT|INTERRES
    41   19  144 1    
    42   20   21 2    
    43   20   22 1    
    44   22   23 1    
    45   22   24 1    
    46   22  145 1    
    47   23  146 1    
    48   23  147 1    
    49   23  148 1    
    50   24   25 am   BACKBONE|DICT|INTERRES
    51   24  149 1    
    52   25   26 2    
    53   25   27 1    
    54   27   28 1    
    55   27   29 1    
    56   27  150 1    
    57   28  151 1    
    58   28  152 1    
    59   28  153 1    
    60   29   30 am   BACKBONE|DICT|INTERRES
    61   29  154 1    
    62   30   31 2    
    63   30   32 1    
    64   32   33 1    
    65   32   34 1    
    66   32  155 1    
    67   33  156 1    
    68   33  157 1    
    69   33  158 1    
    70   34   35 am   BACKBONE|DICT|INTERRES
    71   34  159 1    
    72   35   36 2    
    73   35   37 1    
    74   37   38 1    
    75   37   39 1    
    76   37  160 1    
    77   38  161 1    
    78   38  162 1    
    79   38  163 1    
    80   39   40 am   BACKBONE|DICT|INTERRES
    81   39  164 1    
    82   40   41 2    
    83   40   42 1    
    84   42   43 1    
    85   42   44 1    
    86   42  165 1    
    87   43  166 1    
    88   43  167 1    
    89   43  168 1    
    90   44   45 am   BACKBONE|DICT|INTERRES
    91   44  169 1    
    92   45   46 2    
    93   45   47 1    
    94   47   48 1    
    95   47   49 1    
    96   47  170 1    
    97   48  171 1    
    98   48  172 1    
    99   48  173 1    
   100   49   50 am   BACKBONE|DICT|INTERRES
   101   49  174 1    
   102   50   51 2    
   103   50   52 1    
   104   52   53 1    
   105   52   54 1    
   106   52  175 1    
   107   53  176 1    
   108   53  177 1    
   109   53  178 1    
   110   54   55 am   BACKBONE|DICT|INTERRES
   111   54  179 1    
   112   55   56 2    
   113   55   57 1    
   114   57   58 1    
   115   57   59 1    
   116   57  180 1    
   117   58  181 1    
   118   58  182 1    
   119   58  183 1    
   120   59   60 am   BACKBONE|DICT|INTERRES
   121   59  184 1    
   122   60   61 2    
   123   60   62 1    
   124   62   63 1    
   125   62   64 1    
   126   62  185 1    
   127   63  186 1    
   128   63  187 1    
   129   63  188 1    
   130   64   65 am   BACKBONE|DICT|INTERRES
   131   64  189 1    
   132   65   66 2    
   133   67   68 2    
   134   67   69 am   BACKBONE|DICT|INTERRES
   135   69   70 1    
   136   69  190 1    
   137   70   71 1    
   138   70   72 1    
   139   70  191 1    
   140   71  192 1    
   141   71  193 1    
   142   71  194 1    
   143   72   73 2    
   144   72   74 am   BACKBONE|DICT|INTERRES
   145   74   75 1    
   146   74  195 1    
   147   75   76 1    
   148   75   77 1    
   149   75  196 1    
   150   76  197 1    
   151   76  198 1    
   152   76  199 1    
   153   77   78 2    
   154   77   79 am   BACKBONE|DICT|INTERRES
   155   79   80 1    
   156   79  200 1    
   157   80   81 1    
   158   80   82 1    
   159   80  201 1    
   160   81  202 1    
   161   81  203 1    
   162   81  204 1    
   163   82   83 2    
   164   82   84 am   BACKBONE|DICT|INTERRES
   165   84   85 1    
   166   84  205 1    
   167   85   86 1    
   168   85   87 1    
   169   85  206 1    
   170   86  207 1    
   171   86  208 1    
   172   86  209 1    
   173   87   88 2    
   174   87   89 am   BACKBONE|DICT|INTERRES
   175   89   90 1    
   176   89  210 1    
   177   90   91 1    
   178   90   92 1    
   179   90  211 1    
   180   91  212 1    
   181   91  213 1    
   182   91  214 1    
   183   92   93 2    
   184   92   94 am   BACKBONE|DICT|INTERRES
   185   94   95 1    
   186   94  215 1    
   187   95   96 1    
   188   95   97 1    
   189   95  216 1    
   190   96  217 1    
   191   96  218 1    
   192   96  219 1    
   193   97   98 2    
   194   97   99 am   BACKBONE|DICT|INTERRES
   195   99  100 1    
   196   99  220 1    
   197  100  101 1    
   198  100  102 1    
   199  100  221 1    
   200  101  222 1    
   201  101  223 1    
   202  101  224 1    
   203  102  103 2    
   204  102  104 am   BACKBONE|DICT|INTERRES
   205  104  105 1    
   206  104  225 1    
   207  105  106 1    
   208  105  107 1    
   209  105  226 1    
   210  106  227 1    
   211  106  228 1    
   212  106  229 1    
   213  107  108 2    
   214  107  109 am   BACKBONE|DICT|INTERRES
   215  109  110 1    
   216  109  230 1    
   217  110  111 1    
   218  110  112 1    
   219  110  231 1    
   220  111  232 1    
   221  111  233 1    
   222  111  234 1    
   223  112  113 2    
   224  112  114 am   BACKBONE|DICT|INTERRES
   225  114  115 1    
   226  114  235 1    
   227  115  116 1    
   228  115  117 1    
   229  115  236 1    
   230  116  237 1    
   231  116  238 1    
   232  116  239 1    
   233  117  118 2    
   234  117  119 am   BACKBONE|DICT|INTERRES
   235  119  120 1    
   236  119  240 1    
   237  120  121 1    
   238  120  124 1    
   239  120  241 1    
   240  121  122 am   BACKBONE|DICT|INTERRES
   241  121  123 2    
   242  122  242 1    
   243  122  243 1    
   244  124  125 1    
   245  124  244 1    
   246  124  245 1    
   247  125  126 1    
   248  126  246 1    
   249  126  247 1    
@<TRIPOS>SUBSTRUCTURE
     1 UNK         1 GROUP             0       ****    0 ROOT    
