@<TRIPOS>MOLECULE
3R540
247   249    1
SMALL
USER_CHARGES


@<TRIPOS>ATOM
      1 CA          8.0443  -15.3555  -47.2508 C.3       0 UNK        -0.1800 
      2 C           7.9926  -13.9194  -47.7711 C.2       0 UNK         0.5000 
      3 O           8.9771  -13.1953  -47.6364 O.2       0 UNK        -0.5000 
      4 N           6.8902  -13.4630  -48.3827 N.am      1 UNK        -0.5000 
      5 CA          5.6097  -14.1591  -48.5414 C.3       1 UNK         0.1400 
      6 C6          4.7441  -13.4687  -49.6312 C.3       23 UNK        -0.0398 
      7 S7          3.0655  -14.1602  -49.8496 S.3       23 UNK        -0.2404 
      8 C8          3.3685  -15.6020  -50.9172 C.3       23 UNK        -0.0205 
      9 C9          2.3939  -16.7348  -50.6174 C.ar      23 UNK        -0.0193 
     10 C10         1.0147  -16.5338  -50.7382 C.ar      23 UNK        -0.1150 
     11 C11         0.1169  -17.5746  -50.4839 C.ar      23 UNK        -0.0193 
     12 C12         0.6067  -18.8303  -50.1167 C.ar      23 UNK        -0.1150 
     13 C13         1.9831  -19.0504  -50.0066 C.ar      23 UNK        -0.0193 
     14 C14         2.8705  -17.9967  -50.2473 C.ar      23 UNK        -0.1150 
     15 C15         2.5147  -20.4393  -49.6834 C.3       23 UNK        -0.0205 
     16 S16         3.0319  -20.6176  -47.9459 S.3       23 UNK        -0.2404 
     17 C17         1.4562  -20.4676  -47.0414 C.3       23 UNK        -0.0398 
     18 CA          0.7683  -21.8268  -46.7627 C.3       11 UNK         0.1400 
     19 N          -0.0787  -21.7639  -45.5713 N.am      11 UNK        -0.5000 
     20 C          -0.7162  -22.8016  -45.0131 C.2       10 UNK         0.5000 
     21 O          -0.6306  -23.9613  -45.4171 O.2       10 UNK        -0.5000 
     22 CA         -1.6415  -22.4731  -43.8288 C.3       10 UNK         0.1400 
     23 CB         -0.8413  -22.3540  -42.5229 C.3       10 UNK        -0.1800 
     24 N          -2.4017  -21.2422  -44.0514 N.am      10 UNK        -0.5000 
     25 C          -3.3718  -21.1093  -44.9664 C.2       9 UNK         0.5000 
     26 O          -3.7441  -22.0192  -45.7054 O.2       9 UNK        -0.5000 
     27 CA         -3.9915  -19.7087  -45.1135 C.3       9 UNK         0.1400 
     28 CB         -4.9617  -19.4090  -43.9617 C.3       9 UNK        -0.1800 
     29 N          -2.9768  -18.6566  -45.1864 N.am      9 UNK        -0.5000 
     30 C          -2.0882  -18.5405  -46.1846 C.2       8 UNK         0.5000 
     31 O          -2.0747  -19.2684  -47.1739 O.2       8 UNK        -0.5000 
     32 CA         -0.9968  -17.4661  -46.0493 C.3       8 UNK         0.1400 
     33 CB         -1.4495  -16.1670  -46.7275 C.3       8 UNK        -0.1800 
     34 N          -0.5831  -17.2035  -44.6681 N.am      8 UNK        -0.5000 
     35 C          -0.1332  -18.1343  -43.8120 C.2       7 UNK         0.5000 
     36 O           0.0647  -19.3061  -44.1311 O.2       7 UNK        -0.5000 
     37 CA          0.1035  -17.7174  -42.3487 C.3       7 UNK         0.1400 
     38 CB          1.6047  -17.5289  -42.0834 C.3       7 UNK        -0.1800 
     39 N          -0.6057  -16.5092  -41.9239 N.am      7 UNK        -0.5000 
     40 C          -1.9287  -16.2880  -41.9620 C.2       6 UNK         0.5000 
     41 O          -2.7421  -17.0986  -42.4093 O.2       6 UNK        -0.5000 
     42 CA         -2.4243  -14.9288  -41.4181 C.3       6 UNK         0.1400 
     43 CB         -3.2352  -15.1296  -40.1283 C.3       6 UNK        -0.1800 
     44 N          -1.3394  -13.9755  -41.1496 N.am      6 UNK        -0.5000 
     45 C          -0.6262  -13.3467  -42.0935 C.2       5 UNK         0.5000 
     46 O          -0.8794  -13.4374  -43.2973 O.2       5 UNK        -0.5000 
     47 CA          0.5769  -12.5143  -41.6077 C.3       5 UNK         0.1400 
     48 CB          1.4768  -13.3005  -40.6343 C.3       5 UNK        -0.1800 
     49 N           1.3778  -12.1161  -42.7585 N.am      5 UNK        -0.5000 
     50 C           1.9248  -10.9120  -42.9677 C.2       4 UNK         0.5000 
     51 O           1.8904   -9.9957  -42.1451 O.2       4 UNK        -0.5000 
     52 CA          2.6237  -10.6809  -44.3281 C.3       4 UNK         0.1400 
     53 CB          4.1504  -10.7287  -44.1641 C.3       4 UNK        -0.1800 
     54 N           2.2322  -11.6555  -45.3485 N.am      4 UNK        -0.5000 
     55 C           1.0003  -11.7665  -45.8660 C.2       3 UNK         0.5000 
     56 O           0.1208  -10.9205  -45.6989 O.2       3 UNK        -0.5000 
     57 CA          0.6724  -13.0461  -46.6625 C.3       3 UNK         0.1400 
     58 CB          0.2861  -12.7109  -48.1115 C.3       3 UNK        -0.1800 
     59 N           1.7390  -14.0556  -46.6710 N.am      3 UNK        -0.5000 
     60 C           2.1583  -14.7733  -45.6167 C.2       2 UNK         0.5000 
     61 O           1.6673  -14.6776  -44.4931 O.2       2 UNK        -0.5000 
     62 CA          3.3545  -15.7246  -45.8346 C.3       2 UNK         0.1400 
     63 CB          2.8763  -17.1761  -45.9769 C.3       2 UNK        -0.1800 
     64 N           4.1748  -15.4017  -47.0025 N.am      2 UNK        -0.5000 
     65 C           4.8794  -14.2773  -47.1841 C.2       1 UNK         0.5000 
     66 O           4.9341  -13.3600  -46.3617 O.2       1 UNK        -0.5000 
     67 C          -0.0208  -22.3321  -47.9876 C.2       11 UNK         0.5000 
     68 O           0.4174  -23.2729  -48.6490 O.2       11 UNK        -0.5000 
     69 N          -1.1912  -21.7307  -48.2430 N.am      12 UNK        -0.5000 
     70 CA         -2.0949  -22.1157  -49.3235 C.3       12 UNK         0.1400 
     71 CB         -3.2074  -21.0733  -49.4648 C.3       12 UNK        -0.1800 
     72 C          -2.6858  -23.5213  -49.1332 C.2       12 UNK         0.5000 
     73 O          -2.7900  -24.2588  -50.1095 O.2       12 UNK        -0.5000 
     74 N          -3.0273  -23.8947  -47.8918 N.am      13 UNK        -0.5000 
     75 CA         -3.5003  -25.2382  -47.5497 C.3       13 UNK         0.1400 
     76 CB         -3.9730  -25.2717  -46.0894 C.3       13 UNK        -0.1800 
     77 C          -2.4451  -26.3305  -47.8127 C.2       13 UNK         0.5000 
     78 O          -2.8005  -27.4108  -48.2850 O.2       13 UNK        -0.5000 
     79 N          -1.1703  -26.0209  -47.5368 N.am      14 UNK        -0.5000 
     80 CA         -0.0275  -26.8819  -47.8399 C.3       14 UNK         0.1400 
     81 CB          1.2031  -26.3937  -47.0599 C.3       14 UNK        -0.1800 
     82 C           0.2712  -26.9586  -49.3500 C.2       14 UNK         0.5000 
     83 O           0.5475  -28.0465  -49.8572 O.2       14 UNK        -0.5000 
     84 N           0.2085  -25.8108  -50.0399 N.am      15 UNK        -0.5000 
     85 CA          0.4463  -25.6875  -51.4813 C.3       15 UNK         0.1400 
     86 CB          0.6485  -24.2049  -51.8305 C.3       15 UNK        -0.1800 
     87 C          -0.6729  -26.2939  -52.3525 C.2       15 UNK         0.5000 
     88 O          -0.3946  -26.7213  -53.4740 O.2       15 UNK        -0.5000 
     89 N          -1.9027  -26.3136  -51.8215 N.am      16 UNK        -0.5000 
     90 CA         -3.1594  -26.7005  -52.4647 C.3       16 UNK         0.1400 
     91 CB         -3.1224  -28.1669  -52.9510 C.3       16 UNK        -0.1800 
     92 C          -3.5925  -25.6830  -53.5437 C.2       16 UNK         0.5000 
     93 O          -3.2029  -24.5150  -53.4736 O.2       16 UNK        -0.5000 
     94 N          -4.4269  -26.1296  -54.4954 N.am      17 UNK        -0.5000 
     95 CA         -5.1004  -25.3327  -55.5274 C.3       17 UNK         0.1400 
     96 CB         -4.0874  -24.7196  -56.5213 C.3       17 UNK        -0.1800 
     97 C          -6.0593  -24.3123  -54.8814 C.2       17 UNK         0.5000 
     98 O          -7.0876  -24.7226  -54.3389 O.2       17 UNK        -0.5000 
     99 N          -5.7066  -23.0204  -54.9048 N.am      18 UNK        -0.5000 
    100 CA        -6.4198  -21.9283  -54.2376 C.3       18 UNK         0.1400 
    101 CB        -6.0251  -20.5986  -54.9052 C.3       18 UNK        -0.1800 
    102 C         -6.1551  -21.9302  -52.7158 C.2       18 UNK         0.5000 
    103 O         -5.5862  -20.9784  -52.1797 O.2       18 UNK        -0.5000 
    104 N         -6.5626  -23.0188  -52.0496 N.am      19 UNK        -0.5000 
    105 CA        -6.2891  -23.3241  -50.6430 C.3       19 UNK         0.1400 
    106 CB        -6.7858  -24.7435  -50.3329 C.3       19 UNK        -0.1800 
    107 C         -6.8600  -22.3113  -49.6318 C.2       19 UNK         0.5000 
    108 O         -6.3465  -22.2149  -48.5171 O.2       19 UNK        -0.5000 
    109 N         -7.8841  -21.5500  -50.0369 N.am      20 UNK        -0.5000 
    110 CA        -8.4953  -20.4613  -49.2747 C.3       20 UNK         0.1400 
    111 CB        -9.9078  -20.2078  -49.8314 C.3       20 UNK        -0.1800 
    112 C         -7.6160  -19.1907  -49.2815 C.2       20 UNK         0.5000 
    113 O         -8.0393  -18.1475  -49.7832 O.2       20 UNK        -0.5000 
    114 N         -6.3922  -19.3137  -48.7473 N.am      21 UNK        -0.5000 
    115 CA        -5.3837  -18.2604  -48.5665 C.3       21 UNK         0.1400 
    116 CB        -5.8182  -17.3028  -47.4375 C.3       21 UNK        -0.1800 
    117 C         -5.0100  -17.5138  -49.8660 C.2       21 UNK         0.5000 
    118 O         -4.7736  -16.3053  -49.8288 O.2       21 UNK        -0.5000 
    119 N         -4.9820  -18.2430  -50.9904 N.am      22 UNK        -0.5000 
    120 CA        -4.7856  -17.7257  -52.3563 C.3       22 UNK         0.1400 
    121 C         -5.9931  -16.9126  -52.9196 C.2       22 UNK         0.5000 
    122 N         -7.1567  -16.8955  -52.2793 N.am      22 UNK        -0.7600 
    123 O         -5.8894  -16.3075  -53.9833 O.2       22 UNK        -0.5000 
    124 C124       -3.4302  -16.9912  -52.5663 C.3       23 UNK        -0.0398 
    125 S125       -1.9751  -18.0359  -52.2126 S.3       23 UNK        -0.2404 
    126 C126       -1.3786  -17.3490  -50.6351 C.3       23 UNK        -0.0205 
    127 H127        7.7309  -16.0681  -48.0131 H         1 UNK         0.0600 
    128 H128        7.4102  -15.4731  -46.3725 H         1 UNK         0.0600 
    129 H129        9.0622  -15.6166  -46.9605 H         1 UNK         0.0600 
    130 H130        6.8906  -12.5019  -48.6921 H         1 UNK         0.3000 
    131 H131        5.8222  -15.1683  -48.8974 H         1 UNK         0.0600 
    132 H132        4.6244  -12.4105  -49.3921 H         1 UNK         0.0800 
    133 H133        5.2605  -13.4988  -50.5919 H         1 UNK         0.0800 
    134 H134        4.3968  -15.9442  -50.7940 H         1 UNK         0.0800 
    135 H135        3.2658  -15.3028  -51.9611 H         1 UNK         0.0800 
    136 H136        0.6420  -15.5637  -51.0359 H         1 UNK         0.1150 
    137 H137       -0.0871  -19.6407  -49.9420 H         1 UNK         0.1150 
    138 H138        3.9344  -18.1705  -50.1668 H         1 UNK         0.1150 
    139 H139        1.7757  -21.2010  -49.9330 H         1 UNK         0.0800 
    140 H140        3.3754  -20.6470  -50.3207 H         1 UNK         0.0800 
    141 H141        0.7866  -19.7689  -47.5409 H         1 UNK         0.0800 
    142 H142        1.7140  -19.9911  -46.0952 H         1 UNK         0.0800 
    143 H143        1.5427  -22.5658  -46.5455 H         1 UNK         0.0600 
    144 H144       -0.1720  -20.8527  -45.1286 H         1 UNK         0.3000 
    145 H145       -2.3503  -23.2965  -43.7193 H         1 UNK         0.0600 
    146 H146       -1.4998  -22.1805  -41.6718 H         1 UNK         0.0600 
    147 H147       -0.1202  -21.5369  -42.5612 H         1 UNK         0.0600 
    148 H148       -0.2863  -23.2714  -42.3224 H         1 UNK         0.0600 
    149 H149       -2.1131  -20.4284  -43.5287 H         1 UNK         0.3000 
    150 H150       -4.5597  -19.7022  -46.0445 H         1 UNK         0.0600 
    151 H151       -5.7407  -20.1699  -43.8995 H         1 UNK         0.0600 
    152 H152       -5.4561  -18.4479  -44.1032 H         1 UNK         0.0600 
    153 H153       -4.4500  -19.3811  -42.9988 H         1 UNK         0.0600 
    154 H154       -2.9050  -18.0341  -44.3895 H         1 UNK         0.3000 
    155 H155       -0.1241  -17.8348  -46.5888 H         1 UNK         0.0600 
    156 H156       -1.9610  -16.3638  -47.6711 H         1 UNK         0.0600 
    157 H157       -0.5898  -15.5479  -46.9671 H         1 UNK         0.0600 
    158 H158       -2.1292  -15.5915  -46.0983 H         1 UNK         0.0600 
    159 H159       -0.6870  -16.2568  -44.3296 H         1 UNK         0.3000 
    160 H160       -0.2536  -18.5388  -41.7247 H         1 UNK         0.0600 
    161 H161        2.0083  -16.6823  -42.6398 H         1 UNK         0.0600 
    162 H162        2.1702  -18.4144  -42.3774 H         1 UNK         0.0600 
    163 H163        1.8004  -17.3579  -41.0248 H         1 UNK         0.0600 
    164 H164       -0.0285  -15.7700  -41.5539 H         1 UNK         0.3000 
    165 H165       -3.0852  -14.4992  -42.1738 H         1 UNK         0.0600 
    166 H166       -3.6455  -14.1856  -39.7691 H         1 UNK         0.0600 
    167 H167       -4.0762  -15.8041  -40.2952 H         1 UNK         0.0600 
    168 H168       -2.6251  -15.5569  -39.3316 H         1 UNK         0.0600 
    169 H169       -1.0899  -13.8456  -40.1795 H         1 UNK         0.3000 
    170 H170        0.1780  -11.6325  -41.1025 H         1 UNK         0.0600 
    171 H171        1.8391  -14.2266  -41.0829 H         1 UNK         0.0600 
    172 H172        2.3474  -12.7112  -40.3454 H         1 UNK         0.0600 
    173 H173        0.9504  -13.5578  -39.7150 H         1 UNK         0.0600 
    174 H174        1.4049  -12.8053  -43.5036 H         1 UNK         0.3000 
    175 H175        2.3441   -9.6856  -44.6792 H         1 UNK         0.0600 
    176 H176        4.4866  -11.7096  -43.8252 H         1 UNK         0.0600 
    177 H177        4.6556  -10.5097  -45.1051 H         1 UNK         0.0600 
    178 H178        4.4899   -9.9932  -43.4336 H         1 UNK         0.0600 
    179 H179        2.9105  -12.3741  -45.5650 H         1 UNK         0.3000 
    180 H180       -0.1979  -13.4829  -46.1704 H         1 UNK         0.0600 
    181 H181        0.0222  -13.6091  -48.6706 H         1 UNK         0.0600 
    182 H182        1.1006  -12.2120  -48.6375 H         1 UNK         0.0600 
    183 H183       -0.5777  -12.0459  -48.1425 H         1 UNK         0.0600 
    184 H184        2.2087  -14.1943  -47.5555 H         1 UNK         0.3000 
    185 H185        3.9905  -15.6555  -44.9499 H         1 UNK         0.0600 
    186 H186        2.2267  -17.3033  -46.8439 H         1 UNK         0.0600 
    187 H187        3.7167  -17.8618  -46.0869 H         1 UNK         0.0600 
    188 H188        2.3230  -17.4923  -45.0947 H         1 UNK         0.0600 
    189 H189        4.1656  -16.0903  -47.7410 H         1 UNK         0.3000 
    190 H190       -1.4912  -20.9436  -47.6720 H         1 UNK         0.3000 
    191 H191       -1.5213  -22.1176  -50.2521 H         1 UNK         0.0600 
    192 H192       -2.7984  -20.0852  -49.6716 H         1 UNK         0.0600 
    193 H193       -3.8108  -21.0137  -48.5589 H         1 UNK         0.0600 
    194 H194       -3.8696  -21.3245  -50.2907 H         1 UNK         0.0600 
    195 H195       -2.9853  -23.2176  -47.1367 H         1 UNK         0.3000 
    196 H196       -4.3609  -25.4553  -48.1853 H         1 UNK         0.0600 
    197 H197       -4.7892  -24.5680  -45.9249 H         1 UNK         0.0600 
    198 H198       -3.1680  -25.0199  -45.3992 H         1 UNK         0.0600 
    199 H199       -4.3397  -26.2628  -45.8198 H         1 UNK         0.0600 
    200 H200       -0.9674  -25.1285  -47.0986 H         1 UNK         0.3000 
    201 H201       -0.2622  -27.8914  -47.4960 H         1 UNK         0.0600 
    202 H202        1.0174  -26.4051  -45.9857 H         1 UNK         0.0600 
    203 H203        1.4825  -25.3772  -47.3378 H         1 UNK         0.0600 
    204 H204        2.0649  -27.0349  -47.2489 H         1 UNK         0.0600 
    205 H205        0.0411  -24.9462  -49.5325 H         1 UNK         0.3000 
    206 H206        1.3705  -26.2192  -51.7166 H         1 UNK         0.0600 
    207 H207       -0.2473  -23.6204  -51.6199 H         1 UNK         0.0600 
    208 H208        1.4735  -23.7725  -51.2638 H         1 UNK         0.0600 
    209 H209        0.8792  -24.0804  -52.8891 H         1 UNK         0.0600 
    210 H210       -2.0283  -25.8035  -50.9518 H         1 UNK         0.3000 
    211 H211       -3.9129  -26.6367  -51.6783 H         1 UNK         0.0600 
    212 H212       -2.5055  -28.2868  -53.8421 H         1 UNK         0.0600 
    213 H213       -4.1219  -28.5307  -53.1902 H         1 UNK         0.0600 
    214 H214       -2.7230  -28.8248  -52.1788 H         1 UNK         0.0600 
    215 H215       -4.7067  -27.0994  -54.4551 H         1 UNK         0.3000 
    216 H216       -5.7286  -26.0242  -56.0910 H         1 UNK         0.0600 
    217 H217       -4.6008  -24.1710  -57.3120 H         1 UNK         0.0600 
    218 H218       -3.4993  -25.5004  -57.0037 H         1 UNK         0.0600 
    219 H219       -3.3884  -24.0330  -56.0440 H         1 UNK         0.0600 
    220 H220       -4.8129  -22.7843  -55.3111 H         1 UNK         0.3000 
    221 H221       -7.4933  -22.0662  -54.3824 H         1 UNK         0.0600 
    222 H222       -4.9572  -20.3991  -54.8070 H         1 UNK         0.0600 
    223 H223       -6.2684  -20.6038  -55.9677 H         1 UNK         0.0600 
    224 H224       -6.5609  -19.7616  -54.4556 H         1 UNK         0.0600 
    225 H225       -6.9935  -23.7565  -52.5978 H         1 UNK         0.3000 
    226 H226       -5.2072  -23.3144  -50.5240 H         1 UNK         0.0600 
    227 H227       -6.2873  -25.4808  -50.9626 H         1 UNK         0.0600 
    228 H228       -6.5818  -25.0127  -49.2958 H         1 UNK         0.0600 
    229 H229       -7.8608  -24.8358  -50.4917 H         1 UNK         0.0600 
    230 H230       -8.2181  -21.6787  -50.9804 H         1 UNK         0.3000 
    231 H231       -8.6005  -20.7760  -48.2344 H         1 UNK         0.0600 
    232 H232      -10.4146  -19.4219  -49.2698 H         1 UNK         0.0600 
    233 H233      -10.5254  -21.1034  -49.7620 H         1 UNK         0.0600 
    234 H234       -9.8801  -19.8996  -50.8774 H         1 UNK         0.0600 
    235 H235       -6.1337  -20.2411  -48.4230 H         1 UNK         0.3000 
    236 H236       -4.4723  -18.7572  -48.2398 H         1 UNK         0.0600 
    237 H237       -6.6764  -16.6981  -47.7324 H         1 UNK         0.0600 
    238 H238       -6.0912  -17.8486  -46.5350 H         1 UNK         0.0600 
    239 H239       -5.0101  -16.6208  -47.1701 H         1 UNK         0.0600 
    240 H240       -5.2083  -19.2297  -50.9478 H         1 UNK         0.3000 
    241 H241       -4.7525  -18.6129  -52.9872 H         1 UNK         0.0600 
    242 H242       -7.9226  -16.3719  -52.6713 H         1 UNK         0.3800 
    243 H243       -7.2878  -17.3772  -51.3948 H         1 UNK         0.3800 
    244 H244       -3.3317  -16.6824  -53.6080 H         1 UNK         0.0800 
    245 H245       -3.3898  -16.0681  -51.9886 H         1 UNK         0.0800 
    246 H246       -1.5995  -16.2823  -50.5774 H         1 UNK         0.0800 
    247 H247       -1.9115  -17.8188  -49.8077 H         1 UNK         0.0800 
@<TRIPOS>BOND
     1    1    2 1    
     2    1  127 1    
     3    1  128 1    
     4    1  129 1    
     5    2    3 2    
     6    2    4 am   BACKBONE|DICT|INTERRES
     7    4    5 1    
     8    4  130 1    
     9    5    6 1    
    10    5   65 1    
    11    5  131 1    
    12    6    7 1    
    13    6  132 1    
    14    6  133 1    
    15    7    8 1    
    16    8    9 1    
    17    8  134 1    
    18    8  135 1    
    19    9   10 ar   
    20    9   14 ar   
    21   10   11 ar   
    22   10  136 1    
    23   11   12 ar   
    24   11  126 1    
    25   12   13 ar   
    26   12  137 1    
    27   13   14 ar   
    28   13   15 1    
    29   14  138 1    
    30   15   16 1    
    31   15  139 1    
    32   15  140 1    
    33   16   17 1    
    34   17   18 1    
    35   17  141 1    
    36   17  142 1    
    37   18   19 1    
    38   18   67 1    
    39   18  143 1    
    40   19   20 am   BACKBONE|DICT|INTERRES
    41   19  144 1    
    42   20   21 2    
    43   20   22 1    
    44   22   23 1    
    45   22   24 1    
    46   22  145 1    
    47   23  146 1    
    48   23  147 1    
    49   23  148 1    
    50   24   25 am   BACKBONE|DICT|INTERRES
    51   24  149 1    
    52   25   26 2    
    53   25   27 1    
    54   27   28 1    
    55   27   29 1    
    56   27  150 1    
    57   28  151 1    
    58   28  152 1    
    59   28  153 1    
    60   29   30 am   BACKBONE|DICT|INTERRES
    61   29  154 1    
    62   30   31 2    
    63   30   32 1    
    64   32   33 1    
    65   32   34 1    
    66   32  155 1    
    67   33  156 1    
    68   33  157 1    
    69   33  158 1    
    70   34   35 am   BACKBONE|DICT|INTERRES
    71   34  159 1    
    72   35   36 2    
    73   35   37 1    
    74   37   38 1    
    75   37   39 1    
    76   37  160 1    
    77   38  161 1    
    78   38  162 1    
    79   38  163 1    
    80   39   40 am   BACKBONE|DICT|INTERRES
    81   39  164 1    
    82   40   41 2    
    83   40   42 1    
    84   42   43 1    
    85   42   44 1    
    86   42  165 1    
    87   43  166 1    
    88   43  167 1    
    89   43  168 1    
    90   44   45 am   BACKBONE|DICT|INTERRES
    91   44  169 1    
    92   45   46 2    
    93   45   47 1    
    94   47   48 1    
    95   47   49 1    
    96   47  170 1    
    97   48  171 1    
    98   48  172 1    
    99   48  173 1    
   100   49   50 am   BACKBONE|DICT|INTERRES
   101   49  174 1    
   102   50   51 2    
   103   50   52 1    
   104   52   53 1    
   105   52   54 1    
   106   52  175 1    
   107   53  176 1    
   108   53  177 1    
   109   53  178 1    
   110   54   55 am   BACKBONE|DICT|INTERRES
   111   54  179 1    
   112   55   56 2    
   113   55   57 1    
   114   57   58 1    
   115   57   59 1    
   116   57  180 1    
   117   58  181 1    
   118   58  182 1    
   119   58  183 1    
   120   59   60 am   BACKBONE|DICT|INTERRES
   121   59  184 1    
   122   60   61 2    
   123   60   62 1    
   124   62   63 1    
   125   62   64 1    
   126   62  185 1    
   127   63  186 1    
   128   63  187 1    
   129   63  188 1    
   130   64   65 am   BACKBONE|DICT|INTERRES
   131   64  189 1    
   132   65   66 2    
   133   67   68 2    
   134   67   69 am   BACKBONE|DICT|INTERRES
   135   69   70 1    
   136   69  190 1    
   137   70   71 1    
   138   70   72 1    
   139   70  191 1    
   140   71  192 1    
   141   71  193 1    
   142   71  194 1    
   143   72   73 2    
   144   72   74 am   BACKBONE|DICT|INTERRES
   145   74   75 1    
   146   74  195 1    
   147   75   76 1    
   148   75   77 1    
   149   75  196 1    
   150   76  197 1    
   151   76  198 1    
   152   76  199 1    
   153   77   78 2    
   154   77   79 am   BACKBONE|DICT|INTERRES
   155   79   80 1    
   156   79  200 1    
   157   80   81 1    
   158   80   82 1    
   159   80  201 1    
   160   81  202 1    
   161   81  203 1    
   162   81  204 1    
   163   82   83 2    
   164   82   84 am   BACKBONE|DICT|INTERRES
   165   84   85 1    
   166   84  205 1    
   167   85   86 1    
   168   85   87 1    
   169   85  206 1    
   170   86  207 1    
   171   86  208 1    
   172   86  209 1    
   173   87   88 2    
   174   87   89 am   BACKBONE|DICT|INTERRES
   175   89   90 1    
   176   89  210 1    
   177   90   91 1    
   178   90   92 1    
   179   90  211 1    
   180   91  212 1    
   181   91  213 1    
   182   91  214 1    
   183   92   93 2    
   184   92   94 am   BACKBONE|DICT|INTERRES
   185   94   95 1    
   186   94  215 1    
   187   95   96 1    
   188   95   97 1    
   189   95  216 1    
   190   96  217 1    
   191   96  218 1    
   192   96  219 1    
   193   97   98 2    
   194   97   99 am   BACKBONE|DICT|INTERRES
   195   99  100 1    
   196   99  220 1    
   197  100  101 1    
   198  100  102 1    
   199  100  221 1    
   200  101  222 1    
   201  101  223 1    
   202  101  224 1    
   203  102  103 2    
   204  102  104 am   BACKBONE|DICT|INTERRES
   205  104  105 1    
   206  104  225 1    
   207  105  106 1    
   208  105  107 1    
   209  105  226 1    
   210  106  227 1    
   211  106  228 1    
   212  106  229 1    
   213  107  108 2    
   214  107  109 am   BACKBONE|DICT|INTERRES
   215  109  110 1    
   216  109  230 1    
   217  110  111 1    
   218  110  112 1    
   219  110  231 1    
   220  111  232 1    
   221  111  233 1    
   222  111  234 1    
   223  112  113 2    
   224  112  114 am   BACKBONE|DICT|INTERRES
   225  114  115 1    
   226  114  235 1    
   227  115  116 1    
   228  115  117 1    
   229  115  236 1    
   230  116  237 1    
   231  116  238 1    
   232  116  239 1    
   233  117  118 2    
   234  117  119 am   BACKBONE|DICT|INTERRES
   235  119  120 1    
   236  119  240 1    
   237  120  121 1    
   238  120  124 1    
   239  120  241 1    
   240  121  122 am   BACKBONE|DICT|INTERRES
   241  121  123 2    
   242  122  242 1    
   243  122  243 1    
   244  124  125 1    
   245  124  244 1    
   246  124  245 1    
   247  125  126 1    
   248  126  246 1    
   249  126  247 1    
@<TRIPOS>SUBSTRUCTURE
     1 UNK         1 GROUP             0       ****    0 ROOT    
