@<TRIPOS>MOLECULE
3R540
247   249    1
SMALL
USER_CHARGES


@<TRIPOS>ATOM
      1 CA         -2.3684   -9.4839  -44.0763 C.3       0 UNK        -0.1800 
      2 C          -1.2264   -9.8257  -45.0222 C.2       0 UNK         0.5000 
      3 O          -0.3914   -8.9683  -45.3136 O.2       0 UNK        -0.5000 
      4 N          -1.1762  -11.0774  -45.4957 N.am      1 UNK        -0.5000 
      5 CA         -0.1505  -11.6135  -46.4002 C.3       1 UNK         0.1400 
      6 C6         -0.7162  -12.7813  -47.2564 C.3       23 UNK        -0.0398 
      7 S7         -0.1221  -12.7401  -48.9798 S.3       23 UNK        -0.2404 
      8 C8         -1.5467  -13.4604  -49.8607 C.3       23 UNK        -0.0205 
      9 C9         -1.6246  -14.9670  -49.6617 C.ar      23 UNK        -0.0193 
     10 C10        -0.9814  -15.8220  -50.5623 C.ar      23 UNK        -0.1150 
     11 C11        -1.0184  -17.2059  -50.3742 C.ar      23 UNK        -0.0193 
     12 C12        -1.7068  -17.7320  -49.2785 C.ar      23 UNK        -0.1150 
     13 C13        -2.3634  -16.8906  -48.3768 C.ar      23 UNK        -0.0193 
     14 C14        -2.3251  -15.5075  -48.5768 C.ar      23 UNK        -0.1150 
     15 C15        -3.0928  -17.4901  -47.1848 C.3       23 UNK        -0.0205 
     16 S16        -4.5354  -18.4546  -47.7323 S.3       23 UNK        -0.2404 
     17 C17        -4.7937  -19.6133  -46.3508 C.3       23 UNK        -0.0398 
     18 CA         -4.0998  -20.9763  -46.6033 C.3       11 UNK         0.1400 
     19 N          -2.6433  -20.8541  -46.5114 N.am      11 UNK        -0.5000 
     20 C          -1.7482  -21.7494  -46.9440 C.2       10 UNK         0.5000 
     21 O          -2.0464  -22.7827  -47.5421 O.2       10 UNK        -0.5000 
     22 CA         -0.2772  -21.4634  -46.5870 C.3       10 UNK         0.1400 
     23 CB          0.4338  -20.7370  -47.7375 C.3       10 UNK        -0.1800 
     24 N          -0.1359  -20.6711  -45.3609 N.am      10 UNK        -0.5000 
     25 C          -0.4731  -21.0897  -44.1373 C.2       9 UNK         0.5000 
     26 O          -0.9612  -22.1980  -43.9089 O.2       9 UNK        -0.5000 
     27 CA         -0.3187  -20.0814  -42.9915 C.3       9 UNK         0.1400 
     28 CB         -1.6728  -19.4095  -42.7189 C.3       9 UNK        -0.1800 
     29 N           0.1013  -20.7949  -41.7878 N.am      9 UNK        -0.5000 
     30 C           1.3428  -21.0000  -41.3207 C.2       8 UNK         0.5000 
     31 O           1.5420  -21.8155  -40.4215 O.2       8 UNK        -0.5000 
     32 CA          2.5551  -20.1959  -41.8534 C.3       8 UNK         0.1400 
     33 CB          3.0222  -20.6717  -43.2405 C.3       8 UNK        -0.1800 
     34 N           2.3925  -18.7409  -41.8468 N.am      8 UNK        -0.5000 
     35 C           2.1149  -17.9874  -40.7729 C.2       7 UNK         0.5000 
     36 O           1.9607  -18.4348  -39.6362 O.2       7 UNK        -0.5000 
     37 CA          2.0011  -16.4712  -41.0063 C.3       7 UNK         0.1400 
     38 CB          3.3886  -15.8119  -40.9775 C.3       7 UNK        -0.1800 
     39 N           1.3407  -16.1611  -42.2752 N.am      7 UNK        -0.5000 
     40 C           0.0133  -16.0619  -42.4254 C.2       6 UNK         0.5000 
     41 O          -0.7841  -16.2145  -41.5001 O.2       6 UNK        -0.5000 
     42 CA         -0.5288  -15.7158  -43.8258 C.3       6 UNK         0.1400 
     43 CB         -1.1784  -14.3232  -43.8162 C.3       6 UNK        -0.1800 
     44 N           0.5022  -15.7685  -44.8680 N.am      6 UNK        -0.5000 
     45 C           0.7645  -16.8596  -45.5983 C.2       5 UNK         0.5000 
     46 O           0.1414  -17.9154  -45.4916 O.2       5 UNK        -0.5000 
     47 CA          1.9376  -16.7880  -46.5917 C.3       5 UNK         0.1400 
     48 CB          1.5323  -16.0445  -47.8672 C.3       5 UNK        -0.1800 
     49 N           3.1627  -16.1854  -46.0715 N.am      5 UNK        -0.5000 
     50 C           3.8322  -16.5429  -44.9718 C.2       4 UNK         0.5000 
     51 O           3.4103  -17.3630  -44.1561 O.2       4 UNK        -0.5000 
     52 CA          5.2015  -15.8762  -44.7244 C.3       4 UNK         0.1400 
     53 CB          6.3396  -16.7477  -45.2861 C.3       4 UNK        -0.1800 
     54 N           5.3204  -14.4847  -45.1836 N.am      4 UNK        -0.5000 
     55 C           5.3043  -13.9778  -46.4242 C.2       3 UNK         0.5000 
     56 O           5.1527  -14.6597  -47.4389 O.2       3 UNK        -0.5000 
     57 CA          5.4240  -12.4407  -46.5291 C.3       3 UNK         0.1400 
     58 CB          5.4858  -11.9489  -47.9864 C.3       3 UNK        -0.1800 
     59 N           4.3122  -11.7656  -45.8571 N.am      3 UNK        -0.5000 
     60 C           4.1426  -11.6563  -44.5331 C.2       2 UNK         0.5000 
     61 O           4.9691  -12.0564  -43.7112 O.2       2 UNK        -0.5000 
     62 CA          2.8323  -11.0209  -44.0300 C.3       2 UNK         0.1400 
     63 CB          3.0960   -9.6105  -43.4811 C.3       2 UNK        -0.1800 
     64 N           1.7493  -10.9429  -45.0149 N.am      2 UNK        -0.5000 
     65 C           1.1248  -11.9738  -45.5997 C.2       1 UNK         0.5000 
     66 O           1.4824  -13.1461  -45.4674 O.2       1 UNK        -0.5000 
     67 C          -4.6677  -22.0532  -45.6511 C.2       11 UNK         0.5000 
     68 O          -5.7769  -22.5281  -45.8942 O.2       11 UNK        -0.5000 
     69 N          -3.9220  -22.4167  -44.5979 N.am      12 UNK        -0.5000 
     70 CA         -4.3343  -23.3931  -43.5907 C.3       12 UNK         0.1400 
     71 CB         -4.0749  -22.8134  -42.1900 C.3       12 UNK        -0.1800 
     72 C          -3.5937  -24.7267  -43.7689 C.2       12 UNK         0.5000 
     73 O          -4.2338  -25.7783  -43.7770 O.2       12 UNK        -0.5000 
     74 N          -2.2609  -24.6630  -43.8895 N.am      13 UNK        -0.5000 
     75 CA         -1.3767  -25.8256  -43.9305 C.3       13 UNK         0.1400 
     76 CB          0.0619  -25.3781  -43.6231 C.3       13 UNK        -0.1800 
     77 C          -1.4421  -26.5746  -45.2704 C.2       13 UNK         0.5000 
     78 O          -1.5993  -27.7962  -45.2770 O.2       13 UNK        -0.5000 
     79 N          -1.3120  -25.8286  -46.3743 N.am      14 UNK        -0.5000 
     80 CA         -1.2925  -26.3736  -47.7331 C.3       14 UNK         0.1400 
     81 CB         -0.2038  -25.6452  -48.5385 C.3       14 UNK        -0.1800 
     82 C          -2.6521  -26.2461  -48.4406 C.2       14 UNK         0.5000 
     83 O          -2.8931  -26.9749  -49.4033 O.2       14 UNK        -0.5000 
     84 N          -3.4908  -25.3048  -47.9780 N.am      15 UNK        -0.5000 
     85 CA         -4.7214  -24.8236  -48.6188 C.3       15 UNK         0.1400 
     86 CB         -5.8053  -25.9202  -48.6455 C.3       15 UNK        -0.1800 
     87 C          -4.4360  -24.2106  -50.0070 C.2       15 UNK         0.5000 
     88 O          -5.2109  -24.3969  -50.9460 O.2       15 UNK        -0.5000 
     89 N          -3.3011  -23.5041  -50.1116 N.am      16 UNK        -0.5000 
     90 CA         -2.7029  -23.0421  -51.3644 C.3       16 UNK         0.1400 
     91 CB         -1.3372  -22.4128  -51.0586 C.3       16 UNK        -0.1800 
     92 C          -3.5893  -22.0765  -52.1697 C.2       16 UNK         0.5000 
     93 O          -3.6177  -22.1607  -53.3981 O.2       16 UNK        -0.5000 
     94 N          -4.3204  -21.1993  -51.4701 N.am      17 UNK        -0.5000 
     95 CA         -5.2478  -20.2473  -52.0812 C.3       17 UNK         0.1400 
     96 CB         -5.5860  -19.1408  -51.0750 C.3       17 UNK        -0.1800 
     97 C          -6.5268  -20.9229  -52.6080 C.2       17 UNK         0.5000 
     98 O          -7.0456  -20.5040  -53.6422 O.2       17 UNK        -0.5000 
     99 N          -6.9893  -21.9773  -51.9197 N.am      18 UNK        -0.5000 
    100 CA        -8.1281  -22.8014  -52.3353 C.3       18 UNK         0.1400 
    101 CB        -8.6315  -23.6282  -51.1425 C.3       18 UNK        -0.1800 
    102 C         -7.7711  -23.7105  -53.5256 C.2       18 UNK         0.5000 
    103 O         -8.6022  -23.9139  -54.4109 O.2       18 UNK        -0.5000 
    104 N         -6.5217  -24.1952  -53.5485 N.am      19 UNK        -0.5000 
    105 CA        -5.9141  -24.9266  -54.6626 C.3       19 UNK         0.1400 
    106 CB        -4.6436  -25.6253  -54.1524 C.3       19 UNK        -0.1800 
    107 C         -5.5856  -24.0325  -55.8791 C.2       19 UNK         0.5000 
    108 O         -5.2730  -24.5632  -56.9454 O.2       19 UNK        -0.5000 
    109 N         -5.6497  -22.7048  -55.6934 N.am      20 UNK        -0.5000 
    110 CA        -5.3507  -21.6372  -56.6529 C.3       20 UNK         0.1400 
    111 CB        -6.3105  -21.6864  -57.8598 C.3       20 UNK        -0.1800 
    112 C         -3.8643  -21.5790  -57.0641 C.2       20 UNK         0.5000 
    113 O         -3.5418  -21.0748  -58.1413 O.2       20 UNK        -0.5000 
    114 N         -2.9757  -22.0605  -56.1845 N.am      21 UNK        -0.5000 
    115 CA        -1.5230  -22.0276  -56.3596 C.3       21 UNK         0.1400 
    116 CB        -0.8823  -23.0341  -55.3914 C.3       21 UNK        -0.1800 
    117 C         -0.9392  -20.6184  -56.1429 C.2       21 UNK         0.5000 
    118 O          0.1142  -20.3032  -56.6974 O.2       21 UNK        -0.5000 
    119 N         -1.6410  -19.7995  -55.3502 N.am      22 UNK        -0.5000 
    120 CA        -1.2843  -18.4091  -55.0216 C.3       22 UNK         0.1400 
    121 C         -1.6104  -17.3776  -56.1428 C.2       22 UNK         0.5000 
    122 N         -2.2459  -17.7607  -57.2444 N.am      22 UNK        -0.7600 
    123 O         -1.2716  -16.2043  -56.0149 O.2       22 UNK        -0.5000 
    124 C124       -1.8967  -17.9707  -53.6652 C.3       23 UNK        -0.0398 
    125 S125       -1.4571  -19.1171  -52.3165 S.3       23 UNK        -0.2404 
    126 C126       -0.2906  -18.1393  -51.3263 C.3       23 UNK        -0.0205 
    127 H127       -1.9730   -9.1579  -43.1142 H         1 UNK         0.0600 
    128 H128       -3.0219  -10.3393  -43.9032 H         1 UNK         0.0600 
    129 H129       -2.9694   -8.6748  -44.4912 H         1 UNK         0.0600 
    130 H130       -1.8771  -11.7372  -45.1914 H         1 UNK         0.3000 
    131 H131        0.1285  -10.8062  -47.0813 H         1 UNK         0.0600 
    132 H132       -1.8035  -12.7072  -47.2941 H         1 UNK         0.0800 
    133 H133       -0.5148  -13.7646  -46.8313 H         1 UNK         0.0800 
    134 H134       -2.4731  -12.9829  -49.5382 H         1 UNK         0.0800 
    135 H135       -1.4487  -13.2348  -50.9237 H         1 UNK         0.0800 
    136 H136       -0.4370  -15.4075  -51.3991 H         1 UNK         0.1150 
    137 H137       -1.7405  -18.8023  -49.1325 H         1 UNK         0.1150 
    138 H138       -2.8289  -14.8518  -47.8815 H         1 UNK         0.1150 
    139 H139       -3.4199  -16.7134  -46.4921 H         1 UNK         0.0800 
    140 H140       -2.3956  -18.1211  -46.6347 H         1 UNK         0.0800 
    141 H141       -5.8738  -19.7416  -46.2556 H         1 UNK         0.0800 
    142 H142       -4.4599  -19.1631  -45.4143 H         1 UNK         0.0800 
    143 H143       -4.3437  -21.3042  -47.6164 H         1 UNK         0.0600 
    144 H144       -2.2921  -20.0378  -46.0354 H         1 UNK         0.3000 
    145 H145        0.2145  -22.4258  -46.4311 H         1 UNK         0.0600 
    146 H146        0.3367  -21.2887  -48.6731 H         1 UNK         0.0600 
    147 H147        1.4994  -20.6315  -47.5334 H         1 UNK         0.0600 
    148 H148        0.0276  -19.7379  -47.8955 H         1 UNK         0.0600 
    149 H149        0.1579  -19.7017  -45.4767 H         1 UNK         0.3000 
    150 H150        0.3933  -19.3111  -43.2763 H         1 UNK         0.0600 
    151 H151       -2.4572  -20.1387  -42.5123 H         1 UNK         0.0600 
    152 H152       -1.9939  -18.8151  -43.5751 H         1 UNK         0.0600 
    153 H153       -1.6134  -18.7405  -41.8611 H         1 UNK         0.0600 
    154 H154       -0.6273  -21.3640  -41.3845 H         1 UNK         0.3000 
    155 H155        3.3759  -20.4074  -41.1648 H         1 UNK         0.0600 
    156 H156        2.3960  -20.2895  -44.0450 H         1 UNK         0.0600 
    157 H157        3.0228  -21.7605  -43.3075 H         1 UNK         0.0600 
    158 H158        4.0397  -20.3351  -43.4399 H         1 UNK         0.0600 
    159 H159        2.5792  -18.2668  -42.7265 H         1 UNK         0.3000 
    160 H160        1.4185  -16.0476  -40.1851 H         1 UNK         0.0600 
    161 H161        4.0579  -16.2460  -41.7189 H         1 UNK         0.0600 
    162 H162        3.8580  -15.9424  -40.0017 H         1 UNK         0.0600 
    163 H163        3.3235  -14.7402  -41.1668 H         1 UNK         0.0600 
    164 H164        1.9288  -16.0870  -43.0937 H         1 UNK         0.3000 
    165 H165       -1.3157  -16.4382  -44.0513 H         1 UNK         0.0600 
    166 H166       -1.6334  -14.0957  -44.7787 H         1 UNK         0.0600 
    167 H167       -1.9714  -14.2668  -43.0694 H         1 UNK         0.0600 
    168 H168       -0.4556  -13.5422  -43.5806 H         1 UNK         0.0600 
    169 H169        1.0334  -14.9162  -45.0365 H         1 UNK         0.3000 
    170 H170        2.1804  -17.8161  -46.8670 H         1 UNK         0.0600 
    171 H171        0.5831  -16.4166  -48.2444 H         1 UNK         0.0600 
    172 H172        2.2721  -16.1771  -48.6566 H         1 UNK         0.0600 
    173 H173        1.4221  -14.9754  -47.6892 H         1 UNK         0.0600 
    174 H174        3.6278  -15.5218  -46.6831 H         1 UNK         0.3000 
    175 H175        5.3324  -15.8336  -43.6431 H         1 UNK         0.0600 
    176 H176        6.3098  -17.7495  -44.8555 H         1 UNK         0.0600 
    177 H177        6.2729  -16.8582  -46.3688 H         1 UNK         0.0600 
    178 H178        7.3151  -16.3223  -45.0510 H         1 UNK         0.0600 
    179 H179        5.3720  -13.7967  -44.4368 H         1 UNK         0.3000 
    180 H180        6.3570  -12.1528  -46.0401 H         1 UNK         0.0600 
    181 H181        5.6293  -10.8692  -48.0321 H         1 UNK         0.0600 
    182 H182        4.5726  -12.1894  -48.5325 H         1 UNK         0.0600 
    183 H183        6.3192  -12.4084  -48.5193 H         1 UNK         0.0600 
    184 H184        3.5641  -11.4382  -46.4498 H         1 UNK         0.3000 
    185 H185        2.4767  -11.6446  -43.2074 H         1 UNK         0.0600 
    186 H186        3.8692   -9.6254  -42.7117 H         1 UNK         0.0600 
    187 H187        3.4268   -8.9303  -44.2669 H         1 UNK         0.0600 
    188 H188        2.1982   -9.1889  -43.0283 H         1 UNK         0.0600 
    189 H189        1.3367  -10.0255  -45.1504 H         1 UNK         0.3000 
    190 H190       -2.9931  -22.0308  -44.4928 H         1 UNK         0.3000 
    191 H191       -5.4046  -23.5962  -43.6682 H         1 UNK         0.0600 
    192 H192       -4.6363  -21.8916  -42.0371 H         1 UNK         0.0600 
    193 H193       -4.3850  -23.5149  -41.4146 H         1 UNK         0.0600 
    194 H194       -3.0195  -22.5920  -42.0281 H         1 UNK         0.0600 
    195 H195       -1.8021  -23.7540  -43.8642 H         1 UNK         0.3000 
    196 H196       -1.6862  -26.5187  -43.1451 H         1 UNK         0.0600 
    197 H197        0.7453  -26.2282  -43.6262 H         1 UNK         0.0600 
    198 H198        0.1266  -24.9120  -42.6396 H         1 UNK         0.0600 
    199 H199        0.4288  -24.6579  -44.3555 H         1 UNK         0.0600 
    200 H200       -1.1974  -24.8298  -46.2806 H         1 UNK         0.3000 
    201 H201       -1.0349  -27.4347  -47.7125 H         1 UNK         0.0600 
    202 H202       -0.1562  -26.0195  -49.5620 H         1 UNK         0.0600 
    203 H203        0.7798  -25.7945  -48.0930 H         1 UNK         0.0600 
    204 H204       -0.3863  -24.5722  -48.5910 H         1 UNK         0.0600 
    205 H205       -3.1563  -24.7361  -47.2128 H         1 UNK         0.3000 
    206 H206       -5.0945  -24.0088  -48.0001 H         1 UNK         0.0600 
    207 H207       -5.9569  -26.3474  -47.6543 H         1 UNK         0.0600 
    208 H208       -6.7623  -25.5129  -48.9717 H         1 UNK         0.0600 
    209 H209       -5.5482  -26.7319  -49.3264 H         1 UNK         0.0600 
    210 H210       -2.7487  -23.3667  -49.2703 H         1 UNK         0.3000 
    211 H211       -2.5353  -23.9224  -51.9878 H         1 UNK         0.0600 
    212 H212       -1.4343  -21.5475  -50.4019 H         1 UNK         0.0600 
    213 H213       -0.8442  -22.0806  -51.9727 H         1 UNK         0.0600 
    214 H214       -0.6713  -23.1272  -50.5754 H         1 UNK         0.0600 
    215 H215       -4.2321  -21.1832  -50.4655 H         1 UNK         0.3000 
    216 H216       -4.7470  -19.7810  -52.9326 H         1 UNK         0.0600 
    217 H217       -6.0634  -19.5416  -50.1802 H         1 UNK         0.0600 
    218 H218       -6.2667  -18.4091  -51.5117 H         1 UNK         0.0600 
    219 H219       -4.6872  -18.6039  -50.7699 H         1 UNK         0.0600 
    220 H220       -6.4708  -22.2962  -51.1143 H         1 UNK         0.3000 
    221 H221       -8.9362  -22.1381  -52.6512 H         1 UNK         0.0600 
    222 H222       -7.8796  -24.3355  -50.7939 H         1 UNK         0.0600 
    223 H223       -8.9054  -22.9873  -50.3044 H         1 UNK         0.0600 
    224 H224       -9.5173  -24.2029  -51.4156 H         1 UNK         0.0600 
    225 H225       -5.9359  -24.0499  -52.7312 H         1 UNK         0.3000 
    226 H226       -6.6177  -25.6917  -54.9965 H         1 UNK         0.0600 
    227 H227       -4.8634  -26.2795  -53.3083 H         1 UNK         0.0600 
    228 H228       -4.1940  -26.2405  -54.9328 H         1 UNK         0.0600 
    229 H229       -3.8919  -24.9049  -53.8298 H         1 UNK         0.0600 
    230 H230       -5.8941  -22.3877  -54.7657 H         1 UNK         0.3000 
    231 H231       -5.5453  -20.7037  -56.1233 H         1 UNK         0.0600 
    232 H232       -6.1229  -22.5532  -58.4938 H         1 UNK         0.0600 
    233 H233       -6.2007  -20.7982  -58.4830 H         1 UNK         0.0600 
    234 H234       -7.3501  -21.7259  -57.5345 H         1 UNK         0.0600 
    235 H235       -3.3147  -22.3798  -55.2808 H         1 UNK         0.3000 
    236 H236       -1.2873  -22.3353  -57.3805 H         1 UNK         0.0600 
    237 H237       -1.0749  -22.7702  -54.3513 H         1 UNK         0.0600 
    238 H238       -1.2659  -24.0408  -55.5579 H         1 UNK         0.0600 
    239 H239        0.1995  -23.0706  -55.5257 H         1 UNK         0.0600 
    240 H240       -2.4768  -20.1611  -54.9148 H         1 UNK         0.3000 
    241 H241       -0.1993  -18.3732  -54.9058 H         1 UNK         0.0600 
    242 H242       -2.4442  -17.0818  -57.9626 H         1 UNK         0.3800 
    243 H243       -2.5107  -18.7243  -57.3795 H         1 UNK         0.3800 
    244 H244       -2.9849  -17.9315  -53.7338 H         1 UNK         0.0800 
    245 H245       -1.5736  -16.9627  -53.4002 H         1 UNK         0.0800 
    246 H246        0.3306  -18.8217  -50.7445 H         1 UNK         0.0800 
    247 H247        0.3879  -17.5915  -51.9819 H         1 UNK         0.0800 
@<TRIPOS>BOND
     1    1    2 1    
     2    1  127 1    
     3    1  128 1    
     4    1  129 1    
     5    2    3 2    
     6    2    4 am   BACKBONE|DICT|INTERRES
     7    4    5 1    
     8    4  130 1    
     9    5    6 1    
    10    5   65 1    
    11    5  131 1    
    12    6    7 1    
    13    6  132 1    
    14    6  133 1    
    15    7    8 1    
    16    8    9 1    
    17    8  134 1    
    18    8  135 1    
    19    9   10 ar   
    20    9   14 ar   
    21   10   11 ar   
    22   10  136 1    
    23   11   12 ar   
    24   11  126 1    
    25   12   13 ar   
    26   12  137 1    
    27   13   14 ar   
    28   13   15 1    
    29   14  138 1    
    30   15   16 1    
    31   15  139 1    
    32   15  140 1    
    33   16   17 1    
    34   17   18 1    
    35   17  141 1    
    36   17  142 1    
    37   18   19 1    
    38   18   67 1    
    39   18  143 1    
    40   19   20 am   BACKBONE|DICT|INTERRES
    41   19  144 1    
    42   20   21 2    
    43   20   22 1    
    44   22   23 1    
    45   22   24 1    
    46   22  145 1    
    47   23  146 1    
    48   23  147 1    
    49   23  148 1    
    50   24   25 am   BACKBONE|DICT|INTERRES
    51   24  149 1    
    52   25   26 2    
    53   25   27 1    
    54   27   28 1    
    55   27   29 1    
    56   27  150 1    
    57   28  151 1    
    58   28  152 1    
    59   28  153 1    
    60   29   30 am   BACKBONE|DICT|INTERRES
    61   29  154 1    
    62   30   31 2    
    63   30   32 1    
    64   32   33 1    
    65   32   34 1    
    66   32  155 1    
    67   33  156 1    
    68   33  157 1    
    69   33  158 1    
    70   34   35 am   BACKBONE|DICT|INTERRES
    71   34  159 1    
    72   35   36 2    
    73   35   37 1    
    74   37   38 1    
    75   37   39 1    
    76   37  160 1    
    77   38  161 1    
    78   38  162 1    
    79   38  163 1    
    80   39   40 am   BACKBONE|DICT|INTERRES
    81   39  164 1    
    82   40   41 2    
    83   40   42 1    
    84   42   43 1    
    85   42   44 1    
    86   42  165 1    
    87   43  166 1    
    88   43  167 1    
    89   43  168 1    
    90   44   45 am   BACKBONE|DICT|INTERRES
    91   44  169 1    
    92   45   46 2    
    93   45   47 1    
    94   47   48 1    
    95   47   49 1    
    96   47  170 1    
    97   48  171 1    
    98   48  172 1    
    99   48  173 1    
   100   49   50 am   BACKBONE|DICT|INTERRES
   101   49  174 1    
   102   50   51 2    
   103   50   52 1    
   104   52   53 1    
   105   52   54 1    
   106   52  175 1    
   107   53  176 1    
   108   53  177 1    
   109   53  178 1    
   110   54   55 am   BACKBONE|DICT|INTERRES
   111   54  179 1    
   112   55   56 2    
   113   55   57 1    
   114   57   58 1    
   115   57   59 1    
   116   57  180 1    
   117   58  181 1    
   118   58  182 1    
   119   58  183 1    
   120   59   60 am   BACKBONE|DICT|INTERRES
   121   59  184 1    
   122   60   61 2    
   123   60   62 1    
   124   62   63 1    
   125   62   64 1    
   126   62  185 1    
   127   63  186 1    
   128   63  187 1    
   129   63  188 1    
   130   64   65 am   BACKBONE|DICT|INTERRES
   131   64  189 1    
   132   65   66 2    
   133   67   68 2    
   134   67   69 am   BACKBONE|DICT|INTERRES
   135   69   70 1    
   136   69  190 1    
   137   70   71 1    
   138   70   72 1    
   139   70  191 1    
   140   71  192 1    
   141   71  193 1    
   142   71  194 1    
   143   72   73 2    
   144   72   74 am   BACKBONE|DICT|INTERRES
   145   74   75 1    
   146   74  195 1    
   147   75   76 1    
   148   75   77 1    
   149   75  196 1    
   150   76  197 1    
   151   76  198 1    
   152   76  199 1    
   153   77   78 2    
   154   77   79 am   BACKBONE|DICT|INTERRES
   155   79   80 1    
   156   79  200 1    
   157   80   81 1    
   158   80   82 1    
   159   80  201 1    
   160   81  202 1    
   161   81  203 1    
   162   81  204 1    
   163   82   83 2    
   164   82   84 am   BACKBONE|DICT|INTERRES
   165   84   85 1    
   166   84  205 1    
   167   85   86 1    
   168   85   87 1    
   169   85  206 1    
   170   86  207 1    
   171   86  208 1    
   172   86  209 1    
   173   87   88 2    
   174   87   89 am   BACKBONE|DICT|INTERRES
   175   89   90 1    
   176   89  210 1    
   177   90   91 1    
   178   90   92 1    
   179   90  211 1    
   180   91  212 1    
   181   91  213 1    
   182   91  214 1    
   183   92   93 2    
   184   92   94 am   BACKBONE|DICT|INTERRES
   185   94   95 1    
   186   94  215 1    
   187   95   96 1    
   188   95   97 1    
   189   95  216 1    
   190   96  217 1    
   191   96  218 1    
   192   96  219 1    
   193   97   98 2    
   194   97   99 am   BACKBONE|DICT|INTERRES
   195   99  100 1    
   196   99  220 1    
   197  100  101 1    
   198  100  102 1    
   199  100  221 1    
   200  101  222 1    
   201  101  223 1    
   202  101  224 1    
   203  102  103 2    
   204  102  104 am   BACKBONE|DICT|INTERRES
   205  104  105 1    
   206  104  225 1    
   207  105  106 1    
   208  105  107 1    
   209  105  226 1    
   210  106  227 1    
   211  106  228 1    
   212  106  229 1    
   213  107  108 2    
   214  107  109 am   BACKBONE|DICT|INTERRES
   215  109  110 1    
   216  109  230 1    
   217  110  111 1    
   218  110  112 1    
   219  110  231 1    
   220  111  232 1    
   221  111  233 1    
   222  111  234 1    
   223  112  113 2    
   224  112  114 am   BACKBONE|DICT|INTERRES
   225  114  115 1    
   226  114  235 1    
   227  115  116 1    
   228  115  117 1    
   229  115  236 1    
   230  116  237 1    
   231  116  238 1    
   232  116  239 1    
   233  117  118 2    
   234  117  119 am   BACKBONE|DICT|INTERRES
   235  119  120 1    
   236  119  240 1    
   237  120  121 1    
   238  120  124 1    
   239  120  241 1    
   240  121  122 am   BACKBONE|DICT|INTERRES
   241  121  123 2    
   242  122  242 1    
   243  122  243 1    
   244  124  125 1    
   245  124  244 1    
   246  124  245 1    
   247  125  126 1    
   248  126  246 1    
   249  126  247 1    
@<TRIPOS>SUBSTRUCTURE
     1 UNK         1 GROUP             0       ****    0 ROOT    
