@<TRIPOS>MOLECULE
3R540
247   249    1
SMALL
USER_CHARGES


@<TRIPOS>ATOM
      1 CA          2.6321  -12.6547  -43.1251 C.3       0 UNK        -0.1800 
      2 C           2.5526  -12.3345  -44.6118 C.2       0 UNK         0.5000 
      3 O           1.6571  -11.6085  -45.0407 O.2       0 UNK        -0.5000 
      4 N           3.4911  -12.8797  -45.3930 N.am      1 UNK        -0.5000 
      5 CA          3.6247  -12.6803  -46.8397 C.3       1 UNK         0.1400 
      6 C6          4.7042  -13.6305  -47.4146 C.3       23 UNK        -0.0398 
      7 S7          4.0523  -15.3237  -47.6059 S.3       23 UNK        -0.2404 
      8 C8          4.4354  -15.6177  -49.3576 C.3       23 UNK        -0.0205 
      9 C9          3.8205  -16.9075  -49.8736 C.ar      23 UNK        -0.0193 
     10 C10         2.7504  -16.8620  -50.7707 C.ar      23 UNK        -0.1150 
     11 C11         2.2309  -18.0383  -51.3159 C.ar      23 UNK        -0.0193 
     12 C12         2.7782  -19.2700  -50.9446 C.ar      23 UNK        -0.1150 
     13 C13         3.8364  -19.3298  -50.0323 C.ar      23 UNK        -0.0193 
     14 C14         4.3543  -18.1446  -49.5014 C.ar      23 UNK        -0.1150 
     15 C15         4.4472  -20.6694  -49.6478 C.3       23 UNK        -0.0205 
     16 S16         3.6879  -21.3591  -48.1453 S.3       23 UNK        -0.2404 
     17 C17         2.0392  -21.8228  -48.7676 C.3       23 UNK        -0.0398 
     18 CA          1.3389  -22.8629  -47.8640 C.3       11 UNK         0.1400 
     19 N           1.0989  -22.3567  -46.5095 N.am      11 UNK        -0.5000 
     20 C           0.7512  -23.1192  -45.4644 C.2       10 UNK         0.5000 
     21 O           0.6515  -24.3458  -45.5169 O.2       10 UNK        -0.5000 
     22 CA          0.4136  -22.3807  -44.1546 C.3       10 UNK         0.1400 
     23 CB          1.6930  -22.0279  -43.3819 C.3       10 UNK        -0.1800 
     24 N          -0.3740  -21.1659  -44.3770 N.am      10 UNK        -0.5000 
     25 C          -1.6099  -21.1513  -44.8960 C.2       9 UNK         0.5000 
     26 O          -2.2364  -22.1684  -45.1822 O.2       9 UNK        -0.5000 
     27 CA         -2.2418  -19.7801  -45.1923 C.3       9 UNK         0.1400 
     28 CB         -2.9692  -19.2424  -43.9530 C.3       9 UNK        -0.1800 
     29 N          -1.2777  -18.7921  -45.6751 N.am      9 UNK        -0.5000 
     30 C          -0.5501  -18.9074  -46.7959 C.2       8 UNK         0.5000 
     31 O          -0.6255  -19.8683  -47.5610 O.2       8 UNK        -0.5000 
     32 CA          0.4648  -17.7879  -47.0806 C.3       8 UNK         0.1400 
     33 CB         -0.2125  -16.5968  -47.7707 C.3       8 UNK        -0.1800 
     34 N           1.1124  -17.3326  -45.8519 N.am      8 UNK        -0.5000 
     35 C           2.0506  -18.0273  -45.1950 C.2       7 UNK         0.5000 
     36 O           2.5032  -19.1039  -45.5824 O.2       7 UNK        -0.5000 
     37 CA          2.5278  -17.4400  -43.8531 C.3       7 UNK         0.1400 
     38 CB          3.5593  -16.3268  -44.0792 C.3       7 UNK        -0.1800 
     39 N           1.4283  -16.9205  -43.0366 N.am      7 UNK        -0.5000 
     40 C           0.4715  -17.6835  -42.4916 C.2       6 UNK         0.5000 
     41 O           0.4198  -18.9065  -42.6191 O.2       6 UNK        -0.5000 
     42 CA         -0.6275  -16.9608  -41.6871 C.3       6 UNK         0.1400 
     43 CB         -0.1688  -16.7496  -40.2363 C.3       6 UNK        -0.1800 
     44 N          -1.0815  -15.6768  -42.2358 N.am      6 UNK        -0.5000 
     45 C          -1.4778  -15.4379  -43.4943 C.2       5 UNK         0.5000 
     46 O          -1.3881  -16.2644  -44.4043 O.2       5 UNK        -0.5000 
     47 CA         -2.0801  -14.0463  -43.7718 C.3       5 UNK         0.1400 
     48 CB         -1.2215  -12.9098  -43.1923 C.3       5 UNK        -0.1800 
     49 N          -2.2140  -13.8247  -45.2079 N.am      5 UNK        -0.5000 
     50 C          -3.3130  -14.0225  -45.9411 C.2       4 UNK         0.5000 
     51 O          -4.3942  -14.3674  -45.4611 O.2       4 UNK        -0.5000 
     52 CA         -3.1810  -13.7635  -47.4623 C.3       4 UNK         0.1400 
     53 CB         -4.5471  -13.7279  -48.1720 C.3       4 UNK        -0.1800 
     54 N          -2.4636  -12.5217  -47.7785 N.am      4 UNK        -0.5000 
     55 C          -1.1426  -12.3220  -47.6809 C.2       3 UNK         0.5000 
     56 O          -0.3529  -13.1828  -47.2849 O.2       3 UNK        -0.5000 
     57 CA         -0.6435  -10.9055  -48.0310 C.3       3 UNK         0.1400 
     58 CB         -0.9453   -9.9274  -46.8840 C.3       3 UNK        -0.1800 
     59 N           0.7927  -10.8727  -48.3123 N.am      3 UNK        -0.5000 
     60 C           1.3670  -11.4247  -49.3893 C.2       2 UNK         0.5000 
     61 O           0.7269  -11.9518  -50.3000 O.2       2 UNK        -0.5000 
     62 CA          2.9067  -11.3815  -49.4866 C.3       2 UNK         0.1400 
     63 CB          3.3482  -10.6955  -50.7901 C.3       2 UNK        -0.1800 
     64 N           3.5638  -10.6945  -48.3666 N.am      2 UNK        -0.5000 
     65 C           3.9431  -11.2027  -47.1840 C.2       1 UNK         0.5000 
     66 O           4.5656  -10.5148  -46.3732 O.2       1 UNK        -0.5000 
     67 C           0.0271  -23.3443  -48.5140 C.2       11 UNK         0.5000 
     68 O           0.0073  -24.3989  -49.1491 O.2       11 UNK        -0.5000 
     69 N          -1.0545  -22.5775  -48.3249 N.am      12 UNK        -0.5000 
     70 CA         -2.3941  -22.9077  -48.8024 C.3       12 UNK         0.1400 
     71 CB         -3.3276  -21.7190  -48.5830 C.3       12 UNK        -0.1800 
     72 C          -2.9755  -24.1725  -48.1528 C.2       12 UNK         0.5000 
     73 O          -3.6108  -24.9579  -48.8500 O.2       12 UNK        -0.5000 
     74 N          -2.7170  -24.3808  -46.8554 N.am      13 UNK        -0.5000 
     75 CA         -3.1146  -25.5767  -46.1112 C.3       13 UNK         0.1400 
     76 CB         -2.7908  -25.3920  -44.6213 C.3       13 UNK        -0.1800 
     77 C          -2.4652  -26.8618  -46.6562 C.2       13 UNK         0.5000 
     78 O          -3.1334  -27.8935  -46.7243 O.2       13 UNK        -0.5000 
     79 N          -1.1972  -26.7656  -47.0818 N.am      14 UNK        -0.5000 
     80 CA         -0.4686  -27.8446  -47.7521 C.3       14 UNK         0.1400 
     81 CB          1.0303  -27.5094  -47.7805 C.3       14 UNK        -0.1800 
     82 C          -1.0007  -28.1225  -49.1726 C.2       14 UNK         0.5000 
     83 O          -1.0346  -29.2793  -49.5930 O.2       14 UNK        -0.5000 
     84 N          -1.4311  -27.0640  -49.8731 N.am      15 UNK        -0.5000 
     85 CA         -2.0564  -27.1285  -51.1974 C.3       15 UNK         0.1400 
     86 CB         -1.9248  -25.7520  -51.8702 C.3       15 UNK        -0.1800 
     87 C          -3.5367  -27.5703  -51.1643 C.2       15 UNK         0.5000 
     88 O          -4.0861  -27.8920  -52.2185 O.2       15 UNK        -0.5000 
     89 N          -4.1511  -27.5593  -49.9718 N.am      16 UNK        -0.5000 
     90 CA         -5.5722  -27.7771  -49.6814 C.3       16 UNK         0.1400 
     91 CB         -6.0007  -29.2168  -50.0346 C.3       16 UNK        -0.1800 
     92 C          -6.4710  -26.6912  -50.3144 C.2       16 UNK         0.5000 
     93 O          -7.5011  -27.0044  -50.9149 O.2       16 UNK        -0.5000 
     94 N          -6.0481  -25.4305  -50.1730 N.am      17 UNK        -0.5000 
     95 CA         -6.6918  -24.2343  -50.7097 C.3       17 UNK         0.1400 
     96 CB         -5.7781  -23.6629  -51.8076 C.3       17 UNK        -0.1800 
     97 C          -6.9206  -23.1923  -49.5987 C.2       17 UNK         0.5000 
     98 O          -6.4529  -23.3672  -48.4707 O.2       17 UNK        -0.5000 
     99 N          -7.6259  -22.1080  -49.9466 N.am      18 UNK        -0.5000 
    100 CA        -7.7598  -20.9020  -49.1250 C.3       18 UNK         0.1400 
    101 CB        -8.9642  -20.0927  -49.6300 C.3       18 UNK        -0.1800 
    102 C         -6.4798  -20.0487  -49.2004 C.2       18 UNK         0.5000 
    103 O         -5.7670  -20.1191  -50.2021 O.2       18 UNK        -0.5000 
    104 N         -6.2229  -19.2314  -48.1687 N.am      19 UNK        -0.5000 
    105 CA        -5.0006  -18.4283  -48.0019 C.3       19 UNK         0.1400 
    106 CB        -5.0703  -17.6716  -46.6677 C.3       19 UNK        -0.1800 
    107 C         -4.6859  -17.4527  -49.1537 C.2       19 UNK         0.5000 
    108 O         -3.5155  -17.1701  -49.4035 O.2       19 UNK        -0.5000 
    109 N         -5.7290  -16.9734  -49.8433 N.am      20 UNK        -0.5000 
    110 CA        -5.6240  -16.1149  -51.0251 C.3       20 UNK         0.1400 
    111 CB        -6.9446  -15.3463  -51.1875 C.3       20 UNK        -0.1800 
    112 C         -5.2793  -16.8843  -52.3189 C.2       20 UNK         0.5000 
    113 O         -4.9475  -16.2509  -53.3213 O.2       20 UNK        -0.5000 
    114 N         -5.3682  -18.2194  -52.2852 N.am      21 UNK        -0.5000 
    115 CA        -5.0994  -19.1357  -53.3917 C.3       21 UNK         0.1400 
    116 CB        -6.4045  -19.8724  -53.7458 C.3       21 UNK        -0.1800 
    117 C         -3.9557  -20.0990  -53.0170 C.2       21 UNK         0.5000 
    118 O         -3.9897  -21.2743  -53.3845 O.2       21 UNK        -0.5000 
    119 N         -2.9696  -19.5792  -52.2757 N.am      22 UNK        -0.5000 
    120 CA        -1.7540  -20.2719  -51.8287 C.3       22 UNK         0.1400 
    121 C         -0.8993  -20.8984  -52.9691 C.2       22 UNK         0.5000 
    122 N         -0.1685  -21.9690  -52.6831 N.am      22 UNK        -0.7600 
    123 O         -0.8574  -20.4062  -54.0946 O.2       22 UNK        -0.5000 
    124 C124       -0.9008  -19.3605  -50.9052 C.3       23 UNK        -0.0398 
    125 S125       -0.5192  -17.7118  -51.6007 S.3       23 UNK        -0.2404 
    126 C126        1.1195  -17.9662  -52.3503 C.3       23 UNK        -0.0205 
    127 H127        1.9864  -13.4983  -42.8835 H         1 UNK         0.0600 
    128 H128        2.3117  -11.7965  -42.5342 H         1 UNK         0.0600 
    129 H129        3.6496  -12.9080  -42.8264 H         1 UNK         0.0600 
    130 H130        4.2118  -13.4441  -44.9688 H         1 UNK         0.3000 
    131 H131        2.6556  -12.9298  -47.2746 H         1 UNK         0.0600 
    132 H132        5.5835  -13.6599  -46.7689 H         1 UNK         0.0800 
    133 H133        5.0719  -13.2810  -48.3805 H         1 UNK         0.0800 
    134 H134        4.0833  -14.7737  -49.9525 H         1 UNK         0.0800 
    135 H135        5.5181  -15.6561  -49.4873 H         1 UNK         0.0800 
    136 H136        2.3357  -15.9090  -51.0685 H         1 UNK         0.1150 
    137 H137        2.3892  -20.1813  -51.3764 H         1 UNK         0.1150 
    138 H138        5.1822  -18.1827  -48.8072 H         1 UNK         0.1150 
    139 H139        4.3575  -21.3817  -50.4694 H         1 UNK         0.0800 
    140 H140        5.5171  -20.5465  -49.4728 H         1 UNK         0.0800 
    141 H141        2.1541  -22.2201  -49.7778 H         1 UNK         0.0800 
    142 H142        1.4399  -20.9158  -48.8553 H         1 UNK         0.0800 
    143 H143        1.9939  -23.7334  -47.7838 H         1 UNK         0.0600 
    144 H144        1.1613  -21.3553  -46.3846 H         1 UNK         0.3000 
    145 H145       -0.1818  -23.0566  -43.5373 H         1 UNK         0.0600 
    146 H146        1.4586  -21.5780  -42.4170 H         1 UNK         0.0600 
    147 H147        2.2917  -22.9190  -43.1891 H         1 UNK         0.0600 
    148 H148        2.3170  -21.3252  -43.9351 H         1 UNK         0.0600 
    149 H149        0.0484  -20.2871  -44.0966 H         1 UNK         0.3000 
    150 H150       -2.9819  -19.9169  -45.9806 H         1 UNK         0.0600 
    151 H151       -3.8013  -19.8929  -43.6814 H         1 UNK         0.0600 
    152 H152       -3.3760  -18.2460  -44.1256 H         1 UNK         0.0600 
    153 H153       -2.3045  -19.1915  -43.0926 H         1 UNK         0.0600 
    154 H154       -1.1868  -17.9389  -45.1275 H         1 UNK         0.3000 
    155 H155        1.2264  -18.1849  -47.7564 H         1 UNK         0.0600 
    156 H156        0.5191  -15.8419  -48.0604 H         1 UNK         0.0600 
    157 H157       -0.7321  -16.9111  -48.6761 H         1 UNK         0.0600 
    158 H158       -0.9464  -16.1213  -47.1205 H         1 UNK         0.0600 
    159 H159        0.7373  -16.4960  -45.4280 H         1 UNK         0.3000 
    160 H160        3.0129  -18.2430  -43.2938 H         1 UNK         0.0600 
    161 H161        3.1218  -15.4909  -44.6231 H         1 UNK         0.0600 
    162 H162        4.4056  -16.6915  -44.6629 H         1 UNK         0.0600 
    163 H163        3.9516  -15.9494  -43.1348 H         1 UNK         0.0600 
    164 H164        1.3914  -15.9237  -42.8891 H         1 UNK         0.3000 
    165 H165       -1.4975  -17.6175  -41.6641 H         1 UNK         0.0600 
    166 H166       -0.9782  -16.3614  -39.6178 H         1 UNK         0.0600 
    167 H167        0.1571  -17.6892  -39.7876 H         1 UNK         0.0600 
    168 H168        0.6660  -16.0501  -40.1760 H         1 UNK         0.0600 
    169 H169       -1.1825  -14.9316  -41.5623 H         1 UNK         0.3000 
    170 H170       -3.0622  -14.0128  -43.2964 H         1 UNK         0.0600 
    171 H171       -1.1486  -12.9648  -42.1060 H         1 UNK         0.0600 
    172 H172       -0.2122  -12.9344  -43.5975 H         1 UNK         0.0600 
    173 H173       -1.6478  -11.9357  -43.4333 H         1 UNK         0.0600 
    174 H174       -1.3602  -13.6019  -45.7117 H         1 UNK         0.3000 
    175 H175       -2.6180  -14.6005  -47.8794 H         1 UNK         0.0600 
    176 H176       -5.0950  -14.6583  -48.0208 H         1 UNK         0.0600 
    177 H177       -5.1723  -12.9156  -47.7997 H         1 UNK         0.0600 
    178 H178       -4.4292  -13.5946  -49.2471 H         1 UNK         0.0600 
    179 H179       -3.0437  -11.7479  -48.0686 H         1 UNK         0.3000 
    180 H180       -1.1728  -10.5675  -48.9244 H         1 UNK         0.0600 
    181 H181       -0.4567  -10.2302  -45.9574 H         1 UNK         0.0600 
    182 H182       -2.0159   -9.8720  -46.6839 H         1 UNK         0.0600 
    183 H183       -0.6101   -8.9187  -47.1259 H         1 UNK         0.0600 
    184 H184        1.3831  -10.4947  -47.5856 H         1 UNK         0.3000 
    185 H185        3.2458  -12.4160  -49.5374 H         1 UNK         0.0600 
    186 H186        4.4333  -10.7087  -50.8949 H         1 UNK         0.0600 
    187 H187        2.9363  -11.2027  -51.6636 H         1 UNK         0.0600 
    188 H188        3.0195   -9.6562  -50.8290 H         1 UNK         0.0600 
    189 H189        3.7754   -9.7226  -48.5396 H         1 UNK         0.3000 
    190 H190       -0.9478  -21.6924  -47.8346 H         1 UNK         0.3000 
    191 H191       -2.3254  -23.0887  -49.8762 H         1 UNK         0.0600 
    192 H192       -3.5406  -21.5579  -47.5272 H         1 UNK         0.0600 
    193 H193       -4.2752  -21.9044  -49.0822 H         1 UNK         0.0600 
    194 H194       -2.9160  -20.7994  -48.9947 H         1 UNK         0.0600 
    195 H195       -2.2705  -23.6396  -46.3207 H         1 UNK         0.3000 
    196 H196       -4.1965  -25.6844  -46.2132 H         1 UNK         0.0600 
    197 H197       -3.0832  -26.2708  -44.0452 H         1 UNK         0.0600 
    198 H198       -3.3264  -24.5386  -44.2052 H         1 UNK         0.0600 
    199 H199       -1.7252  -25.2302  -44.4574 H         1 UNK         0.0600 
    200 H200       -0.7175  -25.8805  -46.9824 H         1 UNK         0.3000 
    201 H201       -0.5984  -28.7564  -47.1652 H         1 UNK         0.0600 
    202 H202        1.4179  -27.3506  -46.7740 H         1 UNK         0.0600 
    203 H203        1.2347  -26.6109  -48.3625 H         1 UNK         0.0600 
    204 H204        1.6025  -28.3243  -48.2254 H         1 UNK         0.0600 
    205 H205       -1.3206  -26.1418  -49.4693 H         1 UNK         0.3000 
    206 H206       -1.5108  -27.8551  -51.8028 H         1 UNK         0.0600 
    207 H207       -2.5002  -24.9905  -51.3446 H         1 UNK         0.0600 
    208 H208       -2.2907  -25.7829  -52.8972 H         1 UNK         0.0600 
    209 H209       -0.8856  -25.4242  -51.9049 H         1 UNK         0.0600 
    210 H210       -3.6070  -27.2119  -49.1931 H         1 UNK         0.3000 
    211 H211       -5.6769  -27.6626  -48.6015 H         1 UNK         0.0600 
    212 H212       -5.9817  -29.3969  -51.1096 H         1 UNK         0.0600 
    213 H213       -7.0158  -29.4156  -49.6894 H         1 UNK         0.0600 
    214 H214       -5.3476  -29.9490  -49.5597 H         1 UNK         0.0600 
    215 H215       -5.2055  -25.2563  -49.6259 H         1 UNK         0.3000 
    216 H216       -7.6633  -24.4814  -51.1421 H         1 UNK         0.0600 
    217 H217       -4.8159  -23.3445  -51.4032 H         1 UNK         0.0600 
    218 H218       -6.2296  -22.7981  -52.2935 H         1 UNK         0.0600 
    219 H219       -5.5831  -24.4028  -52.5841 H         1 UNK         0.0600 
    220 H220       -7.9461  -22.0267  -50.9000 H         1 UNK         0.3000 
    221 H221       -7.9343  -21.1914  -48.0866 H         1 UNK         0.0600 
    222 H222       -9.8814  -20.6802  -49.5821 H         1 UNK         0.0600 
    223 H223       -8.8276  -19.7678  -50.6625 H         1 UNK         0.0600 
    224 H224       -9.1205  -19.2000  -49.0230 H         1 UNK         0.0600 
    225 H225       -6.8746  -19.2083  -47.3976 H         1 UNK         0.3000 
    226 H226       -4.1629  -19.1221  -47.9442 H         1 UNK         0.0600 
    227 H227       -5.2295  -18.3537  -45.8329 H         1 UNK         0.0600 
    228 H228       -4.1393  -17.1361  -46.4742 H         1 UNK         0.0600 
    229 H229       -5.8778  -16.9384  -46.6612 H         1 UNK         0.0600 
    230 H230       -6.6574  -17.2615  -49.5717 H         1 UNK         0.3000 
    231 H231       -4.8256  -15.3884  -50.8621 H         1 UNK         0.0600 
    232 H232       -7.7852  -16.0215  -51.3522 H         1 UNK         0.0600 
    233 H233       -6.8997  -14.6642  -52.0375 H         1 UNK         0.0600 
    234 H234       -7.1622  -14.7463  -50.3035 H         1 UNK         0.0600 
    235 H235       -5.5831  -18.6815  -51.4049 H         1 UNK         0.3000 
    236 H236       -4.7673  -18.5868  -54.2749 H         1 UNK         0.0600 
    237 H237       -7.1879  -19.1689  -54.0275 H         1 UNK         0.0600 
    238 H238       -6.2605  -20.5506  -54.5876 H         1 UNK         0.0600 
    239 H239       -6.7711  -20.4605  -52.9040 H         1 UNK         0.0600 
    240 H240       -3.0237  -18.6012  -52.0307 H         1 UNK         0.3000 
    241 H241       -2.1060  -21.1089  -51.2261 H         1 UNK         0.0600 
    242 H242        0.3943  -22.3750  -53.4143 H         1 UNK         0.3800 
    243 H243       -0.1937  -22.4116  -51.7797 H         1 UNK         0.3800 
    244 H244        0.0147  -19.8599  -50.5892 H         1 UNK         0.0800 
    245 H245       -1.4574  -19.1794  -49.9857 H         1 UNK         0.0800 
    246 H246        1.1163  -18.8605  -52.9727 H         1 UNK         0.0800 
    247 H247        1.3187  -17.1357  -53.0290 H         1 UNK         0.0800 
@<TRIPOS>BOND
     1    1    2 1    
     2    1  127 1    
     3    1  128 1    
     4    1  129 1    
     5    2    3 2    
     6    2    4 am   BACKBONE|DICT|INTERRES
     7    4    5 1    
     8    4  130 1    
     9    5    6 1    
    10    5   65 1    
    11    5  131 1    
    12    6    7 1    
    13    6  132 1    
    14    6  133 1    
    15    7    8 1    
    16    8    9 1    
    17    8  134 1    
    18    8  135 1    
    19    9   10 ar   
    20    9   14 ar   
    21   10   11 ar   
    22   10  136 1    
    23   11   12 ar   
    24   11  126 1    
    25   12   13 ar   
    26   12  137 1    
    27   13   14 ar   
    28   13   15 1    
    29   14  138 1    
    30   15   16 1    
    31   15  139 1    
    32   15  140 1    
    33   16   17 1    
    34   17   18 1    
    35   17  141 1    
    36   17  142 1    
    37   18   19 1    
    38   18   67 1    
    39   18  143 1    
    40   19   20 am   BACKBONE|DICT|INTERRES
    41   19  144 1    
    42   20   21 2    
    43   20   22 1    
    44   22   23 1    
    45   22   24 1    
    46   22  145 1    
    47   23  146 1    
    48   23  147 1    
    49   23  148 1    
    50   24   25 am   BACKBONE|DICT|INTERRES
    51   24  149 1    
    52   25   26 2    
    53   25   27 1    
    54   27   28 1    
    55   27   29 1    
    56   27  150 1    
    57   28  151 1    
    58   28  152 1    
    59   28  153 1    
    60   29   30 am   BACKBONE|DICT|INTERRES
    61   29  154 1    
    62   30   31 2    
    63   30   32 1    
    64   32   33 1    
    65   32   34 1    
    66   32  155 1    
    67   33  156 1    
    68   33  157 1    
    69   33  158 1    
    70   34   35 am   BACKBONE|DICT|INTERRES
    71   34  159 1    
    72   35   36 2    
    73   35   37 1    
    74   37   38 1    
    75   37   39 1    
    76   37  160 1    
    77   38  161 1    
    78   38  162 1    
    79   38  163 1    
    80   39   40 am   BACKBONE|DICT|INTERRES
    81   39  164 1    
    82   40   41 2    
    83   40   42 1    
    84   42   43 1    
    85   42   44 1    
    86   42  165 1    
    87   43  166 1    
    88   43  167 1    
    89   43  168 1    
    90   44   45 am   BACKBONE|DICT|INTERRES
    91   44  169 1    
    92   45   46 2    
    93   45   47 1    
    94   47   48 1    
    95   47   49 1    
    96   47  170 1    
    97   48  171 1    
    98   48  172 1    
    99   48  173 1    
   100   49   50 am   BACKBONE|DICT|INTERRES
   101   49  174 1    
   102   50   51 2    
   103   50   52 1    
   104   52   53 1    
   105   52   54 1    
   106   52  175 1    
   107   53  176 1    
   108   53  177 1    
   109   53  178 1    
   110   54   55 am   BACKBONE|DICT|INTERRES
   111   54  179 1    
   112   55   56 2    
   113   55   57 1    
   114   57   58 1    
   115   57   59 1    
   116   57  180 1    
   117   58  181 1    
   118   58  182 1    
   119   58  183 1    
   120   59   60 am   BACKBONE|DICT|INTERRES
   121   59  184 1    
   122   60   61 2    
   123   60   62 1    
   124   62   63 1    
   125   62   64 1    
   126   62  185 1    
   127   63  186 1    
   128   63  187 1    
   129   63  188 1    
   130   64   65 am   BACKBONE|DICT|INTERRES
   131   64  189 1    
   132   65   66 2    
   133   67   68 2    
   134   67   69 am   BACKBONE|DICT|INTERRES
   135   69   70 1    
   136   69  190 1    
   137   70   71 1    
   138   70   72 1    
   139   70  191 1    
   140   71  192 1    
   141   71  193 1    
   142   71  194 1    
   143   72   73 2    
   144   72   74 am   BACKBONE|DICT|INTERRES
   145   74   75 1    
   146   74  195 1    
   147   75   76 1    
   148   75   77 1    
   149   75  196 1    
   150   76  197 1    
   151   76  198 1    
   152   76  199 1    
   153   77   78 2    
   154   77   79 am   BACKBONE|DICT|INTERRES
   155   79   80 1    
   156   79  200 1    
   157   80   81 1    
   158   80   82 1    
   159   80  201 1    
   160   81  202 1    
   161   81  203 1    
   162   81  204 1    
   163   82   83 2    
   164   82   84 am   BACKBONE|DICT|INTERRES
   165   84   85 1    
   166   84  205 1    
   167   85   86 1    
   168   85   87 1    
   169   85  206 1    
   170   86  207 1    
   171   86  208 1    
   172   86  209 1    
   173   87   88 2    
   174   87   89 am   BACKBONE|DICT|INTERRES
   175   89   90 1    
   176   89  210 1    
   177   90   91 1    
   178   90   92 1    
   179   90  211 1    
   180   91  212 1    
   181   91  213 1    
   182   91  214 1    
   183   92   93 2    
   184   92   94 am   BACKBONE|DICT|INTERRES
   185   94   95 1    
   186   94  215 1    
   187   95   96 1    
   188   95   97 1    
   189   95  216 1    
   190   96  217 1    
   191   96  218 1    
   192   96  219 1    
   193   97   98 2    
   194   97   99 am   BACKBONE|DICT|INTERRES
   195   99  100 1    
   196   99  220 1    
   197  100  101 1    
   198  100  102 1    
   199  100  221 1    
   200  101  222 1    
   201  101  223 1    
   202  101  224 1    
   203  102  103 2    
   204  102  104 am   BACKBONE|DICT|INTERRES
   205  104  105 1    
   206  104  225 1    
   207  105  106 1    
   208  105  107 1    
   209  105  226 1    
   210  106  227 1    
   211  106  228 1    
   212  106  229 1    
   213  107  108 2    
   214  107  109 am   BACKBONE|DICT|INTERRES
   215  109  110 1    
   216  109  230 1    
   217  110  111 1    
   218  110  112 1    
   219  110  231 1    
   220  111  232 1    
   221  111  233 1    
   222  111  234 1    
   223  112  113 2    
   224  112  114 am   BACKBONE|DICT|INTERRES
   225  114  115 1    
   226  114  235 1    
   227  115  116 1    
   228  115  117 1    
   229  115  236 1    
   230  116  237 1    
   231  116  238 1    
   232  116  239 1    
   233  117  118 2    
   234  117  119 am   BACKBONE|DICT|INTERRES
   235  119  120 1    
   236  119  240 1    
   237  120  121 1    
   238  120  124 1    
   239  120  241 1    
   240  121  122 am   BACKBONE|DICT|INTERRES
   241  121  123 2    
   242  122  242 1    
   243  122  243 1    
   244  124  125 1    
   245  124  244 1    
   246  124  245 1    
   247  125  126 1    
   248  126  246 1    
   249  126  247 1    
@<TRIPOS>SUBSTRUCTURE
     1 UNK         1 GROUP             0       ****    0 ROOT    
