@<TRIPOS>MOLECULE
3R540
247   249    1
SMALL
USER_CHARGES


@<TRIPOS>ATOM
      1 CA         -1.6297  -12.9514  -48.9396 C.3       0 UNK        -0.1800 
      2 C          -0.4295  -13.0819  -48.0145 C.2       0 UNK         0.5000 
      3 O          -0.5135  -12.7187  -46.8427 O.2       0 UNK        -0.5000 
      4 N           0.6823  -13.6236  -48.5259 N.am      1 UNK        -0.5000 
      5 CA          1.9441  -13.8508  -47.8075 C.3       1 UNK         0.1400 
      6 C6          3.1038  -14.2808  -48.7512 C.3       23 UNK        -0.0398 
      7 S7          2.6313  -15.3312  -50.1753 S.3       23 UNK        -0.2404 
      8 C8          2.7693  -17.0096  -49.4759 C.3       23 UNK        -0.0205 
      9 C9          1.4795  -17.8292  -49.5065 C.ar      23 UNK        -0.0193 
     10 C10         0.2110  -17.2323  -49.5034 C.ar      23 UNK        -0.1150 
     11 C11        -0.9474  -18.0115  -49.4926 C.ar      23 UNK        -0.0193 
     12 C12        -0.8329  -19.4027  -49.4891 C.ar      23 UNK        -0.1150 
     13 C13         0.4200  -20.0183  -49.4952 C.ar      23 UNK        -0.0193 
     14 C14         1.5710  -19.2254  -49.5034 C.ar      23 UNK        -0.1150 
     15 C15         0.5154  -21.5383  -49.5201 C.3       23 UNK        -0.0205 
     16 S16         1.3960  -22.2615  -48.0929 S.3       23 UNK        -0.2404 
     17 C17         0.6443  -21.4608  -46.6335 C.3       23 UNK        -0.0398 
     18 CA         -0.6506  -22.1466  -46.1219 C.3       11 UNK         0.1400 
     19 N          -0.6839  -22.2485  -44.6594 N.am      11 UNK        -0.5000 
     20 C          -1.5718  -22.9776  -43.9635 C.2       10 UNK         0.5000 
     21 O          -2.4409  -23.6720  -44.4916 O.2       10 UNK        -0.5000 
     22 CA         -1.5166  -22.8845  -42.4250 C.3       10 UNK         0.1400 
     23 CB         -0.7299  -24.0702  -41.8468 C.3       10 UNK        -0.1800 
     24 N          -0.9294  -21.6378  -41.9287 N.am      10 UNK        -0.5000 
     25 C          -1.4173  -20.4079  -42.1475 C.2       9 UNK         0.5000 
     26 O          -2.4606  -20.1882  -42.7607 O.2       9 UNK        -0.5000 
     27 CA         -0.5624  -19.2241  -41.6558 C.3       9 UNK         0.1400 
     28 CB         -1.0341  -18.7512  -40.2733 C.3       9 UNK        -0.1800 
     29 N           0.8751  -19.5144  -41.6045 N.am      9 UNK        -0.5000 
     30 C           1.6240  -19.8339  -42.6680 C.2       8 UNK         0.5000 
     31 O           1.1703  -19.9814  -43.8048 O.2       8 UNK        -0.5000 
     32 CA          3.1211  -20.0842  -42.4101 C.3       8 UNK         0.1400 
     33 CB          3.3948  -21.5924  -42.3053 C.3       8 UNK        -0.1800 
     34 N           3.9549  -19.5192  -43.4719 N.am      8 UNK        -0.5000 
     35 C           4.0360  -18.2116  -43.7443 C.2       7 UNK         0.5000 
     36 O           3.4738  -17.3433  -43.0721 O.2       7 UNK        -0.5000 
     37 CA          4.8718  -17.8143  -44.9732 C.3       7 UNK         0.1400 
     38 CB          4.2003  -18.3041  -46.2658 C.3       7 UNK        -0.1800 
     39 N           4.9751  -16.3583  -45.0136 N.am      7 UNK        -0.5000 
     40 C           6.0895  -15.6466  -44.8090 C.2       6 UNK         0.5000 
     41 O           7.2241  -16.1252  -44.8006 O.2       6 UNK        -0.5000 
     42 CA          5.8889  -14.1489  -44.5067 C.3       6 UNK         0.1400 
     43 CB          5.8394  -13.3204  -45.7991 C.3       6 UNK        -0.1800 
     44 N           4.6589  -13.9337  -43.7428 N.am      6 UNK        -0.5000 
     45 C           4.5411  -14.1406  -42.4236 C.2       5 UNK         0.5000 
     46 O           5.5022  -14.3709  -41.6869 O.2       5 UNK        -0.5000 
     47 CA          3.1123  -14.1153  -41.8389 C.3       5 UNK         0.1400 
     48 CB          3.0748  -13.7384  -40.3429 C.3       5 UNK        -0.1800 
     49 N           2.1735  -13.3029  -42.6173 N.am      5 UNK        -0.5000 
     50 C           2.1752  -11.9712  -42.7807 C.2       4 UNK         0.5000 
     51 O           3.0087  -11.2187  -42.2754 O.2       4 UNK        -0.5000 
     52 CA          1.0667  -11.3701  -43.6721 C.3       4 UNK         0.1400 
     53 CB          1.6743  -10.7978  -44.9620 C.3       4 UNK        -0.1800 
     54 N           0.0190  -12.3286  -44.0326 N.am      4 UNK        -0.5000 
     55 C          -0.9204  -12.8022  -43.2023 C.2       3 UNK         0.5000 
     56 O          -1.0608  -12.4243  -42.0391 O.2       3 UNK        -0.5000 
     57 CA         -1.8214  -13.9211  -43.7553 C.3       3 UNK         0.1400 
     58 CB         -3.0505  -13.3358  -44.4672 C.3       3 UNK        -0.1800 
     59 N          -1.1017  -14.8058  -44.6748 N.am      3 UNK        -0.5000 
     60 C          -0.1974  -15.7210  -44.2978 C.2       2 UNK         0.5000 
     61 O           0.1204  -15.9213  -43.1268 O.2       2 UNK        -0.5000 
     62 CA          0.4833  -16.5220  -45.4226 C.3       2 UNK         0.1400 
     63 CB         -0.4284  -17.6608  -45.8978 C.3       2 UNK        -0.1800 
     64 N           0.8334  -15.6814  -46.5692 N.am      2 UNK        -0.5000 
     65 C           1.8146  -14.7692  -46.5684 C.2       1 UNK         0.5000 
     66 O           2.5812  -14.6068  -45.6180 O.2       1 UNK        -0.5000 
     67 C          -1.9189  -21.4664  -46.6827 C.2       11 UNK         0.5000 
     68 O          -2.3100  -21.7647  -47.8045 O.2       11 UNK        -0.5000 
     69 N          -2.6023  -20.6291  -45.8859 N.am      12 UNK        -0.5000 
     70 CA         -3.8665  -19.9863  -46.2628 C.3       12 UNK         0.1400 
     71 CB         -4.1962  -18.8827  -45.2452 C.3       12 UNK        -0.1800 
     72 C          -5.0567  -20.9620  -46.4221 C.2       12 UNK         0.5000 
     73 O          -6.1213  -20.5334  -46.8687 O.2       12 UNK        -0.5000 
     74 N          -4.8695  -22.2405  -46.0673 N.am      13 UNK        -0.5000 
     75 CA         -5.8423  -23.3177  -46.2272 C.3       13 UNK         0.1400 
     76 CB         -6.5124  -23.5860  -44.8670 C.3       13 UNK        -0.1800 
     77 C          -5.1916  -24.5831  -46.8242 C.2       13 UNK         0.5000 
     78 O          -5.7086  -25.6817  -46.6131 O.2       13 UNK        -0.5000 
     79 N          -4.0771  -24.4318  -47.5527 N.am      14 UNK        -0.5000 
     80 CA         -3.3226  -25.5287  -48.1578 C.3       14 UNK         0.1400 
     81 CB         -2.3179  -26.0815  -47.1294 C.3       14 UNK        -0.1800 
     82 C          -2.6112  -25.0407  -49.4285 C.2       14 UNK         0.5000 
     83 O          -2.6396  -23.8468  -49.7257 O.2       14 UNK        -0.5000 
     84 N          -1.9798  -25.9732  -50.1569 N.am      15 UNK        -0.5000 
     85 CA         -1.1200  -25.7417  -51.3253 C.3       15 UNK         0.1400 
     86 CB          0.2692  -25.2585  -50.8538 C.3       15 UNK        -0.1800 
     87 C          -1.7792  -24.8228  -52.3773 C.2       15 UNK         0.5000 
     88 O          -2.7958  -25.2111  -52.9520 O.2       15 UNK        -0.5000 
     89 N          -1.2301  -23.6160  -52.5752 N.am      16 UNK        -0.5000 
     90 CA         -1.7340  -22.5831  -53.4828 C.3       16 UNK         0.1400 
     91 CB         -0.8006  -21.3636  -53.4243 C.3       16 UNK        -0.1800 
     92 C          -3.1849  -22.1503  -53.2008 C.2       16 UNK         0.5000 
     93 O          -3.9409  -21.9354  -54.1478 O.2       16 UNK        -0.5000 
     94 N          -3.5604  -22.0665  -51.9166 N.am      17 UNK        -0.5000 
     95 CA         -4.9052  -21.6855  -51.4829 C.3       17 UNK         0.1400 
     96 CB         -4.8785  -21.3305  -49.9898 C.3       17 UNK        -0.1800 
     97 C          -5.9461  -22.7889  -51.7423 C.2       17 UNK         0.5000 
     98 O          -7.1243  -22.4791  -51.9170 O.2       17 UNK        -0.5000 
     99 N          -5.4967  -24.0505  -51.7563 N.am      18 UNK        -0.5000 
    100 CA        -6.3219  -25.2144  -52.0664 C.3       18 UNK         0.1400 
    101 CB        -5.7474  -26.4486  -51.3535 C.3       18 UNK        -0.1800 
    102 C         -6.4176  -25.4454  -53.5843 C.2       18 UNK         0.5000 
    103 O         -7.5013  -25.7464  -54.0858 O.2       18 UNK        -0.5000 
    104 N         -5.2836  -25.3076  -54.2847 N.am      19 UNK        -0.5000 
    105 CA        -5.1568  -25.5319  -55.7237 C.3       19 UNK         0.1400 
    106 CB        -3.6679  -25.6458  -56.0863 C.3       19 UNK        -0.1800 
    107 C         -5.8318  -24.4453  -56.5783 C.2       19 UNK         0.5000 
    108 O         -6.3990  -24.7700  -57.6229 O.2       19 UNK        -0.5000 
    109 N         -5.7505  -23.1847  -56.1380 N.am      20 UNK        -0.5000 
    110 CA        -6.2720  -22.0249  -56.8505 C.3       20 UNK         0.1400 
    111 CB        -5.2372  -21.5464  -57.8929 C.3       20 UNK        -0.1800 
    112 C         -6.6855  -20.9557  -55.8278 C.2       20 UNK         0.5000 
    113 O         -7.7076  -21.1225  -55.1612 O.2       20 UNK        -0.5000 
    114 N         -5.8997  -19.8813  -55.7256 N.am      21 UNK        -0.5000 
    115 CA        -6.0787  -18.7593  -54.8149 C.3       21 UNK         0.1400 
    116 CB        -7.0949  -17.7648  -55.4075 C.3       21 UNK        -0.1800 
    117 C         -4.7103  -18.1009  -54.5834 C.2       21 UNK         0.5000 
    118 O         -3.7399  -18.4306  -55.2726 O.2       21 UNK        -0.5000 
    119 N         -4.6581  -17.1750  -53.6251 N.am      22 UNK        -0.5000 
    120 CA        -3.4479  -16.4616  -53.2027 C.3       22 UNK         0.1400 
    121 C         -3.7887  -15.0796  -52.5816 C.2       22 UNK         0.5000 
    122 N         -2.8064  -14.2008  -52.4344 N.am      22 UNK        -0.7600 
    123 O         -4.9321  -14.7914  -52.2320 O.2       22 UNK        -0.5000 
    124 C124       -2.5496  -17.3349  -52.2851 C.3       23 UNK        -0.0398 
    125 S125       -3.4098  -17.9489  -50.7927 S.3       23 UNK        -0.2404 
    126 C126       -2.3194  -17.3496  -49.4643 C.3       23 UNK        -0.0205 
    127 H127       -2.4801  -13.4963  -48.5298 H         1 UNK         0.0600 
    128 H128       -1.4188  -13.3476  -49.9329 H         1 UNK         0.0600 
    129 H129       -1.9113  -11.9036  -49.0417 H         1 UNK         0.0600 
    130 H130        0.7012  -13.8912  -49.5003 H         1 UNK         0.3000 
    131 H131        2.2282  -12.8787  -47.4023 H         1 UNK         0.0600 
    132 H132        3.5423  -13.3792  -49.1809 H         1 UNK         0.0800 
    133 H133        3.9237  -14.7510  -48.2053 H         1 UNK         0.0800 
    134 H134        3.5546  -17.5362  -50.0202 H         1 UNK         0.0800 
    135 H135        3.1011  -16.9447  -48.4431 H         1 UNK         0.0800 
    136 H136        0.1140  -16.1587  -49.5062 H         1 UNK         0.1150 
    137 H137       -1.7289  -20.0056  -49.4936 H         1 UNK         0.1150 
    138 H138        2.5416  -19.7015  -49.5020 H         1 UNK         0.1150 
    139 H139       -0.4759  -21.9878  -49.5854 H         1 UNK         0.0800 
    140 H140        1.0360  -21.8353  -50.4310 H         1 UNK         0.0800 
    141 H141        0.5093  -20.3957  -46.8095 H         1 UNK         0.0800 
    142 H142        1.4172  -21.5178  -45.8668 H         1 UNK         0.0800 
    143 H143       -0.6598  -23.1726  -46.4941 H         1 UNK         0.0600 
    144 H144       -0.0309  -21.6562  -44.1584 H         1 UNK         0.3000 
    145 H145       -2.5434  -22.9391  -42.0577 H         1 UNK         0.0600 
    146 H146       -0.7545  -24.0670  -40.7569 H         1 UNK         0.0600 
    147 H147       -1.1548  -25.0192  -42.1769 H         1 UNK         0.0600 
    148 H148        0.3146  -24.0511  -42.1605 H         1 UNK         0.0600 
    149 H149       -0.0631  -21.7189  -41.4176 H         1 UNK         0.3000 
    150 H150       -0.7093  -18.4064  -42.3640 H         1 UNK         0.0600 
    151 H151       -0.8800  -19.5160  -39.5112 H         1 UNK         0.0600 
    152 H152       -2.0975  -18.5084  -40.2857 H         1 UNK         0.0600 
    153 H153       -0.5016  -17.8520  -39.9624 H         1 UNK         0.0600 
    154 H154        1.3187  -19.4198  -40.7024 H         1 UNK         0.3000 
    155 H155        3.4045  -19.6103  -41.4680 H         1 UNK         0.0600 
    156 H156        3.1399  -22.1132  -43.2295 H         1 UNK         0.0600 
    157 H157        2.8084  -22.0424  -41.5032 H         1 UNK         0.0600 
    158 H158        4.4448  -21.7892  -42.0875 H         1 UNK         0.0600 
    159 H159        4.4168  -20.1794  -44.0795 H         1 UNK         0.3000 
    160 H160        5.8581  -18.2736  -44.8822 H         1 UNK         0.0600 
    161 H161        3.1811  -17.9277  -46.3559 H         1 UNK         0.0600 
    162 H162        4.1474  -19.3928  -46.2988 H         1 UNK         0.0600 
    163 H163        4.7640  -17.9844  -47.1419 H         1 UNK         0.0600 
    164 H164        4.0906  -15.8656  -44.9547 H         1 UNK         0.3000 
    165 H165        6.7422  -13.8058  -43.9177 H         1 UNK         0.0600 
    166 H166        5.7577  -12.2558  -45.5793 H         1 UNK         0.0600 
    167 H167        6.7454  -13.4631  -46.3892 H         1 UNK         0.0600 
    168 H168        4.9921  -13.5967  -46.4246 H         1 UNK         0.0600 
    169 H169        3.8088  -13.8176  -44.2846 H         1 UNK         0.3000 
    170 H170        2.7396  -15.1365  -41.9169 H         1 UNK         0.0600 
    171 H171        3.6321  -14.4605  -39.7452 H         1 UNK         0.0600 
    172 H172        3.5129  -12.7573  -40.1587 H         1 UNK         0.0600 
    173 H173        2.0525  -13.7276  -39.9649 H         1 UNK         0.0600 
    174 H174        1.4509  -13.8266  -43.0921 H         1 UNK         0.3000 
    175 H175        0.6048  -10.5514  -43.1168 H         1 UNK         0.0600 
    176 H176        2.3776   -9.9944  -44.7396 H         1 UNK         0.0600 
    177 H177        2.2175  -11.5612  -45.5177 H         1 UNK         0.0600 
    178 H178        0.9055  -10.3858  -45.6161 H         1 UNK         0.0600 
    179 H179       -0.0028  -12.6352  -45.0017 H         1 UNK         0.3000 
    180 H180       -2.1718  -14.5158  -42.9089 H         1 UNK         0.0600 
    181 H181       -2.7700  -12.7288  -45.3285 H         1 UNK         0.0600 
    182 H182       -3.6247  -12.7001  -43.7921 H         1 UNK         0.0600 
    183 H183       -3.7171  -14.1250  -44.8156 H         1 UNK         0.0600 
    184 H184       -1.2528  -14.6449  -45.6600 H         1 UNK         0.3000 
    185 H185        1.3966  -16.9615  -45.0169 H         1 UNK         0.0600 
    186 H186        0.0562  -18.2359  -46.6837 H         1 UNK         0.0600 
    187 H187       -0.6590  -18.3469  -45.0821 H         1 UNK         0.0600 
    188 H188       -1.3727  -17.2881  -46.2952 H         1 UNK         0.0600 
    189 H189        0.2523  -15.7623  -47.3889 H         1 UNK         0.3000 
    190 H190       -2.2841  -20.4729  -44.9372 H         1 UNK         0.3000 
    191 H191       -3.7156  -19.5119  -47.2346 H         1 UNK         0.0600 
    192 H192       -3.3612  -18.1951  -45.1136 H         1 UNK         0.0600 
    193 H193       -5.0524  -18.2930  -45.5744 H         1 UNK         0.0600 
    194 H194       -4.4456  -19.3000  -44.2694 H         1 UNK         0.0600 
    195 H195       -3.9675  -22.5195  -45.6995 H         1 UNK         0.3000 
    196 H196       -6.6158  -23.0192  -46.9376 H         1 UNK         0.0600 
    197 H197       -7.2912  -24.3447  -44.9512 H         1 UNK         0.0600 
    198 H198       -6.9833  -22.6841  -44.4754 H         1 UNK         0.0600 
    199 H199       -5.7886  -23.9339  -44.1289 H         1 UNK         0.0600 
    200 H200       -3.7140  -23.5064  -47.7626 H         1 UNK         0.3000 
    201 H201       -4.0084  -26.3238  -48.4566 H         1 UNK         0.0600 
    202 H202       -1.7645  -26.9322  -47.5279 H         1 UNK         0.0600 
    203 H203       -2.8238  -26.4224  -46.2259 H         1 UNK         0.0600 
    204 H204       -1.5908  -25.3248  -46.8349 H         1 UNK         0.0600 
    205 H205       -2.0513  -26.9368  -49.8631 H         1 UNK         0.3000 
    206 H206       -0.9862  -26.7082  -51.8131 H         1 UNK         0.0600 
    207 H207        0.7372  -26.0013  -50.2078 H         1 UNK         0.0600 
    208 H208        0.9444  -25.0995  -51.6956 H         1 UNK         0.0600 
    209 H209        0.2086  -24.3299  -50.2870 H         1 UNK         0.0600 
    210 H210       -0.4137  -23.3762  -52.0341 H         1 UNK         0.3000 
    211 H211       -1.7033  -22.9919  -54.4946 H         1 UNK         0.0600 
    212 H212       -0.7697  -20.9270  -52.4248 H         1 UNK         0.0600 
    213 H213       -1.1349  -20.5837  -54.1103 H         1 UNK         0.0600 
    214 H214        0.2179  -21.6296  -53.7073 H         1 UNK         0.0600 
    215 H215       -2.9179  -22.3583  -51.1873 H         1 UNK         0.3000 
    216 H216       -5.2047  -20.7959  -52.0414 H         1 UNK         0.0600 
    217 H217       -5.8298  -20.8989  -49.6776 H         1 UNK         0.0600 
    218 H218       -4.1003  -20.6040  -49.7620 H         1 UNK         0.0600 
    219 H219       -4.7001  -22.2080  -49.3691 H         1 UNK         0.0600 
    220 H220       -4.5049  -24.2071  -51.6365 H         1 UNK         0.3000 
    221 H221       -7.3332  -25.0522  -51.6869 H         1 UNK         0.0600 
    222 H222       -4.7237  -26.6596  -51.6644 H         1 UNK         0.0600 
    223 H223       -5.7487  -26.3113  -50.2722 H         1 UNK         0.0600 
    224 H224       -6.3447  -27.3355  -51.5684 H         1 UNK         0.0600 
    225 H225       -4.4189  -25.1180  -53.7828 H         1 UNK         0.3000 
    226 H226       -5.6355  -26.4844  -55.9604 H         1 UNK         0.0600 
    227 H227       -3.5371  -25.8349  -57.1525 H         1 UNK         0.0600 
    228 H228       -3.1252  -24.7310  -55.8446 H         1 UNK         0.0600 
    229 H229       -3.1934  -26.4674  -55.5494 H         1 UNK         0.0600 
    230 H230       -5.2624  -22.9819  -55.2703 H         1 UNK         0.3000 
    231 H231       -7.1852  -22.3033  -57.3809 H         1 UNK         0.0600 
    232 H232       -4.2696  -21.3318  -57.4370 H         1 UNK         0.0600 
    233 H233       -5.5780  -20.6447  -58.4035 H         1 UNK         0.0600 
    234 H234       -5.0767  -22.3046  -58.6595 H         1 UNK         0.0600 
    235 H235       -5.0268  -19.8510  -56.2384 H         1 UNK         0.3000 
    236 H236       -6.4409  -19.1304  -53.8537 H         1 UNK         0.0600 
    237 H237       -8.0645  -18.2368  -55.5669 H         1 UNK         0.0600 
    238 H238       -7.2566  -16.9181  -54.7396 H         1 UNK         0.0600 
    239 H239       -6.7547  -17.3688  -56.3651 H         1 UNK         0.0600 
    240 H240       -5.4938  -16.9082  -53.1221 H         1 UNK         0.3000 
    241 H241       -2.8790  -16.2344  -54.1065 H         1 UNK         0.0600 
    242 H242       -1.8658  -14.3976  -52.7381 H         1 UNK         0.3800 
    243 H243       -3.0208  -13.2975  -52.0425 H         1 UNK         0.3800 
    244 H244       -2.1961  -18.2050  -52.8399 H         1 UNK         0.0800 
    245 H245       -1.6486  -16.7893  -52.0022 H         1 UNK         0.0800 
    246 H246       -2.7892  -17.5598  -48.5031 H         1 UNK         0.0800 
    247 H247       -2.2367  -16.2640  -49.5376 H         1 UNK         0.0800 
@<TRIPOS>BOND
     1    1    2 1    
     2    1  127 1    
     3    1  128 1    
     4    1  129 1    
     5    2    3 2    
     6    2    4 am   BACKBONE|DICT|INTERRES
     7    4    5 1    
     8    4  130 1    
     9    5    6 1    
    10    5   65 1    
    11    5  131 1    
    12    6    7 1    
    13    6  132 1    
    14    6  133 1    
    15    7    8 1    
    16    8    9 1    
    17    8  134 1    
    18    8  135 1    
    19    9   10 ar   
    20    9   14 ar   
    21   10   11 ar   
    22   10  136 1    
    23   11   12 ar   
    24   11  126 1    
    25   12   13 ar   
    26   12  137 1    
    27   13   14 ar   
    28   13   15 1    
    29   14  138 1    
    30   15   16 1    
    31   15  139 1    
    32   15  140 1    
    33   16   17 1    
    34   17   18 1    
    35   17  141 1    
    36   17  142 1    
    37   18   19 1    
    38   18   67 1    
    39   18  143 1    
    40   19   20 am   BACKBONE|DICT|INTERRES
    41   19  144 1    
    42   20   21 2    
    43   20   22 1    
    44   22   23 1    
    45   22   24 1    
    46   22  145 1    
    47   23  146 1    
    48   23  147 1    
    49   23  148 1    
    50   24   25 am   BACKBONE|DICT|INTERRES
    51   24  149 1    
    52   25   26 2    
    53   25   27 1    
    54   27   28 1    
    55   27   29 1    
    56   27  150 1    
    57   28  151 1    
    58   28  152 1    
    59   28  153 1    
    60   29   30 am   BACKBONE|DICT|INTERRES
    61   29  154 1    
    62   30   31 2    
    63   30   32 1    
    64   32   33 1    
    65   32   34 1    
    66   32  155 1    
    67   33  156 1    
    68   33  157 1    
    69   33  158 1    
    70   34   35 am   BACKBONE|DICT|INTERRES
    71   34  159 1    
    72   35   36 2    
    73   35   37 1    
    74   37   38 1    
    75   37   39 1    
    76   37  160 1    
    77   38  161 1    
    78   38  162 1    
    79   38  163 1    
    80   39   40 am   BACKBONE|DICT|INTERRES
    81   39  164 1    
    82   40   41 2    
    83   40   42 1    
    84   42   43 1    
    85   42   44 1    
    86   42  165 1    
    87   43  166 1    
    88   43  167 1    
    89   43  168 1    
    90   44   45 am   BACKBONE|DICT|INTERRES
    91   44  169 1    
    92   45   46 2    
    93   45   47 1    
    94   47   48 1    
    95   47   49 1    
    96   47  170 1    
    97   48  171 1    
    98   48  172 1    
    99   48  173 1    
   100   49   50 am   BACKBONE|DICT|INTERRES
   101   49  174 1    
   102   50   51 2    
   103   50   52 1    
   104   52   53 1    
   105   52   54 1    
   106   52  175 1    
   107   53  176 1    
   108   53  177 1    
   109   53  178 1    
   110   54   55 am   BACKBONE|DICT|INTERRES
   111   54  179 1    
   112   55   56 2    
   113   55   57 1    
   114   57   58 1    
   115   57   59 1    
   116   57  180 1    
   117   58  181 1    
   118   58  182 1    
   119   58  183 1    
   120   59   60 am   BACKBONE|DICT|INTERRES
   121   59  184 1    
   122   60   61 2    
   123   60   62 1    
   124   62   63 1    
   125   62   64 1    
   126   62  185 1    
   127   63  186 1    
   128   63  187 1    
   129   63  188 1    
   130   64   65 am   BACKBONE|DICT|INTERRES
   131   64  189 1    
   132   65   66 2    
   133   67   68 2    
   134   67   69 am   BACKBONE|DICT|INTERRES
   135   69   70 1    
   136   69  190 1    
   137   70   71 1    
   138   70   72 1    
   139   70  191 1    
   140   71  192 1    
   141   71  193 1    
   142   71  194 1    
   143   72   73 2    
   144   72   74 am   BACKBONE|DICT|INTERRES
   145   74   75 1    
   146   74  195 1    
   147   75   76 1    
   148   75   77 1    
   149   75  196 1    
   150   76  197 1    
   151   76  198 1    
   152   76  199 1    
   153   77   78 2    
   154   77   79 am   BACKBONE|DICT|INTERRES
   155   79   80 1    
   156   79  200 1    
   157   80   81 1    
   158   80   82 1    
   159   80  201 1    
   160   81  202 1    
   161   81  203 1    
   162   81  204 1    
   163   82   83 2    
   164   82   84 am   BACKBONE|DICT|INTERRES
   165   84   85 1    
   166   84  205 1    
   167   85   86 1    
   168   85   87 1    
   169   85  206 1    
   170   86  207 1    
   171   86  208 1    
   172   86  209 1    
   173   87   88 2    
   174   87   89 am   BACKBONE|DICT|INTERRES
   175   89   90 1    
   176   89  210 1    
   177   90   91 1    
   178   90   92 1    
   179   90  211 1    
   180   91  212 1    
   181   91  213 1    
   182   91  214 1    
   183   92   93 2    
   184   92   94 am   BACKBONE|DICT|INTERRES
   185   94   95 1    
   186   94  215 1    
   187   95   96 1    
   188   95   97 1    
   189   95  216 1    
   190   96  217 1    
   191   96  218 1    
   192   96  219 1    
   193   97   98 2    
   194   97   99 am   BACKBONE|DICT|INTERRES
   195   99  100 1    
   196   99  220 1    
   197  100  101 1    
   198  100  102 1    
   199  100  221 1    
   200  101  222 1    
   201  101  223 1    
   202  101  224 1    
   203  102  103 2    
   204  102  104 am   BACKBONE|DICT|INTERRES
   205  104  105 1    
   206  104  225 1    
   207  105  106 1    
   208  105  107 1    
   209  105  226 1    
   210  106  227 1    
   211  106  228 1    
   212  106  229 1    
   213  107  108 2    
   214  107  109 am   BACKBONE|DICT|INTERRES
   215  109  110 1    
   216  109  230 1    
   217  110  111 1    
   218  110  112 1    
   219  110  231 1    
   220  111  232 1    
   221  111  233 1    
   222  111  234 1    
   223  112  113 2    
   224  112  114 am   BACKBONE|DICT|INTERRES
   225  114  115 1    
   226  114  235 1    
   227  115  116 1    
   228  115  117 1    
   229  115  236 1    
   230  116  237 1    
   231  116  238 1    
   232  116  239 1    
   233  117  118 2    
   234  117  119 am   BACKBONE|DICT|INTERRES
   235  119  120 1    
   236  119  240 1    
   237  120  121 1    
   238  120  124 1    
   239  120  241 1    
   240  121  122 am   BACKBONE|DICT|INTERRES
   241  121  123 2    
   242  122  242 1    
   243  122  243 1    
   244  124  125 1    
   245  124  244 1    
   246  124  245 1    
   247  125  126 1    
   248  126  246 1    
   249  126  247 1    
@<TRIPOS>SUBSTRUCTURE
     1 UNK         1 GROUP             0       ****    0 ROOT    
