@<TRIPOS>MOLECULE
3R540
247   249    1
SMALL
USER_CHARGES


@<TRIPOS>ATOM
      1 CA          3.3777  -16.7744  -49.7079 C.3       0 UNK        -0.1800 
      2 C           2.8716  -15.6376  -48.8343 C.2       0 UNK         0.5000 
      3 O           3.5965  -15.1661  -47.9572 O.2       0 UNK        -0.5000 
      4 N           1.6396  -15.1759  -49.0796 N.am      1 UNK        -0.5000 
      5 CA          0.9422  -14.1237  -48.3265 C.3       1 UNK         0.1400 
      6 C6         -0.5952  -14.2493  -48.4551 C.3       23 UNK        -0.0398 
      7 S7         -1.1995  -15.7322  -47.5911 S.3       23 UNK        -0.2404 
      8 C8         -2.1578  -16.5880  -48.8796 C.3       23 UNK        -0.0205 
      9 C9         -1.2983  -17.3454  -49.8847 C.ar      23 UNK        -0.0193 
     10 C10        -1.5760  -17.2404  -51.2505 C.ar      23 UNK        -0.1150 
     11 C11        -0.8662  -18.0070  -52.1769 C.ar      23 UNK        -0.0193 
     12 C12         0.1324  -18.8750  -51.7332 C.ar      23 UNK        -0.1150 
     13 C13         0.4311  -18.9933  -50.3749 C.ar      23 UNK        -0.0193 
     14 C14        -0.2886  -18.2157  -49.4552 C.ar      23 UNK        -0.1150 
     15 C15         1.5361  -19.9742  -49.9737 C.3       23 UNK        -0.0205 
     16 S16         1.6528  -20.3638  -48.1962 S.3       23 UNK        -0.2404 
     17 C17         0.0800  -21.2484  -47.9347 C.3       23 UNK        -0.0398 
     18 CA          0.2560  -22.4790  -47.0198 C.3       11 UNK         0.1400 
     19 N           0.5514  -22.1083  -45.6347 N.am      11 UNK        -0.5000 
     20 C           0.9416  -22.9683  -44.6853 C.2       10 UNK         0.5000 
     21 O           1.1166  -24.1704  -44.8849 O.2       10 UNK        -0.5000 
     22 CA          1.1224  -22.4010  -43.2661 C.3       10 UNK         0.1400 
     23 CB          2.4429  -21.6254  -43.1483 C.3       10 UNK        -0.1800 
     24 N           0.0070  -21.5471  -42.8542 N.am      10 UNK        -0.5000 
     25 C          -1.2551  -21.9736  -42.6995 C.2       9 UNK         0.5000 
     26 O          -1.6065  -23.1428  -42.8608 O.2       9 UNK        -0.5000 
     27 CA         -2.3119  -20.9097  -42.3478 C.3       9 UNK         0.1400 
     28 CB         -2.2444  -20.5364  -40.8595 C.3       9 UNK        -0.1800 
     29 N          -2.1900  -19.6997  -43.1597 N.am      9 UNK        -0.5000 
     30 C          -2.3156  -19.6592  -44.4938 C.2       8 UNK         0.5000 
     31 O          -2.5847  -20.6343  -45.1915 O.2       8 UNK        -0.5000 
     32 CA         -2.0283  -18.3099  -45.1683 C.3       8 UNK         0.1400 
     33 CB         -3.2367  -17.3678  -45.0342 C.3       8 UNK        -0.1800 
     34 N          -0.8211  -17.6792  -44.6301 N.am      8 UNK        -0.5000 
     35 C           0.4079  -18.2106  -44.7179 C.2       7 UNK         0.5000 
     36 O           0.6506  -19.2810  -45.2693 O.2       7 UNK        -0.5000 
     37 CA          1.5478  -17.4532  -44.0205 C.3       7 UNK         0.1400 
     38 CB          2.0476  -16.2995  -44.9018 C.3       7 UNK        -0.1800 
     39 N           1.1409  -16.9475  -42.7101 N.am      7 UNK        -0.5000 
     40 C           0.8687  -17.7292  -41.6526 C.2       6 UNK         0.5000 
     41 O           1.0085  -18.9525  -41.6563 O.2       6 UNK        -0.5000 
     42 CA          0.2887  -17.0397  -40.3992 C.3       6 UNK         0.1400 
     43 CB          1.4177  -16.5658  -39.4725 C.3       6 UNK        -0.1800 
     44 N          -0.5756  -15.9036  -40.7251 N.am      6 UNK        -0.5000 
     45 C          -1.6905  -15.9859  -41.4631 C.2       5 UNK         0.5000 
     46 O          -2.1911  -17.0585  -41.8024 O.2       5 UNK        -0.5000 
     47 CA         -2.3292  -14.6690  -41.9568 C.3       5 UNK         0.1400 
     48 CB         -3.6451  -14.4044  -41.2098 C.3       5 UNK        -0.1800 
     49 N          -1.4889  -13.4643  -41.8750 N.am      5 UNK        -0.5000 
     50 C          -0.2740  -13.2852  -42.4157 C.2       4 UNK         0.5000 
     51 O           0.3520  -14.1794  -42.9885 O.2       4 UNK        -0.5000 
     52 CA          0.3474  -11.8823  -42.2310 C.3       4 UNK         0.1400 
     53 CB          0.5399  -11.5608  -40.7378 C.3       4 UNK        -0.1800 
     54 N           1.6432  -11.7223  -42.8954 N.am      4 UNK        -0.5000 
     55 C           1.8598  -11.7161  -44.2169 C.2       3 UNK         0.5000 
     56 O           0.9604  -11.7931  -45.0587 O.2       3 UNK        -0.5000 
     57 CA          3.3358  -11.5917  -44.6533 C.3       3 UNK         0.1400 
     58 CB          4.2254  -12.6437  -43.9648 C.3       3 UNK        -0.1800 
     59 N           3.4682  -11.7648  -46.0969 N.am      3 UNK        -0.5000 
     60 C           3.4715  -10.7870  -47.0135 C.2       2 UNK         0.5000 
     61 O           3.4719   -9.5859  -46.7408 O.2       2 UNK        -0.5000 
     62 CA          3.4558  -11.2383  -48.4890 C.3       2 UNK         0.1400 
     63 CB          4.8861  -11.3536  -49.0374 C.3       2 UNK        -0.1800 
     64 N           2.7856  -12.5314  -48.6259 N.am      2 UNK        -0.5000 
     65 C           1.4583  -12.6987  -48.6406 C.2       1 UNK         0.5000 
     66 O           0.6670  -11.7774  -48.8499 O.2       1 UNK        -0.5000 
     67 C          -0.9613  -23.4179  -47.1186 C.2       11 UNK         0.5000 
     68 O          -0.9156  -24.3656  -47.9004 O.2       11 UNK        -0.5000 
     69 N          -2.0089  -23.1753  -46.3179 N.am      12 UNK        -0.5000 
     70 CA         -3.1926  -24.0318  -46.2334 C.3       12 UNK         0.1400 
     71 CB         -4.2826  -23.3460  -45.3975 C.3       12 UNK        -0.1800 
     72 C          -2.8679  -25.4282  -45.6749 C.2       12 UNK         0.5000 
     73 O          -3.3450  -26.4207  -46.2246 O.2       12 UNK        -0.5000 
     74 N          -2.0221  -25.4875  -44.6354 N.am      13 UNK        -0.5000 
     75 CA         -1.5092  -26.7305  -44.0520 C.3       13 UNK         0.1400 
     76 CB         -0.7512  -26.4149  -42.7538 C.3       13 UNK        -0.1800 
     77 C          -0.6208  -27.5289  -45.0269 C.2       13 UNK         0.5000 
     78 O          -0.6923  -28.7580  -45.0480 O.2       13 UNK        -0.5000 
     79 N           0.1684  -26.8160  -45.8418 N.am      14 UNK        -0.5000 
     80 CA          0.9890  -27.3724  -46.9206 C.3       14 UNK         0.1400 
     81 CB          2.0769  -26.3498  -47.2867 C.3       14 UNK        -0.1800 
     82 C           0.1807  -27.7658  -48.1767 C.2       14 UNK         0.5000 
     83 O           0.7382  -28.4116  -49.0651 O.2       14 UNK        -0.5000 
     84 N          -1.0960  -27.3571  -48.2399 N.am      15 UNK        -0.5000 
     85 CA         -2.0338  -27.4945  -49.3595 C.3       15 UNK         0.1400 
     86 CB         -2.3545  -28.9774  -49.6388 C.3       15 UNK        -0.1800 
     87 C          -1.5876  -26.7205  -50.6199 C.2       15 UNK         0.5000 
     88 O          -1.8772  -27.1374  -51.7424 O.2       15 UNK        -0.5000 
     89 N          -0.9143  -25.5820  -50.4154 N.am      16 UNK        -0.5000 
     90 CA         -0.3728  -24.6974  -51.4471 C.3       16 UNK         0.1400 
     91 CB          0.9343  -24.0776  -50.9183 C.3       16 UNK        -0.1800 
     92 C          -1.4027  -23.6334  -51.8826 C.2       16 UNK         0.5000 
     93 O          -1.0608  -22.4545  -51.9913 O.2       16 UNK        -0.5000 
     94 N          -2.6488  -24.0756  -52.1112 N.am      17 UNK        -0.5000 
     95 CA         -3.8509  -23.3184  -52.4840 C.3       17 UNK         0.1400 
     96 CB         -3.7036  -22.6614  -53.8701 C.3       17 UNK        -0.1800 
     97 C          -4.3162  -22.3181  -51.4072 C.2       17 UNK         0.5000 
     98 O          -5.3924  -22.5077  -50.8401 O.2       17 UNK        -0.5000 
     99 N          -3.4908  -21.2983  -51.1356 N.am      18 UNK        -0.5000 
    100 CA        -3.6448  -20.2675  -50.1033 C.3       18 UNK         0.1400 
    101 CB        -3.4986  -20.8988  -48.7038 C.3       18 UNK        -0.1800 
    102 C         -4.9381  -19.4340  -50.2353 C.2       18 UNK         0.5000 
    103 O         -5.5513  -19.0880  -49.2232 O.2       18 UNK        -0.5000 
    104 N         -5.3511  -19.1441  -51.4744 N.am      19 UNK        -0.5000 
    105 CA        -6.6375  -18.5299  -51.7942 C.3       19 UNK         0.1400 
    106 CB        -7.7318  -19.6184  -51.7790 C.3       19 UNK        -0.1800 
    107 C         -6.5687  -17.8159  -53.1523 C.2       19 UNK         0.5000 
    108 O         -5.5105  -17.7791  -53.7853 O.2       19 UNK        -0.5000 
    109 N         -7.7180  -17.2976  -53.6076 N.am      20 UNK        -0.5000 
    110 CA        -7.9170  -16.6137  -54.8933 C.3       20 UNK         0.1400 
    111 CB        -9.3612  -16.0918  -54.9536 C.3       20 UNK        -0.1800 
    112 C         -7.5972  -17.4654  -56.1427 C.2       20 UNK         0.5000 
    113 O         -7.4581  -16.9099  -57.2328 O.2       20 UNK        -0.5000 
    114 N         -7.4545  -18.7863  -55.9608 N.am      21 UNK        -0.5000 
    115 CA        -6.9280  -19.7317  -56.9459 C.3       21 UNK         0.1400 
    116 CB        -7.0784  -21.1571  -56.3922 C.3       21 UNK        -0.1800 
    117 C         -5.4592  -19.4566  -57.3361 C.2       21 UNK         0.5000 
    118 O         -5.0633  -19.8096  -58.4480 O.2       21 UNK        -0.5000 
    119 N         -4.6927  -18.8224  -56.4385 N.am      22 UNK        -0.5000 
    120 CA        -3.3319  -18.3258  -56.6899 C.3       22 UNK         0.1400 
    121 C         -3.1769  -16.8022  -56.4241 C.2       22 UNK         0.5000 
    122 N         -3.9591  -16.1959  -55.5387 N.am      22 UNK        -0.7600 
    123 O         -2.3405  -16.1536  -57.0467 O.2       22 UNK        -0.5000 
    124 C124       -2.2554  -19.1582  -55.9486 C.3       23 UNK        -0.0398 
    125 S125       -2.4148  -19.1765  -54.1264 S.3       23 UNK        -0.2404 
    126 C126       -1.1842  -17.9222  -53.6579 C.3       23 UNK        -0.0205 
    127 H127        4.3277  -16.5020  -50.1674 H         1 UNK         0.0600 
    128 H128        2.6729  -17.0167  -50.5035 H         1 UNK         0.0600 
    129 H129        3.5332  -17.6665  -49.1015 H         1 UNK         0.0600 
    130 H130        1.0985  -15.6035  -49.8174 H         1 UNK         0.3000 
    131 H131        1.1800  -14.2688  -47.2701 H         1 UNK         0.0600 
    132 H132       -1.1024  -13.4002  -47.9938 H         1 UNK         0.0800 
    133 H133       -0.8988  -14.2596  -49.5030 H         1 UNK         0.0800 
    134 H134       -2.8068  -15.8672  -49.3793 H         1 UNK         0.0800 
    135 H135       -2.8200  -17.3056  -48.3936 H         1 UNK         0.0800 
    136 H136       -2.3663  -16.5876  -51.5943 H         1 UNK         0.1150 
    137 H137        0.6714  -19.4756  -52.4530 H         1 UNK         0.1150 
    138 H138       -0.0840  -18.2901  -48.3973 H         1 UNK         0.1150 
    139 H139        1.4035  -20.9086  -50.5218 H         1 UNK         0.0800 
    140 H140        2.4940  -19.5677  -50.2980 H         1 UNK         0.0800 
    141 H141       -0.3085  -21.5474  -48.9100 H         1 UNK         0.0800 
    142 H142       -0.6485  -20.5549  -47.5114 H         1 UNK         0.0800 
    143 H143        1.1124  -23.0467  -47.3897 H         1 UNK         0.0600 
    144 H144        0.4766  -21.1181  -45.4087 H         1 UNK         0.3000 
    145 H145        1.1651  -23.2462  -42.5761 H         1 UNK         0.0600 
    146 H146        2.6138  -21.2928  -42.1243 H         1 UNK         0.0600 
    147 H147        3.2897  -22.2507  -43.4335 H         1 UNK         0.0600 
    148 H148        2.4533  -20.7449  -43.7911 H         1 UNK         0.0600 
    149 H149        0.2228  -20.5721  -42.6754 H         1 UNK         0.3000 
    150 H150       -3.2951  -21.3413  -42.5456 H         1 UNK         0.0600 
    151 H151       -2.3704  -21.4183  -40.2302 H         1 UNK         0.0600 
    152 H152       -3.0321  -19.8308  -40.5943 H         1 UNK         0.0600 
    153 H153       -1.2884  -20.0813  -40.6001 H         1 UNK         0.0600 
    154 H154       -2.0002  -18.8318  -42.6674 H         1 UNK         0.3000 
    155 H155       -1.8557  -18.4949  -46.2305 H         1 UNK         0.0600 
    156 H156       -3.5459  -17.2394  -43.9976 H         1 UNK         0.0600 
    157 H157       -4.0934  -17.7669  -45.5785 H         1 UNK         0.0600 
    158 H158       -3.0278  -16.3794  -45.4405 H         1 UNK         0.0600 
    159 H159       -0.9391  -16.8112  -44.1308 H         1 UNK         0.3000 
    160 H160        2.3753  -18.1506  -43.8746 H         1 UNK         0.0600 
    161 H161        2.8911  -15.7893  -44.4392 H         1 UNK         0.0600 
    162 H162        1.2667  -15.5617  -45.0887 H         1 UNK         0.0600 
    163 H163        2.3830  -16.6707  -45.8709 H         1 UNK         0.0600 
    164 H164        0.9549  -15.9492  -42.6519 H         1 UNK         0.3000 
    165 H165       -0.3124  -17.7764  -39.8624 H         1 UNK         0.0600 
    166 H166        1.0198  -16.1447  -38.5490 H         1 UNK         0.0600 
    167 H167        2.0694  -17.3958  -39.1961 H         1 UNK         0.0600 
    168 H168        2.0377  -15.8056  -39.9496 H         1 UNK         0.0600 
    169 H169       -0.2263  -14.9856  -40.4953 H         1 UNK         0.3000 
    170 H170       -2.5650  -14.8183  -43.0122 H         1 UNK         0.0600 
    171 H171       -4.3155  -15.2624  -41.2782 H         1 UNK         0.0600 
    172 H172       -3.4722  -14.2066  -40.1512 H         1 UNK         0.0600 
    173 H173       -4.1743  -13.5492  -41.6306 H         1 UNK         0.0600 
    174 H174       -1.9117  -12.6799  -41.4001 H         1 UNK         0.3000 
    175 H175       -0.3439  -11.1549  -42.6611 H         1 UNK         0.0600 
    176 H176        1.2020  -12.2805  -40.2543 H         1 UNK         0.0600 
    177 H177        0.9696  -10.5681  -40.6012 H         1 UNK         0.0600 
    178 H178       -0.4071  -11.5715  -40.1975 H         1 UNK         0.0600 
    179 H179        2.4438  -11.6773  -42.2830 H         1 UNK         0.3000 
    180 H180        3.6873  -10.5986  -44.3664 H         1 UNK         0.0600 
    181 H181        3.8639  -13.6556  -44.1471 H         1 UNK         0.0600 
    182 H182        4.2623  -12.4960  -42.8853 H         1 UNK         0.0600 
    183 H183        5.2522  -12.5871  -44.3270 H         1 UNK         0.0600 
    184 H184        3.4285  -12.7177  -46.4259 H         1 UNK         0.3000 
    185 H185        2.9217  -10.4849  -49.0718 H         1 UNK         0.0600 
    186 H186        5.4111  -10.4006  -48.9602 H         1 UNK         0.0600 
    187 H187        5.4692  -12.0961  -48.4910 H         1 UNK         0.0600 
    188 H188        4.8820  -11.6385  -50.0896 H         1 UNK         0.0600 
    189 H189        3.3501  -13.3613  -48.4653 H         1 UNK         0.3000 
    190 H190       -2.0162  -22.3368  -45.7418 H         1 UNK         0.3000 
    191 H191       -3.5799  -24.1625  -47.2463 H         1 UNK         0.0600 
    192 H192       -3.9405  -23.1340  -44.3843 H         1 UNK         0.0600 
    193 H193       -5.1710  -23.9740  -45.3212 H         1 UNK         0.0600 
    194 H194       -4.5900  -22.4036  -45.8511 H         1 UNK         0.0600 
    195 H195       -1.7064  -24.6209  -44.2097 H         1 UNK         0.3000 
    196 H196       -2.3666  -27.3574  -43.7988 H         1 UNK         0.0600 
    197 H197       -0.3794  -27.3274  -42.2864 H         1 UNK         0.0600 
    198 H198       -1.3989  -25.9190  -42.0306 H         1 UNK         0.0600 
    199 H199        0.1055  -25.7652  -42.9341 H         1 UNK         0.0600 
    200 H200        0.2230  -25.8117  -45.7047 H         1 UNK         0.3000 
    201 H201        1.4803  -28.2750  -46.5520 H         1 UNK         0.0600 
    202 H202        2.6806  -26.0863  -46.4181 H         1 UNK         0.0600 
    203 H203        1.6461  -25.4317  -47.6864 H         1 UNK         0.0600 
    204 H204        2.7534  -26.7497  -48.0431 H         1 UNK         0.0600 
    205 H205       -1.4445  -26.8170  -47.4584 H         1 UNK         0.3000 
    206 H206       -2.9584  -27.0181  -49.0311 H         1 UNK         0.0600 
    207 H207       -2.6674  -29.4901  -48.7292 H         1 UNK         0.0600 
    208 H208       -3.1677  -29.0720  -50.3592 H         1 UNK         0.0600 
    209 H209       -1.4951  -29.5100  -50.0466 H         1 UNK         0.0600 
    210 H210       -0.8054  -25.2584  -49.4551 H         1 UNK         0.3000 
    211 H211       -0.1253  -25.2846  -52.3336 H         1 UNK         0.0600 
    212 H212        0.7582  -23.4549  -50.0415 H         1 UNK         0.0600 
    213 H213        1.4098  -23.4539  -51.6761 H         1 UNK         0.0600 
    214 H214        1.6507  -24.8503  -50.6387 H         1 UNK         0.0600 
    215 H215       -2.7945  -25.0696  -51.9899 H         1 UNK         0.3000 
    216 H216       -4.6474  -24.0592  -52.5715 H         1 UNK         0.0600 
    217 H217       -3.6154  -23.4160  -54.6515 H         1 UNK         0.0600 
    218 H218       -2.8237  -22.0237  -53.9308 H         1 UNK         0.0600 
    219 H219       -4.5711  -22.0454  -54.1092 H         1 UNK         0.0600 
    220 H220       -2.6047  -21.2922  -51.6340 H         1 UNK         0.3000 
    221 H221       -2.8125  -19.5830  -50.2474 H         1 UNK         0.0600 
    222 H222       -4.3782  -21.4816  -48.4283 H         1 UNK         0.0600 
    223 H223       -2.6428  -21.5673  -48.6646 H         1 UNK         0.0600 
    224 H224       -3.3572  -20.1344  -47.9390 H         1 UNK         0.0600 
    225 H225       -4.7661  -19.3697  -52.2691 H         1 UNK         0.3000 
    226 H226       -6.8715  -17.7692  -51.0466 H         1 UNK         0.0600 
    227 H227       -8.7239  -19.2000  -51.9498 H         1 UNK         0.0600 
    228 H228       -7.5533  -20.3746  -52.5447 H         1 UNK         0.0600 
    229 H229       -7.7686  -20.1291  -50.8164 H         1 UNK         0.0600 
    230 H230       -8.5408  -17.3789  -53.0277 H         1 UNK         0.3000 
    231 H231       -7.2421  -15.7558  -54.9149 H         1 UNK         0.0600 
    232 H232       -9.5701  -15.4103  -54.1288 H         1 UNK         0.0600 
    233 H233      -10.0845  -16.9070  -54.9092 H         1 UNK         0.0600 
    234 H234       -9.5421  -15.5426  -55.8786 H         1 UNK         0.0600 
    235 H235       -7.6101  -19.1481  -55.0326 H         1 UNK         0.3000 
    236 H236       -7.5321  -19.6463  -57.8514 H         1 UNK         0.0600 
    237 H237       -6.5213  -21.2883  -55.4640 H         1 UNK         0.0600 
    238 H238       -8.1235  -21.3954  -56.1937 H         1 UNK         0.0600 
    239 H239       -6.7077  -21.8950  -57.1050 H         1 UNK         0.0600 
    240 H240       -5.0877  -18.5693  -55.5397 H         1 UNK         0.3000 
    241 H241       -3.1171  -18.4336  -57.7547 H         1 UNK         0.0600 
    242 H242       -4.5702  -16.7337  -54.9296 H         1 UNK         0.3800 
    243 H243       -3.8529  -15.2060  -55.3882 H         1 UNK         0.3800 
    244 H244       -1.2563  -18.8225  -56.2303 H         1 UNK         0.0800 
    245 H245       -2.3146  -20.1932  -56.2875 H         1 UNK         0.0800 
    246 H246       -1.5585  -16.9287  -53.9074 H         1 UNK         0.0800 
    247 H247       -0.2690  -18.0636  -54.2345 H         1 UNK         0.0800 
@<TRIPOS>BOND
     1    1    2 1    
     2    1  127 1    
     3    1  128 1    
     4    1  129 1    
     5    2    3 2    
     6    2    4 am   BACKBONE|DICT|INTERRES
     7    4    5 1    
     8    4  130 1    
     9    5    6 1    
    10    5   65 1    
    11    5  131 1    
    12    6    7 1    
    13    6  132 1    
    14    6  133 1    
    15    7    8 1    
    16    8    9 1    
    17    8  134 1    
    18    8  135 1    
    19    9   10 ar   
    20    9   14 ar   
    21   10   11 ar   
    22   10  136 1    
    23   11   12 ar   
    24   11  126 1    
    25   12   13 ar   
    26   12  137 1    
    27   13   14 ar   
    28   13   15 1    
    29   14  138 1    
    30   15   16 1    
    31   15  139 1    
    32   15  140 1    
    33   16   17 1    
    34   17   18 1    
    35   17  141 1    
    36   17  142 1    
    37   18   19 1    
    38   18   67 1    
    39   18  143 1    
    40   19   20 am   BACKBONE|DICT|INTERRES
    41   19  144 1    
    42   20   21 2    
    43   20   22 1    
    44   22   23 1    
    45   22   24 1    
    46   22  145 1    
    47   23  146 1    
    48   23  147 1    
    49   23  148 1    
    50   24   25 am   BACKBONE|DICT|INTERRES
    51   24  149 1    
    52   25   26 2    
    53   25   27 1    
    54   27   28 1    
    55   27   29 1    
    56   27  150 1    
    57   28  151 1    
    58   28  152 1    
    59   28  153 1    
    60   29   30 am   BACKBONE|DICT|INTERRES
    61   29  154 1    
    62   30   31 2    
    63   30   32 1    
    64   32   33 1    
    65   32   34 1    
    66   32  155 1    
    67   33  156 1    
    68   33  157 1    
    69   33  158 1    
    70   34   35 am   BACKBONE|DICT|INTERRES
    71   34  159 1    
    72   35   36 2    
    73   35   37 1    
    74   37   38 1    
    75   37   39 1    
    76   37  160 1    
    77   38  161 1    
    78   38  162 1    
    79   38  163 1    
    80   39   40 am   BACKBONE|DICT|INTERRES
    81   39  164 1    
    82   40   41 2    
    83   40   42 1    
    84   42   43 1    
    85   42   44 1    
    86   42  165 1    
    87   43  166 1    
    88   43  167 1    
    89   43  168 1    
    90   44   45 am   BACKBONE|DICT|INTERRES
    91   44  169 1    
    92   45   46 2    
    93   45   47 1    
    94   47   48 1    
    95   47   49 1    
    96   47  170 1    
    97   48  171 1    
    98   48  172 1    
    99   48  173 1    
   100   49   50 am   BACKBONE|DICT|INTERRES
   101   49  174 1    
   102   50   51 2    
   103   50   52 1    
   104   52   53 1    
   105   52   54 1    
   106   52  175 1    
   107   53  176 1    
   108   53  177 1    
   109   53  178 1    
   110   54   55 am   BACKBONE|DICT|INTERRES
   111   54  179 1    
   112   55   56 2    
   113   55   57 1    
   114   57   58 1    
   115   57   59 1    
   116   57  180 1    
   117   58  181 1    
   118   58  182 1    
   119   58  183 1    
   120   59   60 am   BACKBONE|DICT|INTERRES
   121   59  184 1    
   122   60   61 2    
   123   60   62 1    
   124   62   63 1    
   125   62   64 1    
   126   62  185 1    
   127   63  186 1    
   128   63  187 1    
   129   63  188 1    
   130   64   65 am   BACKBONE|DICT|INTERRES
   131   64  189 1    
   132   65   66 2    
   133   67   68 2    
   134   67   69 am   BACKBONE|DICT|INTERRES
   135   69   70 1    
   136   69  190 1    
   137   70   71 1    
   138   70   72 1    
   139   70  191 1    
   140   71  192 1    
   141   71  193 1    
   142   71  194 1    
   143   72   73 2    
   144   72   74 am   BACKBONE|DICT|INTERRES
   145   74   75 1    
   146   74  195 1    
   147   75   76 1    
   148   75   77 1    
   149   75  196 1    
   150   76  197 1    
   151   76  198 1    
   152   76  199 1    
   153   77   78 2    
   154   77   79 am   BACKBONE|DICT|INTERRES
   155   79   80 1    
   156   79  200 1    
   157   80   81 1    
   158   80   82 1    
   159   80  201 1    
   160   81  202 1    
   161   81  203 1    
   162   81  204 1    
   163   82   83 2    
   164   82   84 am   BACKBONE|DICT|INTERRES
   165   84   85 1    
   166   84  205 1    
   167   85   86 1    
   168   85   87 1    
   169   85  206 1    
   170   86  207 1    
   171   86  208 1    
   172   86  209 1    
   173   87   88 2    
   174   87   89 am   BACKBONE|DICT|INTERRES
   175   89   90 1    
   176   89  210 1    
   177   90   91 1    
   178   90   92 1    
   179   90  211 1    
   180   91  212 1    
   181   91  213 1    
   182   91  214 1    
   183   92   93 2    
   184   92   94 am   BACKBONE|DICT|INTERRES
   185   94   95 1    
   186   94  215 1    
   187   95   96 1    
   188   95   97 1    
   189   95  216 1    
   190   96  217 1    
   191   96  218 1    
   192   96  219 1    
   193   97   98 2    
   194   97   99 am   BACKBONE|DICT|INTERRES
   195   99  100 1    
   196   99  220 1    
   197  100  101 1    
   198  100  102 1    
   199  100  221 1    
   200  101  222 1    
   201  101  223 1    
   202  101  224 1    
   203  102  103 2    
   204  102  104 am   BACKBONE|DICT|INTERRES
   205  104  105 1    
   206  104  225 1    
   207  105  106 1    
   208  105  107 1    
   209  105  226 1    
   210  106  227 1    
   211  106  228 1    
   212  106  229 1    
   213  107  108 2    
   214  107  109 am   BACKBONE|DICT|INTERRES
   215  109  110 1    
   216  109  230 1    
   217  110  111 1    
   218  110  112 1    
   219  110  231 1    
   220  111  232 1    
   221  111  233 1    
   222  111  234 1    
   223  112  113 2    
   224  112  114 am   BACKBONE|DICT|INTERRES
   225  114  115 1    
   226  114  235 1    
   227  115  116 1    
   228  115  117 1    
   229  115  236 1    
   230  116  237 1    
   231  116  238 1    
   232  116  239 1    
   233  117  118 2    
   234  117  119 am   BACKBONE|DICT|INTERRES
   235  119  120 1    
   236  119  240 1    
   237  120  121 1    
   238  120  124 1    
   239  120  241 1    
   240  121  122 am   BACKBONE|DICT|INTERRES
   241  121  123 2    
   242  122  242 1    
   243  122  243 1    
   244  124  125 1    
   245  124  244 1    
   246  124  245 1    
   247  125  126 1    
   248  126  246 1    
   249  126  247 1    
@<TRIPOS>SUBSTRUCTURE
     1 UNK         1 GROUP             0       ****    0 ROOT    
