@<TRIPOS>MOLECULE
3R540
247   249    1
SMALL
USER_CHARGES


@<TRIPOS>ATOM
      1 CA         -2.4480  -12.9437  -46.1100 C.3       0 UNK        -0.1800 
      2 C          -1.4156  -12.0990  -46.8426 C.2       0 UNK         0.5000 
      3 O          -1.7830  -11.1296  -47.5071 O.2       0 UNK        -0.5000 
      4 N          -0.1326  -12.4602  -46.7268 N.am      1 UNK        -0.5000 
      5 CA          0.9923  -11.7063  -47.2877 C.3       1 UNK         0.1400 
      6 C6          2.2001  -12.6231  -47.6078 C.3       23 UNK        -0.0398 
      7 S7          1.8306  -13.7968  -48.9526 S.3       23 UNK        -0.2404 
      8 C8          1.6619  -15.3398  -48.0094 C.3       23 UNK        -0.0205 
      9 C9          1.1062  -16.4684  -48.8625 C.ar      23 UNK        -0.0193 
     10 C10        -0.2074  -16.4055  -49.3379 C.ar      23 UNK        -0.1150 
     11 C11        -0.7496  -17.4658  -50.0681 C.ar      23 UNK        -0.0193 
     12 C12         0.0401  -18.5830  -50.3475 C.ar      23 UNK        -0.1150 
     13 C13         1.3501  -18.6634  -49.8675 C.ar      23 UNK        -0.0193 
     14 C14         1.8816  -17.5999  -49.1325 C.ar      23 UNK        -0.1150 
     15 C15         2.1747  -19.9179  -50.1097 C.3       23 UNK        -0.0205 
     16 S16         2.1135  -21.0463  -48.6805 S.3       23 UNK        -0.2404 
     17 C17         0.3328  -21.4348  -48.6161 C.3       23 UNK        -0.0398 
     18 CA          0.0152  -22.6007  -47.6560 C.3       11 UNK         0.1400 
     19 N           0.2129  -22.2435  -46.2469 N.am      11 UNK        -0.5000 
     20 C           0.1761  -23.1229  -45.2360 C.2       10 UNK         0.5000 
     21 O          -0.0041  -24.3300  -45.3909 O.2       10 UNK        -0.5000 
     22 CA          0.3155  -22.5649  -43.8092 C.3       10 UNK         0.1400 
     23 CB          1.7787  -22.2227  -43.4916 C.3       10 UNK        -0.1800 
     24 N          -0.5332  -21.3972  -43.5758 N.am      10 UNK        -0.5000 
     25 C          -1.8735  -21.4091  -43.6175 C.2       9 UNK         0.5000 
     26 O          -2.5421  -22.4227  -43.8158 O.2       9 UNK        -0.5000 
     27 CA         -2.5882  -20.0531  -43.4638 C.3       9 UNK         0.1400 
     28 CB         -2.6830  -19.6419  -41.9873 C.3       9 UNK        -0.1800 
     29 N          -1.9460  -18.9874  -44.2338 N.am      9 UNK        -0.5000 
     30 C          -1.8081  -18.9987  -45.5678 C.2       8 UNK         0.5000 
     31 O          -2.2390  -19.8911  -46.2958 O.2       8 UNK        -0.5000 
     32 CA         -1.0001  -17.8478  -46.1825 C.3       8 UNK         0.1400 
     33 CB         -1.8641  -16.5850  -46.3137 C.3       8 UNK        -0.1800 
     34 N           0.2043  -17.5533  -45.4052 N.am      8 UNK        -0.5000 
     35 C           1.2401  -18.3970  -45.2849 C.2       7 UNK         0.5000 
     36 O           1.2948  -19.4960  -45.8340 O.2       7 UNK        -0.5000 
     37 CA          2.3737  -17.9680  -44.3365 C.3       7 UNK         0.1400 
     38 CB          3.3173  -16.9671  -45.0194 C.3       7 UNK        -0.1800 
     39 N           1.8642  -17.3858  -43.0957 N.am      7 UNK        -0.5000 
     40 C           1.1531  -18.0585  -42.1790 C.2       6 UNK         0.5000 
     41 O           0.9061  -19.2607  -42.2549 O.2       6 UNK        -0.5000 
     42 CA          0.5849  -17.2458  -41.0011 C.3       6 UNK         0.1400 
     43 CB          1.5540  -17.2787  -39.8102 C.3       6 UNK        -0.1800 
     44 N           0.2930  -15.8532  -41.3455 N.am      6 UNK        -0.5000 
     45 C          -0.6004  -15.4508  -42.2624 C.2       5 UNK         0.5000 
     46 O          -1.3007  -16.2248  -42.9156 O.2       5 UNK        -0.5000 
     47 CA         -0.6856  -13.9339  -42.5207 C.3       5 UNK         0.1400 
     48 CB         -1.8021  -13.3019  -41.6776 C.3       5 UNK        -0.1800 
     49 N           0.5838  -13.2597  -42.2353 N.am      5 UNK        -0.5000 
     50 C           1.6490  -13.2979  -43.0453 C.2       4 UNK         0.5000 
     51 O           1.6380  -13.7948  -44.1755 O.2       4 UNK        -0.5000 
     52 CA          2.9644  -12.7750  -42.4550 C.3       4 UNK         0.1400 
     53 CB          3.7576  -13.9556  -41.8560 C.3       4 UNK        -0.1800 
     54 N           3.7327  -12.1049  -43.4989 N.am      4 UNK        -0.5000 
     55 C           4.8552  -11.3975  -43.3128 C.2       3 UNK         0.5000 
     56 O           5.3897  -11.2293  -42.2159 O.2       3 UNK        -0.5000 
     57 CA          5.4792  -10.7487  -44.5624 C.3       3 UNK         0.1400 
     58 CB          6.2322  -11.7947  -45.3998 C.3       3 UNK        -0.1800 
     59 N           4.4854  -10.0813  -45.4021 N.am      3 UNK        -0.5000 
     60 C           3.8109   -8.9727  -45.0614 C.2       2 UNK         0.5000 
     61 O           4.0101   -8.3398  -44.0240 O.2       2 UNK        -0.5000 
     62 CA          2.7186   -8.4976  -46.0423 C.3       2 UNK         0.1400 
     63 CB          3.2776   -7.4309  -46.9963 C.3       2 UNK        -0.1800 
     64 N           2.1349   -9.5886  -46.8302 N.am      2 UNK        -0.5000 
     65 C           1.4088  -10.5886  -46.3118 C.2       1 UNK         0.5000 
     66 O           1.1176  -10.6648  -45.1155 O.2       1 UNK        -0.5000 
     67 C          -1.3997  -23.1531  -47.9229 C.2       11 UNK         0.5000 
     68 O          -1.5272  -24.1566  -48.6234 O.2       11 UNK        -0.5000 
     69 N          -2.4318  -22.5277  -47.3405 N.am      12 UNK        -0.5000 
     70 CA         -3.8194  -22.9860  -47.4240 C.3       12 UNK         0.1400 
     71 CB         -4.7538  -21.9133  -46.8469 C.3       12 UNK        -0.1800 
     72 C          -4.0450  -24.3456  -46.7347 C.2       12 UNK         0.5000 
     73 O          -4.8189  -25.1562  -47.2387 O.2       12 UNK        -0.5000 
     74 N          -3.3515  -24.5976  -45.6170 N.am      13 UNK        -0.5000 
     75 CA         -3.3664  -25.8880  -44.9290 C.3       13 UNK         0.1400 
     76 CB         -2.7597  -25.7354  -43.5256 C.3       13 UNK        -0.1800 
     77 C          -2.6386  -26.9866  -45.7269 C.2       13 UNK         0.5000 
     78 O          -3.1587  -28.0967  -45.8453 O.2       13 UNK        -0.5000 
     79 N          -1.4499  -26.6618  -46.2517 N.am      14 UNK        -0.5000 
     80 CA         -0.5735  -27.5990  -46.9522 C.3       14 UNK         0.1400 
     81 CB          0.8532  -27.0289  -46.9831 C.3       14 UNK        -0.1800 
     82 C          -1.0367  -27.9402  -48.3790 C.2       14 UNK         0.5000 
     83 O          -0.9314  -29.1001  -48.7804 O.2       14 UNK        -0.5000 
     84 N          -1.5014  -26.9318  -49.1272 N.am      15 UNK        -0.5000 
     85 CA         -1.7441  -27.0110  -50.5694 C.3       15 UNK         0.1400 
     86 CB         -0.6791  -26.1663  -51.2935 C.3       15 UNK        -0.1800 
     87 C          -3.1730  -26.5920  -50.9583 C.2       15 UNK         0.5000 
     88 O          -3.3990  -26.2424  -52.1186 O.2       15 UNK        -0.5000 
     89 N          -4.1108  -26.6296  -50.0003 N.am      16 UNK        -0.5000 
     90 CA         -5.5555  -26.3633  -50.1056 C.3       16 UNK         0.1400 
     91 CB         -6.2396  -27.3613  -51.0607 C.3       16 UNK        -0.1800 
     92 C          -5.9206  -24.9078  -50.4648 C.2       16 UNK         0.5000 
     93 O          -6.6694  -24.2646  -49.7294 O.2       16 UNK        -0.5000 
     94 N          -5.3905  -24.4206  -51.5885 N.am      17 UNK        -0.5000 
     95 CA         -5.5728  -23.0692  -52.1113 C.3       17 UNK         0.1400 
     96 CB         -6.8230  -23.0265  -53.0064 C.3       17 UNK        -0.1800 
     97 C          -4.3175  -22.5574  -52.8432 C.2       17 UNK         0.5000 
     98 O          -4.3831  -21.4914  -53.4609 O.2       17 UNK        -0.5000 
     99 N          -3.2018  -23.3020  -52.7674 N.am      18 UNK        -0.5000 
    100 CA        -1.8929  -23.0092  -53.3594 C.3       18 UNK         0.1400 
    101 CB        -1.2483  -21.7865  -52.6688 C.3       18 UNK        -0.1800 
    102 C         -1.9812  -22.8937  -54.8938 C.2       18 UNK         0.5000 
    103 O         -2.1356  -23.9130  -55.5663 O.2       18 UNK        -0.5000 
    104 N         -1.9366  -21.6623  -55.4166 N.am      19 UNK        -0.5000 
    105 CA        -2.0981  -21.3195  -56.8328 C.3       19 UNK         0.1400 
    106 CB        -1.3530  -19.9984  -57.0955 C.3       19 UNK        -0.1800 
    107 C         -3.5791  -21.2386  -57.2750 C.2       19 UNK         0.5000 
    108 O         -3.8779  -20.5772  -58.2703 O.2       19 UNK        -0.5000 
    109 N         -4.4765  -21.8894  -56.5193 N.am      20 UNK        -0.5000 
    110 CA        -5.9381  -21.8720  -56.6342 C.3       20 UNK         0.1400 
    111 CB        -6.4064  -22.4708  -57.9773 C.3       20 UNK        -0.1800 
    112 C         -6.5180  -20.4728  -56.3444 C.2       20 UNK         0.5000 
    113 O         -7.4159  -20.0130  -57.0529 O.2       20 UNK        -0.5000 
    114 N         -5.9719  -19.8161  -55.3126 N.am      21 UNK        -0.5000 
    115 CA        -6.3073  -18.4422  -54.9354 C.3       21 UNK         0.1400 
    116 CB        -5.3656  -17.4741  -55.6734 C.3       21 UNK        -0.1800 
    117 C         -6.2609  -18.1928  -53.4177 C.2       21 UNK         0.5000 
    118 O         -6.8793  -17.2301  -52.9603 O.2       21 UNK        -0.5000 
    119 N         -5.5312  -19.0245  -52.6623 N.am      22 UNK        -0.5000 
    120 CA        -5.3964  -18.9142  -51.2021 C.3       22 UNK         0.1400 
    121 C         -6.6269  -19.4612  -50.4219 C.2       22 UNK         0.5000 
    122 N         -6.6995  -19.2071  -49.1228 N.am      22 UNK        -0.7600 
    123 O         -7.5024  -20.1281  -50.9685 O.2       22 UNK        -0.5000 
    124 C124       -4.0602  -19.5408  -50.7136 C.3       23 UNK        -0.0398 
    125 S125       -3.2326  -18.4975  -49.4694 S.3       23 UNK        -0.2404 
    126 C126       -2.1976  -17.4277  -50.5233 C.3       23 UNK        -0.0205 
    127 H127       -1.9889  -13.7803  -45.5879 H         1 UNK         0.0600 
    128 H128       -2.9790  -12.3364  -45.3769 H         1 UNK         0.0600 
    129 H129       -3.1755  -13.3445  -46.8158 H         1 UNK         0.0600 
    130 H130        0.1244  -13.2089  -46.0990 H         1 UNK         0.3000 
    131 H131        0.6750  -11.2287  -48.2175 H         1 UNK         0.0600 
    132 H132        3.0576  -12.0341  -47.9374 H         1 UNK         0.0800 
    133 H133        2.5297  -13.1630  -46.7183 H         1 UNK         0.0800 
    134 H134        1.0038  -15.1810  -47.1551 H         1 UNK         0.0800 
    135 H135        2.6384  -15.6083  -47.6054 H         1 UNK         0.0800 
    136 H136       -0.8141  -15.5390  -49.1154 H         1 UNK         0.1150 
    137 H137       -0.3822  -19.4077  -50.9037 H         1 UNK         0.1150 
    138 H138        2.8896  -17.6688  -48.7484 H         1 UNK         0.1150 
    139 H139        1.8269  -20.4403  -51.0024 H         1 UNK         0.0800 
    140 H140        3.2130  -19.6435  -50.3012 H         1 UNK         0.0800 
    141 H141        0.0179  -21.6771  -49.6314 H         1 UNK         0.0800 
    142 H142       -0.2204  -20.5414  -48.3204 H         1 UNK         0.0800 
    143 H143        0.7089  -23.4141  -47.8807 H         1 UNK         0.0600 
    144 H144        0.4117  -21.2665  -46.0499 H         1 UNK         0.3000 
    145 H145       -0.0035  -23.3471  -43.1174 H         1 UNK         0.0600 
    146 H146        1.8938  -21.9143  -42.4524 H         1 UNK         0.0600 
    147 H147        2.4246  -23.0876  -43.6478 H         1 UNK         0.0600 
    148 H148        2.1520  -21.4158  -44.1223 H         1 UNK         0.0600 
    149 H149       -0.0565  -20.5282  -43.3532 H         1 UNK         0.3000 
    150 H150       -3.6035  -20.1680  -43.8488 H         1 UNK         0.0600 
    151 H151       -3.2373  -20.3853  -41.4133 H         1 UNK         0.0600 
    152 H152       -3.2005  -18.6891  -41.8737 H         1 UNK         0.0600 
    153 H153       -1.6986  -19.5460  -41.5306 H         1 UNK         0.0600 
    154 H154       -1.5788  -18.1973  -43.7161 H         1 UNK         0.3000 
    155 H155       -0.6895  -18.1612  -47.1806 H         1 UNK         0.0600 
    156 H156       -2.2610  -16.2595  -45.3527 H         1 UNK         0.0600 
    157 H157       -2.7151  -16.7660  -46.9709 H         1 UNK         0.0600 
    158 H158       -1.2972  -15.7595  -46.7397 H         1 UNK         0.0600 
    159 H159        0.2013  -16.7025  -44.8627 H         1 UNK         0.3000 
    160 H160        2.9494  -18.8606  -44.0823 H         1 UNK         0.0600 
    161 H161        4.1837  -16.7537  -44.3933 H         1 UNK         0.0600 
    162 H162        2.8179  -16.0214  -45.2295 H         1 UNK         0.0600 
    163 H163        3.6894  -17.3633  -45.9653 H         1 UNK         0.0600 
    164 H164        2.0081  -16.3962  -42.9644 H         1 UNK         0.3000 
    165 H165       -0.3512  -17.7158  -40.6944 H         1 UNK         0.0600 
    166 H166        1.1326  -16.7693  -38.9434 H         1 UNK         0.0600 
    167 H167        1.7671  -18.3055  -39.5097 H         1 UNK         0.0600 
    168 H168        2.5058  -16.8034  -40.0508 H         1 UNK         0.0600 
    169 H169        0.8147  -15.1488  -40.8470 H         1 UNK         0.3000 
    170 H170       -0.9303  -13.7888  -43.5729 H         1 UNK         0.0600 
    171 H171       -2.7634  -13.7722  -41.8893 H         1 UNK         0.0600 
    172 H172       -1.6122  -13.4085  -40.6088 H         1 UNK         0.0600 
    173 H173       -1.9065  -12.2391  -41.8968 H         1 UNK         0.0600 
    174 H174        0.6650  -12.8136  -41.3327 H         1 UNK         0.3000 
    175 H175        2.7390  -12.0489  -41.6714 H         1 UNK         0.0600 
    176 H176        4.0552  -14.6689  -42.6257 H         1 UNK         0.0600 
    177 H177        4.6604  -13.6208  -41.3462 H         1 UNK         0.0600 
    178 H178        3.1631  -14.4962  -41.1190 H         1 UNK         0.0600 
    179 H179        3.3265  -12.1711  -44.4219 H         1 UNK         0.3000 
    180 H180        6.1997   -9.9994  -44.2271 H         1 UNK         0.0600 
    181 H181        5.5612  -12.5589  -45.7941 H         1 UNK         0.0600 
    182 H182        6.9897  -12.3014  -44.8003 H         1 UNK         0.0600 
    183 H183        6.7443  -11.3303  -46.2427 H         1 UNK         0.0600 
    184 H184        4.2756  -10.5127  -46.2886 H         1 UNK         0.3000 
    185 H185        1.9210   -8.0431  -45.4506 H         1 UNK         0.0600 
    186 H186        3.6972   -6.5914  -46.4404 H         1 UNK         0.0600 
    187 H187        4.0687   -7.8322  -47.6310 H         1 UNK         0.0600 
    188 H188        2.4964   -7.0316  -47.6435 H         1 UNK         0.0600 
    189 H189        2.3251   -9.5754  -47.8223 H         1 UNK         0.3000 
    190 H190       -2.2668  -21.6714  -46.8146 H         1 UNK         0.3000 
    191 H191       -4.0647  -23.1101  -48.4810 H         1 UNK         0.0600 
    192 H192       -4.5409  -21.7193  -45.7952 H         1 UNK         0.0600 
    193 H193       -5.7969  -22.2226  -46.9233 H         1 UNK         0.0600 
    194 H194       -4.6532  -20.9724  -47.3886 H         1 UNK         0.0600 
    195 H195       -2.7825  -23.8631  -45.2085 H         1 UNK         0.3000 
    196 H196       -4.4066  -26.1983  -44.8092 H         1 UNK         0.0600 
    197 H197       -2.7689  -26.6857  -42.9904 H         1 UNK         0.0600 
    198 H198       -3.3262  -25.0205  -42.9287 H         1 UNK         0.0600 
    199 H199       -1.7263  -25.3906  -43.5656 H         1 UNK         0.0600 
    200 H200       -1.0689  -25.7367  -46.0677 H         1 UNK         0.3000 
    201 H201       -0.5468  -28.5304  -46.3824 H         1 UNK         0.0600 
    202 H202        1.2343  -26.8666  -45.9747 H         1 UNK         0.0600 
    203 H203        0.8936  -26.0760  -47.5127 H         1 UNK         0.0600 
    204 H204        1.5392  -27.7135  -47.4836 H         1 UNK         0.0600 
    205 H205       -1.5504  -25.9948  -48.7300 H         1 UNK         0.3000 
    206 H206       -1.6392  -28.0402  -50.9173 H         1 UNK         0.0600 
    207 H207        0.3270  -26.4900  -51.0265 H         1 UNK         0.0600 
    208 H208       -0.7683  -26.2589  -52.3765 H         1 UNK         0.0600 
    209 H209       -0.7661  -25.1090  -51.0420 H         1 UNK         0.0600 
    210 H210       -3.7970  -26.8707  -49.0700 H         1 UNK         0.3000 
    211 H211       -5.9648  -26.5521  -49.1126 H         1 UNK         0.0600 
    212 H212       -5.8897  -27.2568  -52.0879 H         1 UNK         0.0600 
    213 H213       -7.3198  -27.2109  -51.0695 H         1 UNK         0.0600 
    214 H214       -6.0582  -28.3899  -50.7491 H         1 UNK         0.0600 
    215 H215       -4.7825  -25.0443  -52.1140 H         1 UNK         0.3000 
    216 H216       -5.7267  -22.3844  -51.2755 H         1 UNK         0.0600 
    217 H217       -6.9917  -22.0262  -53.4070 H         1 UNK         0.0600 
    218 H218       -7.7160  -23.2957  -52.4422 H         1 UNK         0.0600 
    219 H219       -6.7380  -23.7183  -53.8445 H         1 UNK         0.0600 
    220 H220       -3.2547  -24.1956  -52.2952 H         1 UNK         0.3000 
    221 H221       -1.2594  -23.8727  -53.1551 H         1 UNK         0.0600 
    222 H222       -1.8099  -20.8672  -52.8308 H         1 UNK         0.0600 
    223 H223       -1.1856  -21.9447  -51.5933 H         1 UNK         0.0600 
    224 H224       -0.2330  -21.6222  -53.0318 H         1 UNK         0.0600 
    225 H225       -1.8596  -20.8832  -54.7792 H         1 UNK         0.3000 
    226 H226       -1.6278  -22.0963  -57.4390 H         1 UNK         0.0600 
    227 H227       -0.3086  -20.0669  -56.7907 H         1 UNK         0.0600 
    228 H228       -1.3608  -19.7439  -58.1560 H         1 UNK         0.0600 
    229 H229       -1.8076  -19.1677  -56.5541 H         1 UNK         0.0600 
    230 H230       -4.1135  -22.3771  -55.7125 H         1 UNK         0.3000 
    231 H231       -6.3121  -22.5240  -55.8460 H         1 UNK         0.0600 
    232 H232       -5.9697  -23.4555  -58.1431 H         1 UNK         0.0600 
    233 H233       -6.1390  -21.8377  -58.8235 H         1 UNK         0.0600 
    234 H234       -7.4903  -22.5906  -57.9918 H         1 UNK         0.0600 
    235 H235       -5.2571  -20.2878  -54.7699 H         1 UNK         0.3000 
    236 H236       -7.3326  -18.2242  -55.2419 H         1 UNK         0.0600 
    237 H237       -5.5876  -16.4372  -55.4181 H         1 UNK         0.0600 
    238 H238       -4.3216  -17.6609  -55.4189 H         1 UNK         0.0600 
    239 H239       -5.4682  -17.5708  -56.7544 H         1 UNK         0.0600 
    240 H240       -5.0899  -19.8366  -53.0793 H         1 UNK         0.3000 
    241 H241       -5.3671  -17.8439  -50.9868 H         1 UNK         0.0600 
    242 H242       -7.4864  -19.5561  -48.5988 H         1 UNK         0.3800 
    243 H243       -5.9828  -18.6761  -48.6523 H         1 UNK         0.3800 
    244 H244       -4.2089  -20.5351  -50.2885 H         1 UNK         0.0800 
    245 H245       -3.3695  -19.6913  -51.5423 H         1 UNK         0.0800 
    246 H246       -2.2534  -17.7258  -51.5708 H         1 UNK         0.0800 
    247 H247       -2.5877  -16.4098  -50.4791 H         1 UNK         0.0800 
@<TRIPOS>BOND
     1    1    2 1    
     2    1  127 1    
     3    1  128 1    
     4    1  129 1    
     5    2    3 2    
     6    2    4 am   BACKBONE|DICT|INTERRES
     7    4    5 1    
     8    4  130 1    
     9    5    6 1    
    10    5   65 1    
    11    5  131 1    
    12    6    7 1    
    13    6  132 1    
    14    6  133 1    
    15    7    8 1    
    16    8    9 1    
    17    8  134 1    
    18    8  135 1    
    19    9   10 ar   
    20    9   14 ar   
    21   10   11 ar   
    22   10  136 1    
    23   11   12 ar   
    24   11  126 1    
    25   12   13 ar   
    26   12  137 1    
    27   13   14 ar   
    28   13   15 1    
    29   14  138 1    
    30   15   16 1    
    31   15  139 1    
    32   15  140 1    
    33   16   17 1    
    34   17   18 1    
    35   17  141 1    
    36   17  142 1    
    37   18   19 1    
    38   18   67 1    
    39   18  143 1    
    40   19   20 am   BACKBONE|DICT|INTERRES
    41   19  144 1    
    42   20   21 2    
    43   20   22 1    
    44   22   23 1    
    45   22   24 1    
    46   22  145 1    
    47   23  146 1    
    48   23  147 1    
    49   23  148 1    
    50   24   25 am   BACKBONE|DICT|INTERRES
    51   24  149 1    
    52   25   26 2    
    53   25   27 1    
    54   27   28 1    
    55   27   29 1    
    56   27  150 1    
    57   28  151 1    
    58   28  152 1    
    59   28  153 1    
    60   29   30 am   BACKBONE|DICT|INTERRES
    61   29  154 1    
    62   30   31 2    
    63   30   32 1    
    64   32   33 1    
    65   32   34 1    
    66   32  155 1    
    67   33  156 1    
    68   33  157 1    
    69   33  158 1    
    70   34   35 am   BACKBONE|DICT|INTERRES
    71   34  159 1    
    72   35   36 2    
    73   35   37 1    
    74   37   38 1    
    75   37   39 1    
    76   37  160 1    
    77   38  161 1    
    78   38  162 1    
    79   38  163 1    
    80   39   40 am   BACKBONE|DICT|INTERRES
    81   39  164 1    
    82   40   41 2    
    83   40   42 1    
    84   42   43 1    
    85   42   44 1    
    86   42  165 1    
    87   43  166 1    
    88   43  167 1    
    89   43  168 1    
    90   44   45 am   BACKBONE|DICT|INTERRES
    91   44  169 1    
    92   45   46 2    
    93   45   47 1    
    94   47   48 1    
    95   47   49 1    
    96   47  170 1    
    97   48  171 1    
    98   48  172 1    
    99   48  173 1    
   100   49   50 am   BACKBONE|DICT|INTERRES
   101   49  174 1    
   102   50   51 2    
   103   50   52 1    
   104   52   53 1    
   105   52   54 1    
   106   52  175 1    
   107   53  176 1    
   108   53  177 1    
   109   53  178 1    
   110   54   55 am   BACKBONE|DICT|INTERRES
   111   54  179 1    
   112   55   56 2    
   113   55   57 1    
   114   57   58 1    
   115   57   59 1    
   116   57  180 1    
   117   58  181 1    
   118   58  182 1    
   119   58  183 1    
   120   59   60 am   BACKBONE|DICT|INTERRES
   121   59  184 1    
   122   60   61 2    
   123   60   62 1    
   124   62   63 1    
   125   62   64 1    
   126   62  185 1    
   127   63  186 1    
   128   63  187 1    
   129   63  188 1    
   130   64   65 am   BACKBONE|DICT|INTERRES
   131   64  189 1    
   132   65   66 2    
   133   67   68 2    
   134   67   69 am   BACKBONE|DICT|INTERRES
   135   69   70 1    
   136   69  190 1    
   137   70   71 1    
   138   70   72 1    
   139   70  191 1    
   140   71  192 1    
   141   71  193 1    
   142   71  194 1    
   143   72   73 2    
   144   72   74 am   BACKBONE|DICT|INTERRES
   145   74   75 1    
   146   74  195 1    
   147   75   76 1    
   148   75   77 1    
   149   75  196 1    
   150   76  197 1    
   151   76  198 1    
   152   76  199 1    
   153   77   78 2    
   154   77   79 am   BACKBONE|DICT|INTERRES
   155   79   80 1    
   156   79  200 1    
   157   80   81 1    
   158   80   82 1    
   159   80  201 1    
   160   81  202 1    
   161   81  203 1    
   162   81  204 1    
   163   82   83 2    
   164   82   84 am   BACKBONE|DICT|INTERRES
   165   84   85 1    
   166   84  205 1    
   167   85   86 1    
   168   85   87 1    
   169   85  206 1    
   170   86  207 1    
   171   86  208 1    
   172   86  209 1    
   173   87   88 2    
   174   87   89 am   BACKBONE|DICT|INTERRES
   175   89   90 1    
   176   89  210 1    
   177   90   91 1    
   178   90   92 1    
   179   90  211 1    
   180   91  212 1    
   181   91  213 1    
   182   91  214 1    
   183   92   93 2    
   184   92   94 am   BACKBONE|DICT|INTERRES
   185   94   95 1    
   186   94  215 1    
   187   95   96 1    
   188   95   97 1    
   189   95  216 1    
   190   96  217 1    
   191   96  218 1    
   192   96  219 1    
   193   97   98 2    
   194   97   99 am   BACKBONE|DICT|INTERRES
   195   99  100 1    
   196   99  220 1    
   197  100  101 1    
   198  100  102 1    
   199  100  221 1    
   200  101  222 1    
   201  101  223 1    
   202  101  224 1    
   203  102  103 2    
   204  102  104 am   BACKBONE|DICT|INTERRES
   205  104  105 1    
   206  104  225 1    
   207  105  106 1    
   208  105  107 1    
   209  105  226 1    
   210  106  227 1    
   211  106  228 1    
   212  106  229 1    
   213  107  108 2    
   214  107  109 am   BACKBONE|DICT|INTERRES
   215  109  110 1    
   216  109  230 1    
   217  110  111 1    
   218  110  112 1    
   219  110  231 1    
   220  111  232 1    
   221  111  233 1    
   222  111  234 1    
   223  112  113 2    
   224  112  114 am   BACKBONE|DICT|INTERRES
   225  114  115 1    
   226  114  235 1    
   227  115  116 1    
   228  115  117 1    
   229  115  236 1    
   230  116  237 1    
   231  116  238 1    
   232  116  239 1    
   233  117  118 2    
   234  117  119 am   BACKBONE|DICT|INTERRES
   235  119  120 1    
   236  119  240 1    
   237  120  121 1    
   238  120  124 1    
   239  120  241 1    
   240  121  122 am   BACKBONE|DICT|INTERRES
   241  121  123 2    
   242  122  242 1    
   243  122  243 1    
   244  124  125 1    
   245  124  244 1    
   246  124  245 1    
   247  125  126 1    
   248  126  246 1    
   249  126  247 1    
@<TRIPOS>SUBSTRUCTURE
     1 UNK         1 GROUP             0       ****    0 ROOT    
