@<TRIPOS>MOLECULE
3R540
247   249    1
SMALL
USER_CHARGES


@<TRIPOS>ATOM
      1 CA         -3.7996  -14.6247  -43.7603 C.3       0 UNK        -0.1800 
      2 C          -3.4999  -13.3997  -44.6118 C.2       0 UNK         0.5000 
      3 O          -3.2164  -12.3307  -44.0726 O.2       0 UNK        -0.5000 
      4 N          -3.5314  -13.5547  -45.9414 N.am      1 UNK        -0.5000 
      5 CA         -3.2844  -12.5015  -46.9393 C.3       1 UNK         0.1400 
      6 C6         -3.6889  -12.9458  -48.3684 C.3       23 UNK        -0.0398 
      7 S7         -3.1246  -14.6208  -48.8384 S.3       23 UNK        -0.2404 
      8 C8         -1.6612  -14.2716  -49.8619 C.3       23 UNK        -0.0205 
      9 C9         -1.3340  -15.4694  -50.7405 C.ar      23 UNK        -0.0193 
     10 C10        -1.6135  -15.4370  -52.1094 C.ar      23 UNK        -0.1150 
     11 C11        -1.3484  -16.5494  -52.9114 C.ar      23 UNK        -0.0193 
     12 C12        -0.8201  -17.7047  -52.3281 C.ar      23 UNK        -0.1150 
     13 C13        -0.5534  -17.7664  -50.9581 C.ar      23 UNK        -0.0193 
     14 C14        -0.7821  -16.6238  -50.1770 C.ar      23 UNK        -0.1150 
     15 C15        -0.0535  -19.0995  -50.3920 C.3       23 UNK        -0.0205 
     16 S16         0.2686  -19.1665  -48.5965 S.3       23 UNK        -0.2404 
     17 C17        -1.3931  -18.9224  -47.8821 C.3       23 UNK        -0.0398 
     18 CA         -2.0224  -20.1857  -47.2495 C.3       11 UNK         0.1400 
     19 N          -1.1146  -20.9054  -46.3552 N.am      11 UNK        -0.5000 
     20 C          -1.2800  -22.1672  -45.9425 C.2       10 UNK         0.5000 
     21 O          -2.1517  -22.9162  -46.3926 O.2       10 UNK        -0.5000 
     22 CA         -0.3530  -22.6339  -44.7994 C.3       10 UNK         0.1400 
     23 CB         -0.2093  -24.1671  -44.7177 C.3       10 UNK        -0.1800 
     24 N           0.9527  -21.9633  -44.8084 N.am      10 UNK        -0.5000 
     25 C           1.9395  -22.1126  -45.7056 C.2       9 UNK         0.5000 
     26 O           1.9010  -22.9097  -46.6415 O.2       9 UNK        -0.5000 
     27 CA          3.1865  -21.2205  -45.5457 C.3       9 UNK         0.1400 
     28 CB          3.2460  -20.1777  -46.6713 C.3       9 UNK        -0.1800 
     29 N           3.2600  -20.5295  -44.2564 N.am      9 UNK        -0.5000 
     30 C           3.6212  -21.1094  -43.1039 C.2       8 UNK         0.5000 
     31 O           3.9423  -22.2943  -43.0062 O.2       8 UNK        -0.5000 
     32 CA          3.6046  -20.2222  -41.8454 C.3       8 UNK         0.1400 
     33 CB          4.8912  -19.3874  -41.7573 C.3       8 UNK        -0.1800 
     34 N           2.4416  -19.3348  -41.7744 N.am      8 UNK        -0.5000 
     35 C           1.1708  -19.7458  -41.6537 C.2       7 UNK         0.5000 
     36 O           0.8338  -20.9289  -41.6081 O.2       7 UNK        -0.5000 
     37 CA          0.0885  -18.6516  -41.6245 C.3       7 UNK         0.1400 
     38 CB          0.0432  -17.9383  -40.2653 C.3       7 UNK        -0.1800 
     39 N           0.2740  -17.6724  -42.6935 N.am      7 UNK        -0.5000 
     40 C           0.1314  -17.9506  -43.9954 C.2       6 UNK         0.5000 
     41 O          -0.2849  -19.0277  -44.4224 O.2       6 UNK        -0.5000 
     42 CA          0.5328  -16.8543  -44.9937 C.3       6 UNK         0.1400 
     43 CB         -0.6654  -15.9480  -45.3174 C.3       6 UNK        -0.1800 
     44 N           1.6673  -16.0564  -44.5226 N.am      6 UNK        -0.5000 
     45 C           2.9180  -16.5286  -44.4095 C.2       5 UNK         0.5000 
     46 O           3.2490  -17.6677  -44.7323 O.2       5 UNK        -0.5000 
     47 CA          3.9606  -15.5981  -43.7680 C.3       5 UNK         0.1400 
     48 CB          4.5676  -14.6461  -44.8080 C.3       5 UNK        -0.1800 
     49 N           3.3987  -14.8375  -42.6512 N.am      5 UNK        -0.5000 
     50 C           3.0658  -15.3933  -41.4763 C.2       4 UNK         0.5000 
     51 O           3.2300  -16.5858  -41.2208 O.2       4 UNK        -0.5000 
     52 CA          2.4020  -14.4889  -40.4216 C.3       4 UNK         0.1400 
     53 CB          3.4634  -13.8715  -39.4995 C.3       4 UNK        -0.1800 
     54 N           1.5794  -13.4213  -40.9905 N.am      4 UNK        -0.5000 
     55 C           0.5010  -13.6026  -41.7641 C.2       3 UNK         0.5000 
     56 O           0.0813  -14.7131  -42.0965 O.2       3 UNK        -0.5000 
     57 CA         -0.2160  -12.3384  -42.2835 C.3       3 UNK         0.1400 
     58 CB          0.3459  -11.0123  -41.7230 C.3       3 UNK        -0.1800 
     59 N          -0.2511  -12.2873  -43.7476 N.am      3 UNK        -0.5000 
     60 C           0.7917  -12.3565  -44.5913 C.2       2 UNK         0.5000 
     61 O           1.9560  -12.5047  -44.2180 O.2       2 UNK        -0.5000 
     62 CA          0.4794  -12.2649  -46.0996 C.3       2 UNK         0.1400 
     63 CB          1.4483  -13.1016  -46.9551 C.3       2 UNK        -0.1800 
     64 N          -0.8958  -12.6860  -46.3738 N.am      2 UNK        -0.5000 
     65 C          -1.8533  -11.9179  -46.9066 C.2       1 UNK         0.5000 
     66 O          -1.6584  -10.7798  -47.3352 O.2       1 UNK        -0.5000 
     67 C          -3.2964  -19.7865  -46.4819 C.2       11 UNK         0.5000 
     68 O          -4.3954  -19.9112  -47.0175 O.2       11 UNK        -0.5000 
     69 N          -3.1267  -19.3578  -45.2198 N.am      12 UNK        -0.5000 
     70 CA         -4.2126  -18.9796  -44.3085 C.3       12 UNK         0.1400 
     71 CB         -3.6128  -18.3217  -43.0572 C.3       12 UNK        -0.1800 
     72 C          -5.1021  -20.1747  -43.9117 C.2       12 UNK         0.5000 
     73 O          -6.2929  -19.9959  -43.6572 O.2       12 UNK        -0.5000 
     74 N          -4.5070  -21.3751  -43.9038 N.am      13 UNK        -0.5000 
     75 CA         -5.1846  -22.6582  -43.7128 C.3       13 UNK         0.1400 
     76 CB         -4.1494  -23.6800  -43.2149 C.3       13 UNK        -0.1800 
     77 C          -5.8691  -23.1737  -44.9972 C.2       13 UNK         0.5000 
     78 O          -6.5733  -24.1817  -44.9350 O.2       13 UNK        -0.5000 
     79 N          -5.6300  -22.4975  -46.1325 N.am      14 UNK        -0.5000 
     80 CA         -6.0813  -22.8220  -47.4883 C.3       14 UNK         0.1400 
     81 CB         -7.6172  -22.7293  -47.5997 C.3       14 UNK        -0.1800 
     82 C          -5.5151  -24.1545  -48.0217 C.2       14 UNK         0.5000 
     83 O          -6.1435  -24.7881  -48.8701 O.2       14 UNK        -0.5000 
     84 N          -4.3377  -24.5576  -47.5240 N.am      15 UNK        -0.5000 
     85 CA         -3.6482  -25.7788  -47.9334 C.3       15 UNK         0.1400 
     86 CB         -2.8613  -26.3467  -46.7429 C.3       15 UNK        -0.1800 
     87 C          -2.7194  -25.5085  -49.1259 C.2       15 UNK         0.5000 
     88 O          -2.7062  -26.2943  -50.0736 O.2       15 UNK        -0.5000 
     89 N          -1.9719  -24.3961  -49.0662 N.am      16 UNK        -0.5000 
     90 CA         -1.0625  -23.9655  -50.1319 C.3       16 UNK         0.1400 
     91 CB         -0.0863  -22.9190  -49.5807 C.3       16 UNK        -0.1800 
     92 C          -1.8082  -23.4130  -51.3580 C.2       16 UNK         0.5000 
     93 O          -1.3637  -23.6137  -52.4884 O.2       16 UNK        -0.5000 
     94 N          -2.9377  -22.7410  -51.1180 N.am      17 UNK        -0.5000 
     95 CA         -3.8172  -22.2191  -52.1505 C.3       17 UNK         0.1400 
     96 CB         -3.3037  -20.8564  -52.6556 C.3       17 UNK        -0.1800 
     97 C          -5.2345  -22.1036  -51.5644 C.2       17 UNK         0.5000 
     98 O          -5.4062  -21.3109  -50.6408 O.2       17 UNK        -0.5000 
     99 N          -6.2583  -22.8314  -52.0422 N.am      18 UNK        -0.5000 
    100 CA        -6.3034  -23.9484  -53.0025 C.3       18 UNK         0.1400 
    101 CB        -5.5353  -25.1704  -52.4537 C.3       18 UNK        -0.1800 
    102 C         -5.9005  -23.6123  -54.4542 C.2       18 UNK         0.5000 
    103 O         -5.6962  -24.5295  -55.2487 O.2       18 UNK        -0.5000 
    104 N         -5.7346  -22.3172  -54.7611 N.am      19 UNK        -0.5000 
    105 CA        -5.2419  -21.7093  -56.0087 C.3       19 UNK         0.1400 
    106 CB        -6.2178  -21.9796  -57.1689 C.3       19 UNK        -0.1800 
    107 C         -3.7940  -22.0673  -56.4237 C.2       19 UNK         0.5000 
    108 O         -3.1542  -21.2472  -57.0788 O.2       19 UNK        -0.5000 
    109 N         -3.3067  -23.2604  -56.0561 N.am      20 UNK        -0.5000 
    110 CA        -2.0507  -23.8818  -56.4873 C.3       20 UNK         0.1400 
    111 CB        -1.8621  -25.2142  -55.7453 C.3       20 UNK        -0.1800 
    112 C         -0.8008  -22.9913  -56.3643 C.2       20 UNK         0.5000 
    113 O         -0.1263  -22.7604  -57.3699 O.2       20 UNK        -0.5000 
    114 N         -0.5350  -22.4648  -55.1595 N.am      21 UNK        -0.5000 
    115 CA         0.5956  -21.5659  -54.8902 C.3       21 UNK         0.1400 
    116 CB         0.7688  -21.3819  -53.3739 C.3       21 UNK        -0.1800 
    117 C          0.5145  -20.1993  -55.6045 C.2       21 UNK         0.5000 
    118 O          1.5324  -19.5107  -55.6884 O.2       21 UNK        -0.5000 
    119 N         -0.6679  -19.8361  -56.1175 N.am      22 UNK        -0.5000 
    120 CA        -0.8918  -18.6421  -56.9466 C.3       22 UNK         0.1400 
    121 C         -0.6370  -18.8827  -58.4642 C.2       22 UNK         0.5000 
    122 N         -0.3273  -20.0947  -58.9129 N.am      22 UNK        -0.7600 
    123 O         -0.7044  -17.9436  -59.2529 O.2       22 UNK        -0.5000 
    124 C124       -2.2873  -17.9985  -56.7054 C.3       23 UNK        -0.0398 
    125 S125       -2.7432  -17.8241  -54.9446 S.3       23 UNK        -0.2404 
    126 C126       -1.6074  -16.5032  -54.4098 C.3       23 UNK        -0.0205 
    127 H127       -4.0162  -15.4993  -44.3739 H         1 UNK         0.0600 
    128 H128       -2.9464  -14.8568  -43.1223 H         1 UNK         0.0600 
    129 H129       -4.6620  -14.4356  -43.1214 H         1 UNK         0.0600 
    130 H130       -3.7624  -14.4575  -46.3326 H         1 UNK         0.3000 
    131 H131       -3.9390  -11.6689  -46.6721 H         1 UNK         0.0600 
    132 H132       -3.3774  -12.2157  -49.1177 H         1 UNK         0.0800 
    133 H133       -4.7779  -12.9599  -48.4288 H         1 UNK         0.0800 
    134 H134       -0.8120  -14.0380  -49.2185 H         1 UNK         0.0800 
    135 H135       -1.8391  -13.3895  -50.4787 H         1 UNK         0.0800 
    136 H136       -2.0370  -14.5454  -52.5501 H         1 UNK         0.1150 
    137 H137       -0.6316  -18.5691  -52.9492 H         1 UNK         0.1150 
    138 H138       -0.5719  -16.6245  -49.1185 H         1 UNK         0.1150 
    139 H139       -0.7752  -19.8797  -50.6386 H         1 UNK         0.0800 
    140 H140        0.8723  -19.3650  -50.9039 H         1 UNK         0.0800 
    141 H141       -2.0668  -18.5313  -48.6461 H         1 UNK         0.0800 
    142 H142       -1.2929  -18.1299  -47.1413 H         1 UNK         0.0800 
    143 H143       -2.3167  -20.8582  -48.0577 H         1 UNK         0.0600 
    144 H144       -0.4118  -20.3423  -45.8888 H         1 UNK         0.3000 
    145 H145       -0.8368  -22.3083  -43.8775 H         1 UNK         0.0600 
    146 H146        0.1336  -24.5956  -45.6597 H         1 UNK         0.0600 
    147 H147        0.4969  -24.4562  -43.9393 H         1 UNK         0.0600 
    148 H148       -1.1628  -24.6351  -44.4749 H         1 UNK         0.0600 
    149 H149        1.0922  -21.2802  -44.0756 H         1 UNK         0.3000 
    150 H150        4.0600  -21.8686  -45.6426 H         1 UNK         0.0600 
    151 H151        3.1884  -20.6486  -47.6536 H         1 UNK         0.0600 
    152 H152        4.1769  -19.6117  -46.6358 H         1 UNK         0.0600 
    153 H153        2.4217  -19.4684  -46.5977 H         1 UNK         0.0600 
    154 H154        3.0751  -19.5298  -44.2707 H         1 UNK         0.3000 
    155 H155        3.5705  -20.8830  -40.9767 H         1 UNK         0.0600 
    156 H156        4.9637  -18.6734  -42.5785 H         1 UNK         0.0600 
    157 H157        5.7756  -20.0245  -41.7953 H         1 UNK         0.0600 
    158 H158        4.9340  -18.8274  -40.8230 H         1 UNK         0.0600 
    159 H159        2.6376  -18.3376  -41.7647 H         1 UNK         0.3000 
    160 H160       -0.8745  -19.1404  -41.7761 H         1 UNK         0.0600 
    161 H161       -0.7370  -17.1770  -40.2460 H         1 UNK         0.0600 
    162 H162        0.9894  -17.4535  -40.0285 H         1 UNK         0.0600 
    163 H163       -0.1707  -18.6456  -39.4633 H         1 UNK         0.0600 
    164 H164        0.5417  -16.7330  -42.4230 H         1 UNK         0.3000 
    165 H165        0.8305  -17.3593  -45.9153 H         1 UNK         0.0600 
    166 H166       -0.5024  -15.4147  -46.2522 H         1 UNK         0.0600 
    167 H167       -1.5835  -16.5240  -45.4400 H         1 UNK         0.0600 
    168 H168       -0.8464  -15.2203  -44.5275 H         1 UNK         0.0600 
    169 H169        1.4688  -15.1333  -44.1642 H         1 UNK         0.3000 
    170 H170        4.7685  -16.2227  -43.3807 H         1 UNK         0.0600 
    171 H171        5.0512  -15.2058  -45.6095 H         1 UNK         0.0600 
    172 H172        3.8126  -14.0098  -45.2667 H         1 UNK         0.0600 
    173 H173        5.3232  -14.0010  -44.3597 H         1 UNK         0.0600 
    174 H174        3.1828  -13.8627  -42.8203 H         1 UNK         0.3000 
    175 H175        1.7488  -15.1186  -39.8146 H         1 UNK         0.0600 
    176 H176        3.0026  -13.3027  -38.6917 H         1 UNK         0.0600 
    177 H177        4.0790  -14.6459  -39.0395 H         1 UNK         0.0600 
    178 H178        4.1304  -13.2026  -40.0449 H         1 UNK         0.0600 
    179 H179        1.8683  -12.4752  -40.7892 H         1 UNK         0.3000 
    180 H180       -1.2520  -12.4243  -41.9527 H         1 UNK         0.0600 
    181 H181        1.3798  -10.8412  -42.0257 H         1 UNK         0.0600 
    182 H182        0.3051  -10.9927  -40.6332 H         1 UNK         0.0600 
    183 H183       -0.2417  -10.1649  -42.0763 H         1 UNK         0.0600 
    184 H184       -1.1811  -12.1824  -44.1386 H         1 UNK         0.3000 
    185 H185        0.6169  -11.2167  -46.3713 H         1 UNK         0.0600 
    186 H186        1.4482  -14.1521  -46.6673 H         1 UNK         0.0600 
    187 H187        1.1893  -13.0439  -48.0122 H         1 UNK         0.0600 
    188 H188        2.4703  -12.7344  -46.8574 H         1 UNK         0.0600 
    189 H189       -1.1584  -13.6039  -46.0469 H         1 UNK         0.3000 
    190 H190       -2.1815  -19.2969  -44.8536 H         1 UNK         0.3000 
    191 H191       -4.8405  -18.2458  -44.8183 H         1 UNK         0.0600 
    192 H192       -2.9355  -17.5081  -43.3155 H         1 UNK         0.0600 
    193 H193       -3.0587  -19.0422  -42.4563 H         1 UNK         0.0600 
    194 H194       -4.3969  -17.9045  -42.4243 H         1 UNK         0.0600 
    195 H195       -3.5236  -21.4152  -44.1214 H         1 UNK         0.3000 
    196 H196       -5.9552  -22.5448  -42.9476 H         1 UNK         0.0600 
    197 H197       -4.6215  -24.6368  -42.9882 H         1 UNK         0.0600 
    198 H198       -3.6593  -23.3374  -42.3034 H         1 UNK         0.0600 
    199 H199       -3.3792  -23.8662  -43.9634 H         1 UNK         0.0600 
    200 H200       -5.0623  -21.6612  -46.0754 H         1 UNK         0.3000 
    201 H201       -5.6636  -22.0462  -48.1292 H         1 UNK         0.0600 
    202 H202       -7.9824  -21.7756  -47.2187 H         1 UNK         0.0600 
    203 H203       -8.1139  -23.5262  -47.0458 H         1 UNK         0.0600 
    204 H204       -7.9376  -22.8050  -48.6394 H         1 UNK         0.0600 
    205 H205       -3.8476  -23.9601  -46.8673 H         1 UNK         0.3000 
    206 H206       -4.3807  -26.5305  -48.2357 H         1 UNK         0.0600 
    207 H207       -3.5148  -26.5336  -45.8905 H         1 UNK         0.0600 
    208 H208       -2.3878  -27.2932  -47.0060 H         1 UNK         0.0600 
    209 H209       -2.0742  -25.6672  -46.4191 H         1 UNK         0.0600 
    210 H210       -2.0177  -23.8219  -48.2315 H         1 UNK         0.3000 
    211 H211       -0.4804  -24.8287  -50.4615 H         1 UNK         0.0600 
    212 H212       -0.6064  -22.0472  -49.1874 H         1 UNK         0.0600 
    213 H213        0.6000  -22.5714  -50.3537 H         1 UNK         0.0600 
    214 H214        0.5168  -23.3394  -48.7780 H         1 UNK         0.0600 
    215 H215       -3.2625  -22.6339  -50.1677 H         1 UNK         0.3000 
    216 H216       -3.7988  -22.9085  -52.9893 H         1 UNK         0.0600 
    217 H217       -4.0248  -20.3832  -53.3224 H         1 UNK         0.0600 
    218 H218       -2.3795  -20.9661  -53.2195 H         1 UNK         0.0600 
    219 H219       -3.1171  -20.1634  -51.8342 H         1 UNK         0.0600 
    220 H220       -7.1570  -22.6438  -51.6212 H         1 UNK         0.3000 
    221 H221       -7.3544  -24.2349  -53.0607 H         1 UNK         0.0600 
    222 H222       -4.4597  -25.0063  -52.4014 H         1 UNK         0.0600 
    223 H223       -5.8784  -25.4329  -51.4537 H         1 UNK         0.0600 
    224 H224       -5.6949  -26.0483  -53.0808 H         1 UNK         0.0600 
    225 H225       -5.9693  -21.6522  -54.0380 H         1 UNK         0.3000 
    226 H226       -5.2424  -20.6332  -55.8272 H         1 UNK         0.0600 
    227 H227       -7.2262  -21.6485  -56.9211 H         1 UNK         0.0600 
    228 H228       -6.2648  -23.0388  -57.4234 H         1 UNK         0.0600 
    229 H229       -5.9121  -21.4429  -58.0680 H         1 UNK         0.0600 
    230 H230       -3.9633  -23.8777  -55.5894 H         1 UNK         0.3000 
    231 H231       -2.1696  -24.1116  -57.5479 H         1 UNK         0.0600 
    232 H232       -2.6737  -25.9067  -55.9697 H         1 UNK         0.0600 
    233 H233       -1.8343  -25.0755  -54.6646 H         1 UNK         0.0600 
    234 H234       -0.9307  -25.6998  -56.0394 H         1 UNK         0.0600 
    235 H235       -1.0934  -22.7461  -54.3603 H         1 UNK         0.3000 
    236 H236        1.4969  -22.0558  -55.2645 H         1 UNK         0.0600 
    237 H237        1.5961  -20.7071  -53.1504 H         1 UNK         0.0600 
    238 H238       -0.1243  -20.9678  -52.9096 H         1 UNK         0.0600 
    239 H239        0.9919  -22.3314  -52.8881 H         1 UNK         0.0600 
    240 H240       -1.4520  -20.4740  -56.0600 H         1 UNK         0.3000 
    241 H241       -0.1482  -17.8962  -56.6654 H         1 UNK         0.0600 
    242 H242       -0.1606  -20.2294  -59.8974 H         1 UNK         0.3800 
    243 H243       -0.2814  -20.8891  -58.2851 H         1 UNK         0.3800 
    244 H244       -2.3369  -17.0140  -57.1736 H         1 UNK         0.0800 
    245 H245       -3.0650  -18.5956  -57.1833 H         1 UNK         0.0800 
    246 H246       -2.0212  -15.5391  -54.7092 H         1 UNK         0.0800 
    247 H247       -0.6465  -16.5971  -54.9137 H         1 UNK         0.0800 
@<TRIPOS>BOND
     1    1    2 1    
     2    1  127 1    
     3    1  128 1    
     4    1  129 1    
     5    2    3 2    
     6    2    4 am   BACKBONE|DICT|INTERRES
     7    4    5 1    
     8    4  130 1    
     9    5    6 1    
    10    5   65 1    
    11    5  131 1    
    12    6    7 1    
    13    6  132 1    
    14    6  133 1    
    15    7    8 1    
    16    8    9 1    
    17    8  134 1    
    18    8  135 1    
    19    9   10 ar   
    20    9   14 ar   
    21   10   11 ar   
    22   10  136 1    
    23   11   12 ar   
    24   11  126 1    
    25   12   13 ar   
    26   12  137 1    
    27   13   14 ar   
    28   13   15 1    
    29   14  138 1    
    30   15   16 1    
    31   15  139 1    
    32   15  140 1    
    33   16   17 1    
    34   17   18 1    
    35   17  141 1    
    36   17  142 1    
    37   18   19 1    
    38   18   67 1    
    39   18  143 1    
    40   19   20 am   BACKBONE|DICT|INTERRES
    41   19  144 1    
    42   20   21 2    
    43   20   22 1    
    44   22   23 1    
    45   22   24 1    
    46   22  145 1    
    47   23  146 1    
    48   23  147 1    
    49   23  148 1    
    50   24   25 am   BACKBONE|DICT|INTERRES
    51   24  149 1    
    52   25   26 2    
    53   25   27 1    
    54   27   28 1    
    55   27   29 1    
    56   27  150 1    
    57   28  151 1    
    58   28  152 1    
    59   28  153 1    
    60   29   30 am   BACKBONE|DICT|INTERRES
    61   29  154 1    
    62   30   31 2    
    63   30   32 1    
    64   32   33 1    
    65   32   34 1    
    66   32  155 1    
    67   33  156 1    
    68   33  157 1    
    69   33  158 1    
    70   34   35 am   BACKBONE|DICT|INTERRES
    71   34  159 1    
    72   35   36 2    
    73   35   37 1    
    74   37   38 1    
    75   37   39 1    
    76   37  160 1    
    77   38  161 1    
    78   38  162 1    
    79   38  163 1    
    80   39   40 am   BACKBONE|DICT|INTERRES
    81   39  164 1    
    82   40   41 2    
    83   40   42 1    
    84   42   43 1    
    85   42   44 1    
    86   42  165 1    
    87   43  166 1    
    88   43  167 1    
    89   43  168 1    
    90   44   45 am   BACKBONE|DICT|INTERRES
    91   44  169 1    
    92   45   46 2    
    93   45   47 1    
    94   47   48 1    
    95   47   49 1    
    96   47  170 1    
    97   48  171 1    
    98   48  172 1    
    99   48  173 1    
   100   49   50 am   BACKBONE|DICT|INTERRES
   101   49  174 1    
   102   50   51 2    
   103   50   52 1    
   104   52   53 1    
   105   52   54 1    
   106   52  175 1    
   107   53  176 1    
   108   53  177 1    
   109   53  178 1    
   110   54   55 am   BACKBONE|DICT|INTERRES
   111   54  179 1    
   112   55   56 2    
   113   55   57 1    
   114   57   58 1    
   115   57   59 1    
   116   57  180 1    
   117   58  181 1    
   118   58  182 1    
   119   58  183 1    
   120   59   60 am   BACKBONE|DICT|INTERRES
   121   59  184 1    
   122   60   61 2    
   123   60   62 1    
   124   62   63 1    
   125   62   64 1    
   126   62  185 1    
   127   63  186 1    
   128   63  187 1    
   129   63  188 1    
   130   64   65 am   BACKBONE|DICT|INTERRES
   131   64  189 1    
   132   65   66 2    
   133   67   68 2    
   134   67   69 am   BACKBONE|DICT|INTERRES
   135   69   70 1    
   136   69  190 1    
   137   70   71 1    
   138   70   72 1    
   139   70  191 1    
   140   71  192 1    
   141   71  193 1    
   142   71  194 1    
   143   72   73 2    
   144   72   74 am   BACKBONE|DICT|INTERRES
   145   74   75 1    
   146   74  195 1    
   147   75   76 1    
   148   75   77 1    
   149   75  196 1    
   150   76  197 1    
   151   76  198 1    
   152   76  199 1    
   153   77   78 2    
   154   77   79 am   BACKBONE|DICT|INTERRES
   155   79   80 1    
   156   79  200 1    
   157   80   81 1    
   158   80   82 1    
   159   80  201 1    
   160   81  202 1    
   161   81  203 1    
   162   81  204 1    
   163   82   83 2    
   164   82   84 am   BACKBONE|DICT|INTERRES
   165   84   85 1    
   166   84  205 1    
   167   85   86 1    
   168   85   87 1    
   169   85  206 1    
   170   86  207 1    
   171   86  208 1    
   172   86  209 1    
   173   87   88 2    
   174   87   89 am   BACKBONE|DICT|INTERRES
   175   89   90 1    
   176   89  210 1    
   177   90   91 1    
   178   90   92 1    
   179   90  211 1    
   180   91  212 1    
   181   91  213 1    
   182   91  214 1    
   183   92   93 2    
   184   92   94 am   BACKBONE|DICT|INTERRES
   185   94   95 1    
   186   94  215 1    
   187   95   96 1    
   188   95   97 1    
   189   95  216 1    
   190   96  217 1    
   191   96  218 1    
   192   96  219 1    
   193   97   98 2    
   194   97   99 am   BACKBONE|DICT|INTERRES
   195   99  100 1    
   196   99  220 1    
   197  100  101 1    
   198  100  102 1    
   199  100  221 1    
   200  101  222 1    
   201  101  223 1    
   202  101  224 1    
   203  102  103 2    
   204  102  104 am   BACKBONE|DICT|INTERRES
   205  104  105 1    
   206  104  225 1    
   207  105  106 1    
   208  105  107 1    
   209  105  226 1    
   210  106  227 1    
   211  106  228 1    
   212  106  229 1    
   213  107  108 2    
   214  107  109 am   BACKBONE|DICT|INTERRES
   215  109  110 1    
   216  109  230 1    
   217  110  111 1    
   218  110  112 1    
   219  110  231 1    
   220  111  232 1    
   221  111  233 1    
   222  111  234 1    
   223  112  113 2    
   224  112  114 am   BACKBONE|DICT|INTERRES
   225  114  115 1    
   226  114  235 1    
   227  115  116 1    
   228  115  117 1    
   229  115  236 1    
   230  116  237 1    
   231  116  238 1    
   232  116  239 1    
   233  117  118 2    
   234  117  119 am   BACKBONE|DICT|INTERRES
   235  119  120 1    
   236  119  240 1    
   237  120  121 1    
   238  120  124 1    
   239  120  241 1    
   240  121  122 am   BACKBONE|DICT|INTERRES
   241  121  123 2    
   242  122  242 1    
   243  122  243 1    
   244  124  125 1    
   245  124  244 1    
   246  124  245 1    
   247  125  126 1    
   248  126  246 1    
   249  126  247 1    
@<TRIPOS>SUBSTRUCTURE
     1 UNK         1 GROUP             0       ****    0 ROOT    
