@<TRIPOS>MOLECULE
3R540
247   249    1
SMALL
USER_CHARGES


@<TRIPOS>ATOM
      1 CA          1.5652   -8.5518  -48.3968 C.3       0 UNK        -0.1800 
      2 C           1.7493   -9.9642  -47.8618 C.2       0 UNK         0.5000 
      3 O           2.5429  -10.1752  -46.9457 O.2       0 UNK        -0.5000 
      4 N           1.0038  -10.9317  -48.4119 N.am      1 UNK        -0.5000 
      5 CA          1.0812  -12.3652  -48.0806 C.3       1 UNK         0.1400 
      6 C6          0.3319  -13.2497  -49.1107 C.3       23 UNK        -0.0398 
      7 S7          0.8065  -12.8965  -50.8379 S.3       23 UNK        -0.2404 
      8 C8          2.1856  -14.0581  -51.0936 C.3       23 UNK        -0.0205 
      9 C9          1.7229  -15.4961  -51.2881 C.ar      23 UNK        -0.0193 
     10 C10         0.8866  -15.8273  -52.3583 C.ar      23 UNK        -0.1150 
     11 C11         0.5045  -17.1530  -52.5812 C.ar      23 UNK        -0.0193 
     12 C12         0.9634  -18.1535  -51.7196 C.ar      23 UNK        -0.1150 
     13 C13         1.7993  -17.8380  -50.6442 C.ar      23 UNK        -0.0193 
     14 C14         2.1762  -16.5067  -50.4352 C.ar      23 UNK        -0.1150 
     15 C15         2.3300  -18.9461  -49.7428 C.3       23 UNK        -0.0205 
     16 S16         1.9934  -18.6600  -47.9761 S.3       23 UNK        -0.2404 
     17 C17         0.1746  -18.7631  -47.9166 C.3       23 UNK        -0.0398 
     18 CA         -0.3431  -20.1843  -47.5903 C.3       11 UNK         0.1400 
     19 N           0.1255  -20.6921  -46.2947 N.am      11 UNK        -0.5000 
     20 C          -0.0771  -21.9403  -45.8471 C.2       10 UNK         0.5000 
     21 O          -0.6282  -22.8207  -46.5072 O.2       10 UNK        -0.5000 
     22 CA          0.3500  -22.2459  -44.4001 C.3       10 UNK         0.1400 
     23 CB          1.8483  -22.5739  -44.3130 C.3       10 UNK        -0.1800 
     24 N           0.0173  -21.1528  -43.4859 N.am      10 UNK        -0.5000 
     25 C          -1.2356  -20.8185  -43.1447 C.2       9 UNK         0.5000 
     26 O          -2.2317  -21.4279  -43.5318 O.2       9 UNK        -0.5000 
     27 CA         -1.4151  -19.5752  -42.2551 C.3       9 UNK         0.1400 
     28 CB         -1.2371  -19.9426  -40.7748 C.3       9 UNK        -0.1800 
     29 N          -0.5020  -18.4872  -42.6025 N.am      9 UNK        -0.5000 
     30 C          -0.4833  -17.8514  -43.7831 C.2       8 UNK         0.5000 
     31 O          -1.2797  -18.0763  -44.6941 O.2       8 UNK        -0.5000 
     32 CA          0.6544  -16.8382  -44.0039 C.3       8 UNK         0.1400 
     33 CB          0.3058  -15.4918  -43.3575 C.3       8 UNK        -0.1800 
     34 N           1.9428  -17.3098  -43.4923 N.am      8 UNK        -0.5000 
     35 C           2.5577  -18.4353  -43.8828 C.2       7 UNK         0.5000 
     36 O           2.1005  -19.2060  -44.7238 O.2       7 UNK        -0.5000 
     37 CA          3.8710  -18.7921  -43.1717 C.3       7 UNK         0.1400 
     38 CB          5.0507  -18.0026  -43.7597 C.3       7 UNK        -0.1800 
     39 N           3.7693  -18.5420  -41.7356 N.am      7 UNK        -0.5000 
     40 C           3.1536  -19.3598  -40.8713 C.2       6 UNK         0.5000 
     41 O           2.6679  -20.4466  -41.1871 O.2       6 UNK        -0.5000 
     42 CA          3.0395  -18.8719  -39.4135 C.3       6 UNK         0.1400 
     43 CB          4.2956  -19.2547  -38.6167 C.3       6 UNK        -0.1800 
     44 N           2.8190  -17.4279  -39.3012 N.am      6 UNK        -0.5000 
     45 C           1.7073  -16.8009  -39.7095 C.2       5 UNK         0.5000 
     46 O           0.7449  -17.3795  -40.2123 O.2       5 UNK        -0.5000 
     47 CA          1.6742  -15.2659  -39.5697 C.3       5 UNK         0.1400 
     48 CB          1.2073  -14.8708  -38.1607 C.3       5 UNK        -0.1800 
     49 N           2.9285  -14.5655  -39.8747 N.am      5 UNK        -0.5000 
     50 C           3.7037  -14.7444  -40.9538 C.2       4 UNK         0.5000 
     51 O           3.5349  -15.6395  -41.7814 O.2       4 UNK        -0.5000 
     52 CA          4.8238  -13.7066  -41.1529 C.3       4 UNK         0.1400 
     53 CB          6.0123  -14.2564  -41.9699 C.3       4 UNK        -0.1800 
     54 N           4.2825  -12.4759  -41.7436 N.am      4 UNK        -0.5000 
     55 C           3.6902  -12.3412  -42.9409 C.2       3 UNK         0.5000 
     56 O           3.6415  -13.2218  -43.8019 O.2       3 UNK        -0.5000 
     57 CA          3.0584  -10.9669  -43.2318 C.3       3 UNK         0.1400 
     58 CB          4.0542  -10.0589  -43.9689 C.3       3 UNK        -0.1800 
     59 N           1.8391  -11.0985  -44.0317 N.am      3 UNK        -0.5000 
     60 C           0.6962  -11.6407  -43.5822 C.2       2 UNK         0.5000 
     61 O           0.5303  -11.9965  -42.4144 O.2       2 UNK        -0.5000 
     62 CA         -0.4688  -11.8027  -44.5817 C.3       2 UNK         0.1400 
     63 CB         -1.5385  -10.7270  -44.3369 C.3       2 UNK        -0.1800 
     64 N          -0.0516  -11.7360  -45.9813 N.am      2 UNK        -0.5000 
     65 C           0.6097  -12.6955  -46.6446 C.2       1 UNK         0.5000 
     66 O           0.8535  -13.8040  -46.1706 O.2       1 UNK        -0.5000 
     67 C          -1.8811  -20.2229  -47.6898 C.2       11 UNK         0.5000 
     68 O          -2.4122  -20.6881  -48.6985 O.2       11 UNK        -0.5000 
     69 N          -2.5650  -19.7712  -46.6282 N.am      12 UNK        -0.5000 
     70 CA         -4.0212  -19.8066  -46.5019 C.3       12 UNK         0.1400 
     71 CB         -4.4527  -19.0543  -45.2345 C.3       12 UNK        -0.1800 
     72 C          -4.5802  -21.2394  -46.5095 C.2       12 UNK         0.5000 
     73 O          -5.5550  -21.4984  -47.2130 O.2       12 UNK        -0.5000 
     74 N          -3.9336  -22.1511  -45.7686 N.am      13 UNK        -0.5000 
     75 CA         -4.2652  -23.5762  -45.7359 C.3       13 UNK         0.1400 
     76 CB         -3.4343  -24.2832  -44.6551 C.3       13 UNK        -0.1800 
     77 C          -4.0822  -24.2600  -47.1020 C.2       13 UNK         0.5000 
     78 O          -4.9531  -25.0271  -47.5113 O.2       13 UNK        -0.5000 
     79 N          -2.9830  -23.9408  -47.8008 N.am      14 UNK        -0.5000 
     80 CA         -2.7023  -24.4105  -49.1575 C.3       14 UNK         0.1400 
     81 CB         -1.2857  -23.9909  -49.5796 C.3       14 UNK        -0.1800 
     82 C          -3.7507  -23.9234  -50.1719 C.2       14 UNK         0.5000 
     83 O          -4.2857  -24.7406  -50.9188 O.2       14 UNK        -0.5000 
     84 N          -4.0634  -22.6200  -50.1401 N.am      15 UNK        -0.5000 
     85 CA         -5.0812  -21.9886  -50.9827 C.3       15 UNK         0.1400 
     86 CB         -5.0083  -20.4641  -50.8144 C.3       15 UNK        -0.1800 
     87 C          -6.5085  -22.5037  -50.7133 C.2       15 UNK         0.5000 
     88 O          -7.2991  -22.6070  -51.6509 O.2       15 UNK        -0.5000 
     89 N          -6.8139  -22.8334  -49.4507 N.am      16 UNK        -0.5000 
     90 CA         -8.0707  -23.4621  -49.0452 C.3       16 UNK         0.1400 
     91 CB         -8.2242  -23.3806  -47.5188 C.3       16 UNK        -0.1800 
     92 C          -8.1805  -24.9201  -49.5278 C.2       16 UNK         0.5000 
     93 O          -9.2632  -25.3376  -49.9409 O.2       16 UNK        -0.5000 
     94 N          -7.0656  -25.6638  -49.4761 N.am      17 UNK        -0.5000 
     95 CA         -6.9656  -27.0433  -49.9532 C.3       17 UNK         0.1400 
     96 CB         -5.6559  -27.6749  -49.4563 C.3       17 UNK        -0.1800 
     97 C          -7.0849  -27.1490  -51.4843 C.2       17 UNK         0.5000 
     98 O          -7.8051  -28.0210  -51.9735 O.2       17 UNK        -0.5000 
     99 N          -6.4067  -26.2523  -52.2100 N.am      18 UNK        -0.5000 
    100 CA        -6.4732  -26.1401  -53.6612 C.3       18 UNK         0.1400 
    101 CB        -5.5172  -27.1510  -54.3206 C.3       18 UNK        -0.1800 
    102 C         -6.1245  -24.7045  -54.0658 C.2       18 UNK         0.5000 
    103 O         -5.0005  -24.2613  -53.8273 O.2       18 UNK        -0.5000 
    104 N         -7.0682  -24.0132  -54.7203 N.am      19 UNK        -0.5000 
    105 CA        -6.9163  -22.6320  -55.1999 C.3       19 UNK         0.1400 
    106 CB        -8.2475  -22.1595  -55.8026 C.3       19 UNK        -0.1800 
    107 C         -5.7668  -22.4438  -56.2114 C.2       19 UNK         0.5000 
    108 O         -5.2213  -21.3448  -56.3188 O.2       19 UNK        -0.5000 
    109 N         -5.3833  -23.5395  -56.8840 N.am      20 UNK        -0.5000 
    110 CA        -4.2285  -23.6639  -57.7733 C.3       20 UNK         0.1400 
    111 CB        -4.1899  -25.0935  -58.3340 C.3       20 UNK        -0.1800 
    112 C         -2.8771  -23.3079  -57.1192 C.2       20 UNK         0.5000 
    113 O         -1.9533  -22.9331  -57.8428 O.2       20 UNK        -0.5000 
    114 N         -2.7907  -23.3628  -55.7788 N.am      21 UNK        -0.5000 
    115 CA        -1.6414  -22.9072  -54.9869 C.3       21 UNK         0.1400 
    116 CB        -1.9024  -23.1981  -53.5007 C.3       21 UNK        -0.1800 
    117 C         -1.2964  -21.4148  -55.1862 C.2       21 UNK         0.5000 
    118 O         -0.1369  -21.0387  -55.0101 O.2       21 UNK        -0.5000 
    119 N         -2.2917  -20.6115  -55.5829 N.am      22 UNK        -0.5000 
    120 CA        -2.1488  -19.2123  -56.0076 C.3       22 UNK         0.1400 
    121 C         -2.6633  -18.9913  -57.4614 C.2       22 UNK         0.5000 
    122 N         -2.6844  -20.0076  -58.3169 N.am      22 UNK        -0.7600 
    123 O         -3.0262  -17.8803  -57.8387 O.2       22 UNK        -0.5000 
    124 C124       -2.7730  -18.2233  -54.9834 C.3       23 UNK        -0.0398 
    125 S125       -1.9547  -18.2321  -53.3492 S.3       23 UNK        -0.2404 
    126 C126       -0.3417  -17.5094  -53.7936 C.3       23 UNK        -0.0205 
    127 H127        1.2389   -7.8873  -47.5967 H         1 UNK         0.0600 
    128 H128        0.8236   -8.5142  -49.1951 H         1 UNK         0.0600 
    129 H129        2.5089   -8.1751  -48.7909 H         1 UNK         0.0600 
    130 H130        0.3728  -10.6992  -49.1662 H         1 UNK         0.3000 
    131 H131        2.1370  -12.6412  -48.1214 H         1 UNK         0.0600 
    132 H132        0.5008  -14.3087  -48.9057 H         1 UNK         0.0800 
    133 H133       -0.7454  -13.0955  -49.0286 H         1 UNK         0.0800 
    134 H134        2.7379  -13.7502  -51.9824 H         1 UNK         0.0800 
    135 H135        2.8840  -13.9782  -50.2592 H         1 UNK         0.0800 
    136 H136        0.5516  -15.0494  -53.0303 H         1 UNK         0.1150 
    137 H137        0.6806  -19.1810  -51.9031 H         1 UNK         0.1150 
    138 H138        2.8366  -16.2633  -49.6145 H         1 UNK         0.1150 
    139 H139        1.9153  -19.9143  -50.0274 H         1 UNK         0.0800 
    140 H140        3.4088  -19.0216  -49.8841 H         1 UNK         0.0800 
    141 H141       -0.2319  -18.4148  -48.8677 H         1 UNK         0.0800 
    142 H142       -0.1710  -18.0500  -47.1669 H         1 UNK         0.0800 
    143 H143        0.0414  -20.8612  -48.3562 H         1 UNK         0.0600 
    144 H144        0.6482  -20.0438  -45.7115 H         1 UNK         0.3000 
    145 H145       -0.2000  -23.1308  -44.0731 H         1 UNK         0.0600 
    146 H146        2.0870  -23.4492  -44.9181 H         1 UNK         0.0600 
    147 H147        2.4701  -21.7542  -44.6707 H         1 UNK         0.0600 
    148 H148        2.1449  -22.7956  -43.2876 H         1 UNK         0.0600 
    149 H149        0.7842  -20.5816  -43.1585 H         1 UNK         0.3000 
    150 H150       -2.4347  -19.2113  -42.3957 H         1 UNK         0.0600 
    151 H151       -1.9023  -20.7590  -40.4905 H         1 UNK         0.0600 
    152 H152       -1.4687  -19.0956  -40.1288 H         1 UNK         0.0600 
    153 H153       -0.2154  -20.2582  -40.5589 H         1 UNK         0.0600 
    154 H154        0.1508  -18.1965  -41.8802 H         1 UNK         0.3000 
    155 H155        0.7663  -16.6838  -45.0791 H         1 UNK         0.0600 
    156 H156        0.1165  -15.5942  -42.2904 H         1 UNK         0.0600 
    157 H157        1.1103  -14.7678  -43.4907 H         1 UNK         0.0600 
    158 H158       -0.5928  -15.0713  -43.8089 H         1 UNK         0.0600 
    159 H159        2.4148  -16.7147  -42.8156 H         1 UNK         0.3000 
    160 H160        4.0652  -19.8547  -43.3335 H         1 UNK         0.0600 
    161 H161        4.9124  -16.9260  -43.6583 H         1 UNK         0.0600 
    162 H162        5.1675  -18.2170  -44.8227 H         1 UNK         0.0600 
    163 H163        5.9869  -18.2681  -43.2686 H         1 UNK         0.0600 
    164 H164        4.0433  -17.6183  -41.4232 H         1 UNK         0.3000 
    165 H165        2.1834  -19.3790  -38.9633 H         1 UNK         0.0600 
    166 H166        4.1913  -18.9899  -37.5644 H         1 UNK         0.0600 
    167 H167        4.4749  -20.3297  -38.6639 H         1 UNK         0.0600 
    168 H168        5.1855  -18.7561  -39.0029 H         1 UNK         0.0600 
    169 H169        3.5690  -16.8765  -38.9111 H         1 UNK         0.3000 
    170 H170        0.9326  -14.8937  -40.2773 H         1 UNK         0.0600 
    171 H171        0.2640  -15.3580  -37.9094 H         1 UNK         0.0600 
    172 H172        1.9364  -15.1549  -37.4009 H         1 UNK         0.0600 
    173 H173        1.0442  -13.7955  -38.0851 H         1 UNK         0.0600 
    174 H174        3.1536  -13.7990  -39.2574 H         1 UNK         0.3000 
    175 H175        5.2055  -13.4423  -40.1655 H         1 UNK         0.0600 
    176 H176        5.7200  -14.5665  -42.9731 H         1 UNK         0.0600 
    177 H177        6.8001  -13.5098  -42.0682 H         1 UNK         0.0600 
    178 H178        6.4477  -15.1273  -41.4787 H         1 UNK         0.0600 
    179 H179        4.2723  -11.6775  -41.1242 H         1 UNK         0.3000 
    180 H180        2.7920  -10.4909  -42.2857 H         1 UNK         0.0600 
    181 H181        4.3748  -10.4997  -44.9138 H         1 UNK         0.0600 
    182 H182        4.9478   -9.8893  -43.3671 H         1 UNK         0.0600 
    183 H183        3.6166   -9.0842  -44.1855 H         1 UNK         0.0600 
    184 H184        1.9214  -10.8653  -45.0145 H         1 UNK         0.3000 
    185 H185       -0.9224  -12.7790  -44.4035 H         1 UNK         0.0600 
    186 H186       -1.9038  -10.7652  -43.3097 H         1 UNK         0.0600 
    187 H187       -1.1469   -9.7236  -44.5087 H         1 UNK         0.0600 
    188 H188       -2.3989  -10.8694  -44.9911 H         1 UNK         0.0600 
    189 H189       -0.2083  -10.8600  -46.4578 H         1 UNK         0.3000 
    190 H190       -2.0528  -19.3561  -45.8537 H         1 UNK         0.3000 
    191 H191       -4.4398  -19.2838  -47.3643 H         1 UNK         0.0600 
    192 H192       -4.0461  -19.5140  -44.3339 H         1 UNK         0.0600 
    193 H193       -5.5389  -19.0449  -45.1372 H         1 UNK         0.0600 
    194 H194       -4.1188  -18.0168  -45.2595 H         1 UNK         0.0600 
    195 H195       -3.1701  -21.8489  -45.1701 H         1 UNK         0.3000 
    196 H196       -5.3184  -23.6635  -45.4617 H         1 UNK         0.0600 
    197 H197       -3.6787  -25.3450  -44.6070 H         1 UNK         0.0600 
    198 H198       -3.6286  -23.8600  -43.6695 H         1 UNK         0.0600 
    199 H199       -2.3650  -24.2004  -44.8500 H         1 UNK         0.0600 
    200 H200       -2.2859  -23.3372  -47.3736 H         1 UNK         0.3000 
    201 H201       -2.7383  -25.5018  -49.1425 H         1 UNK         0.0600 
    202 H202       -0.5361  -24.4014  -48.9031 H         1 UNK         0.0600 
    203 H203       -1.1685  -22.9074  -49.5888 H         1 UNK         0.0600 
    204 H204       -1.0545  -24.3546  -50.5815 H         1 UNK         0.0600 
    205 H205       -3.5574  -22.0089  -49.5039 H         1 UNK         0.3000 
    206 H206       -4.8441  -22.2235  -52.0216 H         1 UNK         0.0600 
    207 H207       -4.0260  -20.0838  -51.0966 H         1 UNK         0.0600 
    208 H208       -5.7441  -19.9647  -51.4457 H         1 UNK         0.0600 
    209 H209       -5.1994  -20.1654  -49.7830 H         1 UNK         0.0600 
    210 H210       -6.1440  -22.6331  -48.7144 H         1 UNK         0.3000 
    211 H211       -8.8920  -22.9004  -49.4952 H         1 UNK         0.0600 
    212 H212       -7.4139  -23.8964  -47.0034 H         1 UNK         0.0600 
    213 H213       -9.1615  -23.8348  -47.1954 H         1 UNK         0.0600 
    214 H214       -8.2310  -22.3449  -47.1789 H         1 UNK         0.0600 
    215 H215       -6.2263  -25.2620  -49.0708 H         1 UNK         0.3000 
    216 H216       -7.7929  -27.6074  -49.5174 H         1 UNK         0.0600 
    217 H217       -5.6071  -27.6736  -48.3673 H         1 UNK         0.0600 
    218 H218       -4.7814  -27.1423  -49.8297 H         1 UNK         0.0600 
    219 H219       -5.5737  -28.7116  -49.7847 H         1 UNK         0.0600 
    220 H220       -5.7944  -25.5830  -51.7448 H         1 UNK         0.3000 
    221 H221       -7.4916  -26.3557  -53.9917 H         1 UNK         0.0600 
    222 H222       -4.4888  -27.0056  -53.9871 H         1 UNK         0.0600 
    223 H223       -5.8019  -28.1770  -54.0872 H         1 UNK         0.0600 
    224 H224       -5.5289  -27.0497  -55.4064 H         1 UNK         0.0600 
    225 H225       -7.9676  -24.4435  -54.8799 H         1 UNK         0.3000 
    226 H226       -6.6894  -22.0054  -54.3349 H         1 UNK         0.0600 
    227 H227       -9.0496  -22.1985  -55.0653 H         1 UNK         0.0600 
    228 H228       -8.1756  -21.1271  -56.1476 H         1 UNK         0.0600 
    229 H229       -8.5428  -22.7714  -56.6558 H         1 UNK         0.0600 
    230 H230       -5.9021  -24.3877  -56.7130 H         1 UNK         0.3000 
    231 H231       -4.3796  -22.9707  -58.6031 H         1 UNK         0.0600 
    232 H232       -3.3574  -25.2197  -59.0276 H         1 UNK         0.0600 
    233 H233       -5.1035  -25.3291  -58.8802 H         1 UNK         0.0600 
    234 H234       -4.0712  -25.8327  -57.5406 H         1 UNK         0.0600 
    235 H235       -3.5976  -23.6759  -55.2484 H         1 UNK         0.3000 
    236 H236       -0.7736  -23.4892  -55.3033 H         1 UNK         0.0600 
    237 H237       -2.0997  -24.2567  -53.3300 H         1 UNK         0.0600 
    238 H238       -1.0417  -22.9236  -52.8896 H         1 UNK         0.0600 
    239 H239       -2.7591  -22.6357  -53.1291 H         1 UNK         0.0600 
    240 H240       -3.2141  -21.0083  -55.7268 H         1 UNK         0.3000 
    241 H241       -1.0894  -18.9727  -56.0929 H         1 UNK         0.0600 
    242 H242       -2.3419  -20.9234  -58.0532 H         1 UNK         0.3800 
    243 H243       -3.0109  -19.8492  -59.2569 H         1 UNK         0.3800 
    244 H244       -2.7377  -17.1990  -55.3579 H         1 UNK         0.0800 
    245 H245       -3.8296  -18.4541  -54.8398 H         1 UNK         0.0800 
    246 H246        0.2197  -18.2215  -54.3991 H         1 UNK         0.0800 
    247 H247       -0.5027  -16.6292  -54.4180 H         1 UNK         0.0800 
@<TRIPOS>BOND
     1    1    2 1    
     2    1  127 1    
     3    1  128 1    
     4    1  129 1    
     5    2    3 2    
     6    2    4 am   BACKBONE|DICT|INTERRES
     7    4    5 1    
     8    4  130 1    
     9    5    6 1    
    10    5   65 1    
    11    5  131 1    
    12    6    7 1    
    13    6  132 1    
    14    6  133 1    
    15    7    8 1    
    16    8    9 1    
    17    8  134 1    
    18    8  135 1    
    19    9   10 ar   
    20    9   14 ar   
    21   10   11 ar   
    22   10  136 1    
    23   11   12 ar   
    24   11  126 1    
    25   12   13 ar   
    26   12  137 1    
    27   13   14 ar   
    28   13   15 1    
    29   14  138 1    
    30   15   16 1    
    31   15  139 1    
    32   15  140 1    
    33   16   17 1    
    34   17   18 1    
    35   17  141 1    
    36   17  142 1    
    37   18   19 1    
    38   18   67 1    
    39   18  143 1    
    40   19   20 am   BACKBONE|DICT|INTERRES
    41   19  144 1    
    42   20   21 2    
    43   20   22 1    
    44   22   23 1    
    45   22   24 1    
    46   22  145 1    
    47   23  146 1    
    48   23  147 1    
    49   23  148 1    
    50   24   25 am   BACKBONE|DICT|INTERRES
    51   24  149 1    
    52   25   26 2    
    53   25   27 1    
    54   27   28 1    
    55   27   29 1    
    56   27  150 1    
    57   28  151 1    
    58   28  152 1    
    59   28  153 1    
    60   29   30 am   BACKBONE|DICT|INTERRES
    61   29  154 1    
    62   30   31 2    
    63   30   32 1    
    64   32   33 1    
    65   32   34 1    
    66   32  155 1    
    67   33  156 1    
    68   33  157 1    
    69   33  158 1    
    70   34   35 am   BACKBONE|DICT|INTERRES
    71   34  159 1    
    72   35   36 2    
    73   35   37 1    
    74   37   38 1    
    75   37   39 1    
    76   37  160 1    
    77   38  161 1    
    78   38  162 1    
    79   38  163 1    
    80   39   40 am   BACKBONE|DICT|INTERRES
    81   39  164 1    
    82   40   41 2    
    83   40   42 1    
    84   42   43 1    
    85   42   44 1    
    86   42  165 1    
    87   43  166 1    
    88   43  167 1    
    89   43  168 1    
    90   44   45 am   BACKBONE|DICT|INTERRES
    91   44  169 1    
    92   45   46 2    
    93   45   47 1    
    94   47   48 1    
    95   47   49 1    
    96   47  170 1    
    97   48  171 1    
    98   48  172 1    
    99   48  173 1    
   100   49   50 am   BACKBONE|DICT|INTERRES
   101   49  174 1    
   102   50   51 2    
   103   50   52 1    
   104   52   53 1    
   105   52   54 1    
   106   52  175 1    
   107   53  176 1    
   108   53  177 1    
   109   53  178 1    
   110   54   55 am   BACKBONE|DICT|INTERRES
   111   54  179 1    
   112   55   56 2    
   113   55   57 1    
   114   57   58 1    
   115   57   59 1    
   116   57  180 1    
   117   58  181 1    
   118   58  182 1    
   119   58  183 1    
   120   59   60 am   BACKBONE|DICT|INTERRES
   121   59  184 1    
   122   60   61 2    
   123   60   62 1    
   124   62   63 1    
   125   62   64 1    
   126   62  185 1    
   127   63  186 1    
   128   63  187 1    
   129   63  188 1    
   130   64   65 am   BACKBONE|DICT|INTERRES
   131   64  189 1    
   132   65   66 2    
   133   67   68 2    
   134   67   69 am   BACKBONE|DICT|INTERRES
   135   69   70 1    
   136   69  190 1    
   137   70   71 1    
   138   70   72 1    
   139   70  191 1    
   140   71  192 1    
   141   71  193 1    
   142   71  194 1    
   143   72   73 2    
   144   72   74 am   BACKBONE|DICT|INTERRES
   145   74   75 1    
   146   74  195 1    
   147   75   76 1    
   148   75   77 1    
   149   75  196 1    
   150   76  197 1    
   151   76  198 1    
   152   76  199 1    
   153   77   78 2    
   154   77   79 am   BACKBONE|DICT|INTERRES
   155   79   80 1    
   156   79  200 1    
   157   80   81 1    
   158   80   82 1    
   159   80  201 1    
   160   81  202 1    
   161   81  203 1    
   162   81  204 1    
   163   82   83 2    
   164   82   84 am   BACKBONE|DICT|INTERRES
   165   84   85 1    
   166   84  205 1    
   167   85   86 1    
   168   85   87 1    
   169   85  206 1    
   170   86  207 1    
   171   86  208 1    
   172   86  209 1    
   173   87   88 2    
   174   87   89 am   BACKBONE|DICT|INTERRES
   175   89   90 1    
   176   89  210 1    
   177   90   91 1    
   178   90   92 1    
   179   90  211 1    
   180   91  212 1    
   181   91  213 1    
   182   91  214 1    
   183   92   93 2    
   184   92   94 am   BACKBONE|DICT|INTERRES
   185   94   95 1    
   186   94  215 1    
   187   95   96 1    
   188   95   97 1    
   189   95  216 1    
   190   96  217 1    
   191   96  218 1    
   192   96  219 1    
   193   97   98 2    
   194   97   99 am   BACKBONE|DICT|INTERRES
   195   99  100 1    
   196   99  220 1    
   197  100  101 1    
   198  100  102 1    
   199  100  221 1    
   200  101  222 1    
   201  101  223 1    
   202  101  224 1    
   203  102  103 2    
   204  102  104 am   BACKBONE|DICT|INTERRES
   205  104  105 1    
   206  104  225 1    
   207  105  106 1    
   208  105  107 1    
   209  105  226 1    
   210  106  227 1    
   211  106  228 1    
   212  106  229 1    
   213  107  108 2    
   214  107  109 am   BACKBONE|DICT|INTERRES
   215  109  110 1    
   216  109  230 1    
   217  110  111 1    
   218  110  112 1    
   219  110  231 1    
   220  111  232 1    
   221  111  233 1    
   222  111  234 1    
   223  112  113 2    
   224  112  114 am   BACKBONE|DICT|INTERRES
   225  114  115 1    
   226  114  235 1    
   227  115  116 1    
   228  115  117 1    
   229  115  236 1    
   230  116  237 1    
   231  116  238 1    
   232  116  239 1    
   233  117  118 2    
   234  117  119 am   BACKBONE|DICT|INTERRES
   235  119  120 1    
   236  119  240 1    
   237  120  121 1    
   238  120  124 1    
   239  120  241 1    
   240  121  122 am   BACKBONE|DICT|INTERRES
   241  121  123 2    
   242  122  242 1    
   243  122  243 1    
   244  124  125 1    
   245  124  244 1    
   246  124  245 1    
   247  125  126 1    
   248  126  246 1    
   249  126  247 1    
@<TRIPOS>SUBSTRUCTURE
     1 UNK         1 GROUP             0       ****    0 ROOT    
