@<TRIPOS>MOLECULE
3R540
247   249    1
SMALL
USER_CHARGES


@<TRIPOS>ATOM
      1 CA          5.3698  -16.5897  -48.6376 C.3       0 UNK        -0.1800 
      2 C           5.0996  -15.1922  -48.0982 C.2       0 UNK         0.5000 
      3 O           5.8133  -14.2531  -48.4483 O.2       0 UNK        -0.5000 
      4 N           4.0776  -15.0585  -47.2408 N.am      1 UNK        -0.5000 
      5 CA          3.6399  -13.8140  -46.5859 C.3       1 UNK         0.1400 
      6 C6          3.0536  -12.7609  -47.5642 C.3       23 UNK        -0.0398 
      7 S7          1.4543  -13.3234  -48.2333 S.3       23 UNK        -0.2404 
      8 C8          1.9183  -13.9517  -49.8740 C.3       23 UNK        -0.0205 
      9 C9          1.1824  -15.2432  -50.1960 C.ar      23 UNK        -0.0193 
     10 C10        -0.1886  -15.2234  -50.4617 C.ar      23 UNK        -0.1150 
     11 C11        -0.8624  -16.3985  -50.8028 C.ar      23 UNK        -0.0193 
     12 C12        -0.1508  -17.6003  -50.8839 C.ar      23 UNK        -0.1150 
     13 C13         1.2192  -17.6423  -50.5955 C.ar      23 UNK        -0.0193 
     14 C14         1.8750  -16.4554  -50.2552 C.ar      23 UNK        -0.1150 
     15 C15         2.0308  -18.9350  -50.6901 C.3       23 UNK        -0.0205 
     16 S16         1.1287  -20.4536  -50.2292 S.3       23 UNK        -0.2404 
     17 C17         0.6819  -20.0920  -48.4978 C.3       23 UNK        -0.0398 
     18 CA          0.2531  -21.3423  -47.6903 C.3       11 UNK         0.1400 
     19 N           0.1161  -21.0385  -46.2625 N.am      11 UNK        -0.5000 
     20 C          -0.1259  -21.9379  -45.2981 C.2       10 UNK         0.5000 
     21 O          -0.1943  -23.1490  -45.4971 O.2       10 UNK        -0.5000 
     22 CA         -0.3958  -21.3939  -43.8830 C.3       10 UNK         0.1400 
     23 CB          0.9193  -21.0820  -43.1550 C.3       10 UNK        -0.1800 
     24 N          -1.2606  -20.2121  -43.8930 N.am      10 UNK        -0.5000 
     25 C          -2.5341  -20.2170  -44.3150 C.2       9 UNK         0.5000 
     26 O          -3.1284  -21.2331  -44.6715 O.2       9 UNK        -0.5000 
     27 CA         -3.2522  -18.8582  -44.4039 C.3       9 UNK         0.1400 
     28 CB         -3.8134  -18.4444  -43.0358 C.3       9 UNK        -0.1800 
     29 N          -2.3941  -17.7971  -44.9329 N.am      9 UNK        -0.5000 
     30 C          -1.8578  -17.7967  -46.1626 C.2       8 UNK         0.5000 
     31 O          -2.0713  -18.6771  -46.9943 O.2       8 UNK        -0.5000 
     32 CA         -0.8625  -16.6648  -46.4866 C.3       8 UNK         0.1400 
     33 CB         -1.6048  -15.3599  -46.8084 C.3       8 UNK        -0.1800 
     34 N           0.0863  -16.4482  -45.3894 N.am      8 UNK        -0.5000 
     35 C           0.9762  -17.3653  -44.9819 C.2       7 UNK         0.5000 
     36 O           1.1647  -18.4317  -45.5653 O.2       7 UNK        -0.5000 
     37 CA          1.7424  -17.0842  -43.6771 C.3       7 UNK         0.1400 
     38 CB          3.0651  -16.3507  -43.9295 C.3       7 UNK        -0.1800 
     39 N           0.9358  -16.3385  -42.7127 N.am      7 UNK        -0.5000 
     40 C          -0.0364  -16.8890  -41.9738 C.2       6 UNK         0.5000 
     41 O          -0.3171  -18.0869  -42.0011 O.2       6 UNK        -0.5000 
     42 CA         -0.8611  -15.9332  -41.0935 C.3       6 UNK         0.1400 
     43 CB         -0.1762  -15.7133  -39.7370 C.3       6 UNK        -0.1800 
     44 N          -1.0976  -14.6433  -41.7456 N.am      6 UNK        -0.5000 
     45 C          -1.8962  -14.4886  -42.8121 C.2       5 UNK         0.5000 
     46 O          -2.5258  -15.4125  -43.3246 O.2       5 UNK        -0.5000 
     47 CA         -1.9859  -13.0864  -43.4430 C.3       5 UNK         0.1400 
     48 CB         -3.1631  -12.3043  -42.8424 C.3       5 UNK        -0.1800 
     49 N          -0.7662  -12.2883  -43.3169 N.am      5 UNK        -0.5000 
     50 C           0.4420  -12.6270  -43.7857 C.2       4 UNK         0.5000 
     51 O           0.6786  -13.6951  -44.3554 O.2       4 UNK        -0.5000 
     52 CA          1.5939  -11.6256  -43.5559 C.3       4 UNK         0.1400 
     53 CB          1.1812  -10.3338  -42.8148 C.3       4 UNK        -0.1800 
     54 N           2.7304  -12.2549  -42.8791 N.am      4 UNK        -0.5000 
     55 C           2.7183  -12.9029  -41.7028 C.2       3 UNK         0.5000 
     56 O           1.7068  -13.0382  -41.0126 O.2       3 UNK        -0.5000 
     57 CA          4.0503  -13.5316  -41.2434 C.3       3 UNK         0.1400 
     58 CB          3.8304  -14.7893  -40.3825 C.3       3 UNK        -0.1800 
     59 N           4.8750  -13.8845  -42.4003 N.am      3 UNK        -0.5000 
     60 C           6.0373  -13.3162  -42.7437 C.2       2 UNK         0.5000 
     61 O           6.6232  -12.4746  -42.0627 O.2       2 UNK        -0.5000 
     62 CA          6.6202  -13.7379  -44.1083 C.3       2 UNK         0.1400 
     63 CB          7.5752  -14.9292  -43.9408 C.3       2 UNK        -0.1800 
     64 N           5.5926  -14.0850  -45.0978 N.am      2 UNK        -0.5000 
     65 C           4.6897  -13.2319  -45.6076 C.2       1 UNK         0.5000 
     66 O           4.6311  -12.0470  -45.2764 O.2       1 UNK        -0.5000 
     67 C          -1.0287  -21.9956  -48.2532 C.2       11 UNK         0.5000 
     68 O          -0.9472  -23.0588  -48.8695 O.2       11 UNK        -0.5000 
     69 N          -2.1897  -21.3845  -47.9782 N.am      12 UNK        -0.5000 
     70 CA         -3.5052  -21.8870  -48.3772 C.3       12 UNK         0.1400 
     71 CB         -4.5718  -20.8240  -48.0779 C.3       12 UNK        -0.1800 
     72 C          -3.8792  -23.2362  -47.7301 C.2       12 UNK         0.5000 
     73 O          -4.6090  -24.0131  -48.3423 O.2       12 UNK        -0.5000 
     74 N          -3.3775  -23.5049  -46.5183 N.am      13 UNK        -0.5000 
     75 CA         -3.5305  -24.7899  -45.8383 C.3       13 UNK         0.1400 
     76 CB         -3.2850  -24.6066  -44.3325 C.3       13 UNK        -0.1800 
     77 C          -2.5993  -25.8722  -46.4172 C.2       13 UNK         0.5000 
     78 O          -3.0255  -27.0174  -46.5714 O.2       13 UNK        -0.5000 
     79 N          -1.3442  -25.5004  -46.7037 N.am      14 UNK        -0.5000 
     80 CA         -0.2990  -26.4004  -47.1900 C.3       14 UNK         0.1400 
     81 CB          1.0735  -25.7358  -47.0009 C.3       14 UNK        -0.1800 
     82 C          -0.4881  -26.8301  -48.6548 C.2       14 UNK         0.5000 
     83 O          -0.2579  -27.9980  -48.9734 O.2       14 UNK        -0.5000 
     84 N          -0.8724  -25.8854  -49.5232 N.am      15 UNK        -0.5000 
     85 CA         -1.0675  -26.1105  -50.9548 C.3       15 UNK         0.1400 
     86 CB         -1.2252  -24.7543  -51.6590 C.3       15 UNK        -0.1800 
     87 C          -2.2842  -27.0095  -51.2380 C.2       15 UNK         0.5000 
     88 O          -3.3618  -26.7645  -50.6939 O.2       15 UNK        -0.5000 
     89 N          -2.1119  -27.9984  -52.1258 N.am      16 UNK        -0.5000 
     90 CA         -3.1586  -28.9453  -52.5317 C.3       16 UNK         0.1400 
     91 CB         -2.5269  -30.0704  -53.3654 C.3       16 UNK        -0.1800 
     92 C          -4.3164  -28.2833  -53.3054 C.2       16 UNK         0.5000 
     93 O          -5.4631  -28.7113  -53.1743 O.2       16 UNK        -0.5000 
     94 N          -3.9947  -27.2288  -54.0663 N.am      17 UNK        -0.5000 
     95 CA         -4.9492  -26.3742  -54.7781 C.3       17 UNK         0.1400 
     96 CB         -4.2887  -25.8913  -56.0809 C.3       17 UNK        -0.1800 
     97 C          -5.4145  -25.1735  -53.9262 C.2       17 UNK         0.5000 
     98 O          -6.0956  -24.2898  -54.4490 O.2       17 UNK        -0.5000 
     99 N          -4.9903  -25.1176  -52.6534 N.am      18 UNK        -0.5000 
    100 CA        -5.2360  -24.0576  -51.6686 C.3       18 UNK         0.1400 
    101 CB        -6.7197  -24.0413  -51.2478 C.3       18 UNK        -0.1800 
    102 C         -4.7322  -22.6669  -52.1073 C.2       18 UNK         0.5000 
    103 O         -5.2870  -21.6521  -51.6855 O.2       18 UNK        -0.5000 
    104 N         -3.7218  -22.6468  -52.9914 N.am      19 UNK        -0.5000 
    105 CA        -3.1843  -21.4733  -53.6896 C.3       19 UNK         0.1400 
    106 CB        -2.4530  -20.5423  -52.6966 C.3       19 UNK        -0.1800 
    107 C         -4.2540  -20.7446  -54.5384 C.2       19 UNK         0.5000 
    108 O         -4.1897  -19.5244  -54.6822 O.2       19 UNK        -0.5000 
    109 N         -5.2377  -21.5071  -55.0495 N.am      20 UNK        -0.5000 
    110 CA        -6.4651  -21.0543  -55.7157 C.3       20 UNK         0.1400 
    111 CB        -6.1507  -20.3472  -57.0506 C.3       20 UNK        -0.1800 
    112 C         -7.3427  -20.2133  -54.7650 C.2       20 UNK         0.5000 
    113 O         -7.7561  -19.1054  -55.1121 O.2       20 UNK        -0.5000 
    114 N         -7.5466  -20.7397  -53.5461 N.am      21 UNK        -0.5000 
    115 CA        -8.1841  -20.0928  -52.3878 C.3       21 UNK         0.1400 
    116 CB        -9.6947  -19.9016  -52.6334 C.3       21 UNK        -0.1800 
    117 C         -7.4684  -18.7866  -51.9721 C.2       21 UNK         0.5000 
    118 O         -8.1100  -17.8278  -51.5395 O.2       21 UNK        -0.5000 
    119 N         -6.1441  -18.7754  -52.1597 N.am      22 UNK        -0.5000 
    120 CA        -5.2405  -17.6196  -52.0896 C.3       22 UNK         0.1400 
    121 C         -5.5243  -16.4795  -53.1214 C.2       22 UNK         0.5000 
    122 N         -6.3236  -16.6916  -54.1607 N.am      22 UNK        -0.7600 
    123 O         -4.9854  -15.3827  -53.0012 O.2       22 UNK        -0.5000 
    124 C124       -5.0185  -17.1067  -50.6323 C.3       23 UNK        -0.0398 
    125 S125       -3.3272  -17.4218  -50.0231 S.3       23 UNK        -0.2404 
    126 C126       -2.3470  -16.3574  -51.1294 C.3       23 UNK        -0.0205 
    127 H127        5.3771  -16.5777  -49.7274 H         1 UNK         0.0600 
    128 H128        4.6153  -17.3054  -48.3094 H         1 UNK         0.0600 
    129 H129        6.3431  -16.9407  -48.2950 H         1 UNK         0.0600 
    130 H130        3.5190  -15.8716  -47.0255 H         1 UNK         0.3000 
    131 H131        2.8159  -14.1091  -45.9385 H         1 UNK         0.0600 
    132 H132        2.8486  -11.8189  -47.0537 H         1 UNK         0.0800 
    133 H133        3.7520  -12.5199  -48.3661 H         1 UNK         0.0800 
    134 H134        1.6806  -13.1975  -50.6253 H         1 UNK         0.0800 
    135 H135        2.9957  -14.1086  -49.9312 H         1 UNK         0.0800 
    136 H136       -0.7257  -14.2865  -50.4127 H         1 UNK         0.1150 
    137 H137       -0.6727  -18.5025  -51.1694 H         1 UNK         0.1150 
    138 H138        2.9357  -16.4713  -50.0571 H         1 UNK         0.1150 
    139 H139        2.3838  -19.0422  -51.7163 H         1 UNK         0.0800 
    140 H140        2.9222  -18.8664  -50.0644 H         1 UNK         0.0800 
    141 H141       -0.1036  -19.3368  -48.4959 H         1 UNK         0.0800 
    142 H142        1.5459  -19.6292  -48.0189 H         1 UNK         0.0800 
    143 H143        1.0537  -22.0804  -47.7743 H         1 UNK         0.0600 
    144 H144        0.2078  -20.0613  -46.0008 H         1 UNK         0.3000 
    145 H145       -0.9126  -22.1743  -43.3206 H         1 UNK         0.0600 
    146 H146        0.7360  -20.7128  -42.1458 H         1 UNK         0.0600 
    147 H147        1.5082  -20.3351  -43.6857 H         1 UNK         0.0600 
    148 H148        1.5345  -21.9782  -43.0669 H         1 UNK         0.0600 
    149 H149       -0.8616  -19.3469  -43.5467 H         1 UNK         0.3000 
    150 H150       -4.0924  -18.9744  -45.0915 H         1 UNK         0.0600 
    151 H151       -4.4706  -19.2165  -42.6338 H         1 UNK         0.0600 
    152 H152       -4.3976  -17.5272  -43.1112 H         1 UNK         0.0600 
    153 H153       -3.0201  -18.2763  -42.3076 H         1 UNK         0.0600 
    154 H154       -2.2222  -17.0055  -44.3190 H         1 UNK         0.3000 
    155 H155       -0.2917  -16.9549  -47.3719 H         1 UNK         0.0600 
    156 H156       -2.1954  -15.4693  -47.7187 H         1 UNK         0.0600 
    157 H157       -0.9109  -14.5359  -46.9678 H         1 UNK         0.0600 
    158 H158       -2.2875  -15.0730  -46.0097 H         1 UNK         0.0600 
    159 H159        0.0349  -15.5625  -44.8983 H         1 UNK         0.3000 
    160 H160        1.9931  -18.0540  -43.2431 H         1 UNK         0.0600 
    161 H161        2.9035  -15.2857  -44.0762 H         1 UNK         0.0600 
    162 H162        3.5801  -16.7455  -44.8060 H         1 UNK         0.0600 
    163 H163        3.7385  -16.4756  -43.0822 H         1 UNK         0.0600 
    164 H164        1.0472  -15.3342  -42.6939 H         1 UNK         0.3000 
    165 H165       -1.8292  -16.4038  -40.9089 H         1 UNK         0.0600 
    166 H166       -0.7728  -15.0667  -39.0935 H         1 UNK         0.0600 
    167 H167       -0.0413  -16.6598  -39.2121 H         1 UNK         0.0600 
    168 H168        0.8082  -15.2595  -39.8487 H         1 UNK         0.0600 
    169 H169       -0.5749  -13.8489  -41.3998 H         1 UNK         0.3000 
    170 H170       -2.1764  -13.2195  -44.5091 H         1 UNK         0.0600 
    171 H171       -3.0138  -12.1053  -41.7804 H         1 UNK         0.0600 
    172 H172       -3.3018  -11.3485  -43.3480 H         1 UNK         0.0600 
    173 H173       -4.0953  -12.8619  -42.9443 H         1 UNK         0.0600 
    174 H174       -0.8582  -11.4050  -42.8369 H         1 UNK         0.3000 
    175 H175        1.9440  -11.3395  -44.5484 H         1 UNK         0.0600 
    176 H176        0.8112  -10.5351  -41.8088 H         1 UNK         0.0600 
    177 H177        2.0293   -9.6554  -42.7209 H         1 UNK         0.0600 
    178 H178        0.4045   -9.7946  -43.3586 H         1 UNK         0.0600 
    179 H179        3.6059  -12.2023  -43.3852 H         1 UNK         0.3000 
    180 H180        4.5548  -12.7839  -40.6285 H         1 UNK         0.0600 
    181 H181        4.7800  -15.2444  -40.1006 H         1 UNK         0.0600 
    182 H182        3.2398  -15.5418  -40.9052 H         1 UNK         0.0600 
    183 H183        3.3046  -14.5441  -39.4590 H         1 UNK         0.0600 
    184 H184        4.4817  -14.5633  -43.0343 H         1 UNK         0.3000 
    185 H185        7.1905  -12.8925  -44.4991 H         1 UNK         0.0600 
    186 H186        8.0545  -15.1865  -44.8857 H         1 UNK         0.0600 
    187 H187        8.3682  -14.6970  -43.2286 H         1 UNK         0.0600 
    188 H188        7.0547  -15.8153  -43.5752 H         1 UNK         0.0600 
    189 H189        5.5895  -15.0377  -45.4309 H         1 UNK         0.3000 
    190 H190       -2.1713  -20.4912  -47.4904 H         1 UNK         0.3000 
    191 H191       -3.4773  -22.0406  -49.4573 H         1 UNK         0.0600 
    192 H192       -4.3533  -19.8912  -48.5970 H         1 UNK         0.0600 
    193 H193       -4.6353  -20.6081  -47.0111 H         1 UNK         0.0600 
    194 H194       -5.5564  -21.1557  -48.4098 H         1 UNK         0.0600 
    195 H195       -2.8615  -22.7815  -46.0304 H         1 UNK         0.3000 
    196 H196       -4.5598  -25.1315  -45.9671 H         1 UNK         0.0600 
    197 H197       -3.9835  -23.8871  -43.9050 H         1 UNK         0.0600 
    198 H198       -2.2747  -24.2530  -44.1267 H         1 UNK         0.0600 
    199 H199       -3.4187  -25.5478  -43.7981 H         1 UNK         0.0600 
    200 H200       -1.0566  -24.5482  -46.4954 H         1 UNK         0.3000 
    201 H201       -0.3194  -27.3038  -46.5766 H         1 UNK         0.0600 
    202 H202        1.2661  -25.5235  -45.9491 H         1 UNK         0.0600 
    203 H203        1.1433  -24.7957  -47.5497 H         1 UNK         0.0600 
    204 H204        1.8762  -26.3846  -47.3536 H         1 UNK         0.0600 
    205 H205       -1.0264  -24.9382  -49.1860 H         1 UNK         0.3000 
    206 H206       -0.1708  -26.5956  -51.3459 H         1 UNK         0.0600 
    207 H207       -2.0634  -24.1898  -51.2498 H         1 UNK         0.0600 
    208 H208       -0.3297  -24.1437  -51.5407 H         1 UNK         0.0600 
    209 H209       -1.3944  -24.8799  -52.7290 H         1 UNK         0.0600 
    210 H210       -1.1983  -28.1391  -52.5333 H         1 UNK         0.3000 
    211 H211       -3.5797  -29.3876  -51.6262 H         1 UNK         0.0600 
    212 H212       -2.0638  -29.6872  -54.2755 H         1 UNK         0.0600 
    213 H213       -3.2771  -30.8044  -53.6628 H         1 UNK         0.0600 
    214 H214       -1.7630  -30.6015  -52.7970 H         1 UNK         0.0600 
    215 H215       -3.0226  -26.9618  -54.1210 H         1 UNK         0.3000 
    216 H216       -5.8385  -26.9509  -55.0402 H         1 UNK         0.0600 
    217 H217       -4.9823  -25.2989  -56.6792 H         1 UNK         0.0600 
    218 H218       -3.9728  -26.7334  -56.6971 H         1 UNK         0.0600 
    219 H219       -3.4125  -25.2721  -55.8845 H         1 UNK         0.0600 
    220 H220       -4.4512  -25.8981  -52.2973 H         1 UNK         0.3000 
    221 H221       -4.6398  -24.3285  -50.8006 H         1 UNK         0.0600 
    222 H222       -7.3711  -23.7307  -52.0650 H         1 UNK         0.0600 
    223 H223       -7.0433  -25.0277  -50.9159 H         1 UNK         0.0600 
    224 H224       -6.8829  -23.3541  -50.4165 H         1 UNK         0.0600 
    225 H225       -3.3451  -23.5359  -53.2836 H         1 UNK         0.3000 
    226 H226       -2.4431  -21.8466  -54.3974 H         1 UNK         0.0600 
    227 H227       -1.6799  -21.0819  -52.1489 H         1 UNK         0.0600 
    228 H228       -1.9637  -19.7172  -53.2153 H         1 UNK         0.0600 
    229 H229       -3.1334  -20.1091  -51.9634 H         1 UNK         0.0600 
    230 H230       -5.2215  -22.5012  -54.8469 H         1 UNK         0.3000 
    231 H231       -7.0386  -21.9528  -55.9481 H         1 UNK         0.0600 
    232 H232       -7.0682  -20.1237  -57.5960 H         1 UNK         0.0600 
    233 H233       -5.5356  -20.9763  -57.6939 H         1 UNK         0.0600 
    234 H234       -5.6246  -19.4040  -56.9012 H         1 UNK         0.0600 
    235 H235       -7.1162  -21.6324  -53.3489 H         1 UNK         0.3000 
    236 H236       -8.0684  -20.7817  -51.5497 H         1 UNK         0.0600 
    237 H237       -9.8881  -19.1752  -53.4232 H         1 UNK         0.0600 
    238 H238      -10.1695  -20.8407  -52.9171 H         1 UNK         0.0600 
    239 H239      -10.1951  -19.5454  -51.7323 H         1 UNK         0.0600 
    240 H240       -5.7151  -19.6415  -52.4608 H         1 UNK         0.3000 
    241 H241       -4.3010  -18.0335  -52.4511 H         1 UNK         0.0600 
    242 H242       -6.7642  -17.5918  -54.3190 H         1 UNK         0.3800 
    243 H243       -6.4797  -15.9443  -54.8176 H         1 UNK         0.3800 
    244 H244       -5.7037  -17.5966  -49.9396 H         1 UNK         0.0800 
    245 H245       -5.2299  -16.0417  -50.5250 H         1 UNK         0.0800 
    246 H246       -2.7296  -15.3374  -51.0673 H         1 UNK         0.0800 
    247 H247       -2.4754  -16.6736  -52.1646 H         1 UNK         0.0800 
@<TRIPOS>BOND
     1    1    2 1    
     2    1  127 1    
     3    1  128 1    
     4    1  129 1    
     5    2    3 2    
     6    2    4 am   BACKBONE|DICT|INTERRES
     7    4    5 1    
     8    4  130 1    
     9    5    6 1    
    10    5   65 1    
    11    5  131 1    
    12    6    7 1    
    13    6  132 1    
    14    6  133 1    
    15    7    8 1    
    16    8    9 1    
    17    8  134 1    
    18    8  135 1    
    19    9   10 ar   
    20    9   14 ar   
    21   10   11 ar   
    22   10  136 1    
    23   11   12 ar   
    24   11  126 1    
    25   12   13 ar   
    26   12  137 1    
    27   13   14 ar   
    28   13   15 1    
    29   14  138 1    
    30   15   16 1    
    31   15  139 1    
    32   15  140 1    
    33   16   17 1    
    34   17   18 1    
    35   17  141 1    
    36   17  142 1    
    37   18   19 1    
    38   18   67 1    
    39   18  143 1    
    40   19   20 am   BACKBONE|DICT|INTERRES
    41   19  144 1    
    42   20   21 2    
    43   20   22 1    
    44   22   23 1    
    45   22   24 1    
    46   22  145 1    
    47   23  146 1    
    48   23  147 1    
    49   23  148 1    
    50   24   25 am   BACKBONE|DICT|INTERRES
    51   24  149 1    
    52   25   26 2    
    53   25   27 1    
    54   27   28 1    
    55   27   29 1    
    56   27  150 1    
    57   28  151 1    
    58   28  152 1    
    59   28  153 1    
    60   29   30 am   BACKBONE|DICT|INTERRES
    61   29  154 1    
    62   30   31 2    
    63   30   32 1    
    64   32   33 1    
    65   32   34 1    
    66   32  155 1    
    67   33  156 1    
    68   33  157 1    
    69   33  158 1    
    70   34   35 am   BACKBONE|DICT|INTERRES
    71   34  159 1    
    72   35   36 2    
    73   35   37 1    
    74   37   38 1    
    75   37   39 1    
    76   37  160 1    
    77   38  161 1    
    78   38  162 1    
    79   38  163 1    
    80   39   40 am   BACKBONE|DICT|INTERRES
    81   39  164 1    
    82   40   41 2    
    83   40   42 1    
    84   42   43 1    
    85   42   44 1    
    86   42  165 1    
    87   43  166 1    
    88   43  167 1    
    89   43  168 1    
    90   44   45 am   BACKBONE|DICT|INTERRES
    91   44  169 1    
    92   45   46 2    
    93   45   47 1    
    94   47   48 1    
    95   47   49 1    
    96   47  170 1    
    97   48  171 1    
    98   48  172 1    
    99   48  173 1    
   100   49   50 am   BACKBONE|DICT|INTERRES
   101   49  174 1    
   102   50   51 2    
   103   50   52 1    
   104   52   53 1    
   105   52   54 1    
   106   52  175 1    
   107   53  176 1    
   108   53  177 1    
   109   53  178 1    
   110   54   55 am   BACKBONE|DICT|INTERRES
   111   54  179 1    
   112   55   56 2    
   113   55   57 1    
   114   57   58 1    
   115   57   59 1    
   116   57  180 1    
   117   58  181 1    
   118   58  182 1    
   119   58  183 1    
   120   59   60 am   BACKBONE|DICT|INTERRES
   121   59  184 1    
   122   60   61 2    
   123   60   62 1    
   124   62   63 1    
   125   62   64 1    
   126   62  185 1    
   127   63  186 1    
   128   63  187 1    
   129   63  188 1    
   130   64   65 am   BACKBONE|DICT|INTERRES
   131   64  189 1    
   132   65   66 2    
   133   67   68 2    
   134   67   69 am   BACKBONE|DICT|INTERRES
   135   69   70 1    
   136   69  190 1    
   137   70   71 1    
   138   70   72 1    
   139   70  191 1    
   140   71  192 1    
   141   71  193 1    
   142   71  194 1    
   143   72   73 2    
   144   72   74 am   BACKBONE|DICT|INTERRES
   145   74   75 1    
   146   74  195 1    
   147   75   76 1    
   148   75   77 1    
   149   75  196 1    
   150   76  197 1    
   151   76  198 1    
   152   76  199 1    
   153   77   78 2    
   154   77   79 am   BACKBONE|DICT|INTERRES
   155   79   80 1    
   156   79  200 1    
   157   80   81 1    
   158   80   82 1    
   159   80  201 1    
   160   81  202 1    
   161   81  203 1    
   162   81  204 1    
   163   82   83 2    
   164   82   84 am   BACKBONE|DICT|INTERRES
   165   84   85 1    
   166   84  205 1    
   167   85   86 1    
   168   85   87 1    
   169   85  206 1    
   170   86  207 1    
   171   86  208 1    
   172   86  209 1    
   173   87   88 2    
   174   87   89 am   BACKBONE|DICT|INTERRES
   175   89   90 1    
   176   89  210 1    
   177   90   91 1    
   178   90   92 1    
   179   90  211 1    
   180   91  212 1    
   181   91  213 1    
   182   91  214 1    
   183   92   93 2    
   184   92   94 am   BACKBONE|DICT|INTERRES
   185   94   95 1    
   186   94  215 1    
   187   95   96 1    
   188   95   97 1    
   189   95  216 1    
   190   96  217 1    
   191   96  218 1    
   192   96  219 1    
   193   97   98 2    
   194   97   99 am   BACKBONE|DICT|INTERRES
   195   99  100 1    
   196   99  220 1    
   197  100  101 1    
   198  100  102 1    
   199  100  221 1    
   200  101  222 1    
   201  101  223 1    
   202  101  224 1    
   203  102  103 2    
   204  102  104 am   BACKBONE|DICT|INTERRES
   205  104  105 1    
   206  104  225 1    
   207  105  106 1    
   208  105  107 1    
   209  105  226 1    
   210  106  227 1    
   211  106  228 1    
   212  106  229 1    
   213  107  108 2    
   214  107  109 am   BACKBONE|DICT|INTERRES
   215  109  110 1    
   216  109  230 1    
   217  110  111 1    
   218  110  112 1    
   219  110  231 1    
   220  111  232 1    
   221  111  233 1    
   222  111  234 1    
   223  112  113 2    
   224  112  114 am   BACKBONE|DICT|INTERRES
   225  114  115 1    
   226  114  235 1    
   227  115  116 1    
   228  115  117 1    
   229  115  236 1    
   230  116  237 1    
   231  116  238 1    
   232  116  239 1    
   233  117  118 2    
   234  117  119 am   BACKBONE|DICT|INTERRES
   235  119  120 1    
   236  119  240 1    
   237  120  121 1    
   238  120  124 1    
   239  120  241 1    
   240  121  122 am   BACKBONE|DICT|INTERRES
   241  121  123 2    
   242  122  242 1    
   243  122  243 1    
   244  124  125 1    
   245  124  244 1    
   246  124  245 1    
   247  125  126 1    
   248  126  246 1    
   249  126  247 1    
@<TRIPOS>SUBSTRUCTURE
     1 UNK         1 GROUP             0       ****    0 ROOT    
