@<TRIPOS>MOLECULE
3R540
247   249    1
SMALL
USER_CHARGES


@<TRIPOS>ATOM
      1 CA          5.1554  -14.3539  -48.9803 C.3       0 UNK        -0.1800 
      2 C           3.6899  -13.9464  -49.0290 C.2       0 UNK         0.5000 
      3 O           3.2402  -13.4059  -50.0389 O.2       0 UNK        -0.5000 
      4 N           2.9498  -14.2090  -47.9424 N.am      1 UNK        -0.5000 
      5 CA          1.5113  -13.9399  -47.7750 C.3       1 UNK         0.1400 
      6 C6          0.6007  -14.7643  -48.7276 C.3       23 UNK        -0.0398 
      7 S7          0.8605  -16.5684  -48.6028 S.3       23 UNK        -0.2404 
      8 C8          1.6944  -16.8943  -50.1860 C.3       23 UNK        -0.0205 
      9 C9          2.0722  -18.3578  -50.3479 C.ar      23 UNK        -0.0193 
     10 C10         1.3482  -19.1815  -51.2132 C.ar      23 UNK        -0.1150 
     11 C11         1.7474  -20.5031  -51.4329 C.ar      23 UNK        -0.0193 
     12 C12         2.8453  -21.0142  -50.7362 C.ar      23 UNK        -0.1150 
     13 C13         3.5657  -20.2113  -49.8472 C.ar      23 UNK        -0.0193 
     14 C14         3.1813  -18.8756  -49.6728 C.ar      23 UNK        -0.1150 
     15 C15         4.7741  -20.8043  -49.1235 C.3       23 UNK        -0.0205 
     16 S16         5.0171  -20.1926  -47.4213 S.3       23 UNK        -0.2404 
     17 C17         3.4618  -20.7030  -46.6185 C.3       23 UNK        -0.0398 
     18 CA          3.6704  -21.7488  -45.4924 C.3       11 UNK         0.1400 
     19 N           2.7465  -21.4990  -44.3815 N.am      11 UNK        -0.5000 
     20 C           2.8512  -21.9783  -43.1354 C.2       10 UNK         0.5000 
     21 O           3.8082  -22.6383  -42.7311 O.2       10 UNK        -0.5000 
     22 CA          1.6490  -21.7186  -42.2064 C.3       10 UNK         0.1400 
     23 CB          1.8249  -20.4029  -41.4328 C.3       10 UNK        -0.1800 
     24 N           0.3787  -21.6904  -42.9399 N.am      10 UNK        -0.5000 
     25 C          -0.2002  -22.7658  -43.4938 C.2       9 UNK         0.5000 
     26 O           0.2513  -23.9069  -43.4009 O.2       9 UNK        -0.5000 
     27 CA         -1.4608  -22.5191  -44.3425 C.3       9 UNK         0.1400 
     28 CB         -2.7018  -22.3937  -43.4484 C.3       9 UNK        -0.1800 
     29 N          -1.3358  -21.3386  -45.2014 N.am      9 UNK        -0.5000 
     30 C          -0.4892  -21.2594  -46.2410 C.2       8 UNK         0.5000 
     31 O           0.2187  -22.1983  -46.6042 O.2       8 UNK        -0.5000 
     32 CA         -0.3621  -19.9016  -46.9626 C.3       8 UNK         0.1400 
     33 CB         -1.3277  -19.8268  -48.1523 C.3       8 UNK        -0.1800 
     34 N          -0.5910  -18.7531  -46.0857 N.am      8 UNK        -0.5000 
     35 C           0.1098  -18.4797  -44.9743 C.2       7 UNK         0.5000 
     36 O           1.0780  -19.1441  -44.6080 O.2       7 UNK        -0.5000 
     37 CA         -0.3716  -17.3167  -44.0837 C.3       7 UNK         0.1400 
     38 CB          0.5223  -16.0877  -44.2856 C.3       7 UNK        -0.1800 
     39 N          -1.7654  -16.9349  -44.3124 N.am      7 UNK        -0.5000 
     40 C          -2.8278  -17.7378  -44.1480 C.2       6 UNK         0.5000 
     41 O          -2.7507  -18.8814  -43.6964 O.2       6 UNK        -0.5000 
     42 CA         -4.1966  -17.1961  -44.6055 C.3       6 UNK         0.1400 
     43 CB         -5.0164  -16.7307  -43.3928 C.3       6 UNK        -0.1800 
     44 N          -4.1312  -16.0993  -45.5776 N.am      6 UNK        -0.5000 
     45 C          -3.5248  -16.1213  -46.7758 C.2       5 UNK         0.5000 
     46 O          -2.8891  -17.0777  -47.2150 O.2       5 UNK        -0.5000 
     47 CA         -3.5844  -14.8141  -47.5884 C.3       5 UNK         0.1400 
     48 CB         -4.8311  -14.7924  -48.4851 C.3       5 UNK        -0.1800 
     49 N          -3.5644  -13.6141  -46.7452 N.am      5 UNK        -0.5000 
     50 C          -2.5409  -13.2652  -45.9544 C.2       4 UNK         0.5000 
     51 O          -1.4877  -13.9037  -45.8690 O.2       4 UNK        -0.5000 
     52 CA         -2.7516  -12.0340  -45.0657 C.3       4 UNK         0.1400 
     53 CB         -3.5295  -12.4301  -43.7944 C.3       4 UNK        -0.1800 
     54 N          -1.4385  -11.5029  -44.7234 N.am      4 UNK        -0.5000 
     55 C          -1.1747  -10.3434  -44.1127 C.2       3 UNK         0.5000 
     56 O          -2.0361   -9.5449  -43.7423 O.2       3 UNK        -0.5000 
     57 CA          0.3137  -10.0170  -43.8969 C.3       3 UNK         0.1400 
     58 CB          0.8642  -10.7717  -42.6764 C.3       3 UNK        -0.1800 
     59 N           1.1268  -10.3367  -45.0718 N.am      3 UNK        -0.5000 
     60 C           1.1256   -9.6251  -46.2083 C.2       2 UNK         0.5000 
     61 O           0.4574   -8.6043  -46.3771 O.2       2 UNK        -0.5000 
     62 CA          2.0258  -10.1360  -47.3479 C.3       2 UNK         0.1400 
     63 CB          3.4309   -9.5233  -47.2426 C.3       2 UNK        -0.1800 
     64 N           2.1414  -11.5949  -47.3748 N.am      2 UNK        -0.5000 
     65 C           1.1774  -12.4278  -47.7942 C.2       1 UNK         0.5000 
     66 O           0.0733  -12.0391  -48.1787 O.2       1 UNK        -0.5000 
     67 C           3.5868  -23.1986  -46.0369 C.2       11 UNK         0.5000 
     68 O           4.4389  -23.5921  -46.8338 O.2       11 UNK        -0.5000 
     69 N           2.5747  -23.9632  -45.5960 N.am      12 UNK        -0.5000 
     70 CA          2.2717  -25.3521  -45.9476 C.3       12 UNK         0.1400 
     71 CB          3.4063  -26.3005  -45.5057 C.3       12 UNK        -0.1800 
     72 C           1.8638  -25.5262  -47.4244 C.2       12 UNK         0.5000 
     73 O           2.2554  -26.5044  -48.0637 O.2       12 UNK        -0.5000 
     74 N           1.0614  -24.5814  -47.9368 N.am      13 UNK        -0.5000 
     75 CA          0.4892  -24.6148  -49.2851 C.3       13 UNK         0.1400 
     76 CB         -0.1981  -23.2712  -49.5713 C.3       13 UNK        -0.1800 
     77 C          -0.5258  -25.7551  -49.4871 C.2       13 UNK         0.5000 
     78 O          -0.6237  -26.2880  -50.5926 O.2       13 UNK        -0.5000 
     79 N          -1.2773  -26.0758  -48.4200 N.am      14 UNK        -0.5000 
     80 CA         -2.3781  -27.0496  -48.3649 C.3       14 UNK         0.1400 
     81 CB         -1.8506  -28.4845  -48.5737 C.3       14 UNK        -0.1800 
     82 C          -3.5565  -26.6993  -49.3042 C.2       14 UNK         0.5000 
     83 O          -4.2831  -27.5901  -49.7490 O.2       14 UNK        -0.5000 
     84 N          -3.7175  -25.4019  -49.5934 N.am      15 UNK        -0.5000 
     85 CA         -4.7564  -24.8481  -50.4555 C.3       15 UNK         0.1400 
     86 CB         -4.3379  -23.4286  -50.8604 C.3       15 UNK        -0.1800 
     87 C          -6.1250  -24.8146  -49.7560 C.2       15 UNK         0.5000 
     88 O          -6.1916  -24.6852  -48.5293 O.2       15 UNK        -0.5000 
     89 N          -7.1934  -24.8815  -50.5607 N.am      16 UNK        -0.5000 
     90 CA         -8.5828  -24.7544  -50.1212 C.3       16 UNK         0.1400 
     91 CB         -9.5162  -24.9726  -51.3215 C.3       16 UNK        -0.1800 
     92 C          -8.8441  -23.3837  -49.4718 C.2       16 UNK         0.5000 
     93 O          -8.4301  -22.3605  -50.0223 O.2       16 UNK        -0.5000 
     94 N          -9.4864  -23.4017  -48.2955 N.am      17 UNK        -0.5000 
     95 CA         -9.8118  -22.2466  -47.4463 C.3       17 UNK         0.1400 
     96 CB        -10.8712  -21.3592  -48.1335 C.3       17 UNK        -0.1800 
     97 C          -8.5820  -21.4327  -46.9772 C.2       17 UNK         0.5000 
     98 O          -8.7376  -20.2735  -46.5900 O.2       17 UNK        -0.5000 
     99 N          -7.3877  -22.0473  -47.0265 N.am      18 UNK        -0.5000 
    100 CA        -6.0729  -21.4562  -46.7537 C.3       18 UNK         0.1400 
    101 CB        -5.9324  -21.0907  -45.2599 C.3       18 UNK        -0.1800 
    102 C         -5.7281  -20.2769  -47.6900 C.2       18 UNK         0.5000 
    103 O         -5.0521  -19.3423  -47.2654 O.2       18 UNK        -0.5000 
    104 N         -6.2098  -20.3228  -48.9401 N.am      19 UNK        -0.5000 
    105 CA        -5.9666  -19.2951  -49.9519 C.3       19 UNK         0.1400 
    106 CB        -6.8786  -19.5675  -51.1576 C.3       19 UNK        -0.1800 
    107 C         -4.4950  -19.2458  -50.4038 C.2       19 UNK         0.5000 
    108 O         -3.8311  -20.2826  -50.4658 O.2       19 UNK        -0.5000 
    109 N         -4.0287  -18.0546  -50.7975 N.am      20 UNK        -0.5000 
    110 CA        -2.7070  -17.8289  -51.3875 C.3       20 UNK         0.1400 
    111 CB        -2.2890  -16.3684  -51.1462 C.3       20 UNK        -0.1800 
    112 C         -2.6983  -18.2231  -52.8793 C.2       20 UNK         0.5000 
    113 O         -2.4760  -17.3809  -53.7514 O.2       20 UNK        -0.5000 
    114 N         -2.9631  -19.5104  -53.1406 N.am      21 UNK        -0.5000 
    115 CA        -3.1523  -20.1196  -54.4625 C.3       21 UNK         0.1400 
    116 CB        -3.5317  -21.5956  -54.2662 C.3       21 UNK        -0.1800 
    117 C         -1.9475  -19.9939  -55.4171 C.2       21 UNK         0.5000 
    118 O         -2.1229  -20.0837  -56.6328 O.2       21 UNK        -0.5000 
    119 N         -0.7573  -19.7745  -54.8496 N.am      22 UNK        -0.5000 
    120 CA         0.4910  -19.4854  -55.5677 C.3       22 UNK         0.1400 
    121 C          0.5557  -18.0506  -56.1732 C.2       22 UNK         0.5000 
    122 N         -0.3341  -17.1284  -55.8203 N.am      22 UNK        -0.7600 
    123 O          1.4315  -17.7700  -56.9869 O.2       22 UNK        -0.5000 
    124 C124        1.7321  -19.7537  -54.6786 C.3       23 UNK        -0.0398 
    125 S125        1.8274  -21.4690  -54.0520 S.3       23 UNK        -0.2404 
    126 C126        1.0011  -21.3805  -52.4269 C.3       23 UNK        -0.0205 
    127 H127        5.7929  -13.4811  -49.1209 H         1 UNK         0.0600 
    128 H128        5.3714  -15.0677  -49.7754 H         1 UNK         0.0600 
    129 H129        5.4169  -14.8172  -48.0286 H         1 UNK         0.0600 
    130 H130        3.3903  -14.6658  -47.1562 H         1 UNK         0.3000 
    131 H131        1.2775  -14.2534  -46.7592 H         1 UNK         0.0600 
    132 H132       -0.4463  -14.5838  -48.4863 H         1 UNK         0.0800 
    133 H133        0.7281  -14.4394  -49.7611 H         1 UNK         0.0800 
    134 H134        1.0479  -16.5760  -51.0047 H         1 UNK         0.0800 
    135 H135        2.5964  -16.2875  -50.2571 H         1 UNK         0.0800 
    136 H136        0.4969  -18.7812  -51.7440 H         1 UNK         0.1150 
    137 H137        3.1477  -22.0391  -50.9009 H         1 UNK         0.1150 
    138 H138        3.7440  -18.2311  -49.0125 H         1 UNK         0.1150 
    139 H139        4.6957  -21.8921  -49.0854 H         1 UNK         0.0800 
    140 H140        5.6686  -20.5793  -49.7051 H         1 UNK         0.0800 
    141 H141        3.0383  -19.7841  -46.2126 H         1 UNK         0.0800 
    142 H142        2.7373  -21.0510  -47.3567 H         1 UNK         0.0800 
    143 H143        4.6768  -21.6271  -45.0863 H         1 UNK         0.0600 
    144 H144        1.9615  -20.8869  -44.5824 H         1 UNK         0.3000 
    145 H145        1.6066  -22.5349  -41.4821 H         1 UNK         0.0600 
    146 H146        0.9973  -20.2372  -40.7430 H         1 UNK         0.0600 
    147 H147        1.8833  -19.5428  -42.1000 H         1 UNK         0.0600 
    148 H148        2.7415  -20.4200  -40.8418 H         1 UNK         0.0600 
    149 H149       -0.0290  -20.7814  -43.1046 H         1 UNK         0.3000 
    150 H150       -1.5991  -23.3913  -44.9851 H         1 UNK         0.0600 
    151 H151       -2.7805  -23.2416  -42.7666 H         1 UNK         0.0600 
    152 H152       -3.6120  -22.3794  -44.0449 H         1 UNK         0.0600 
    153 H153       -2.6773  -21.4870  -42.8430 H         1 UNK         0.0600 
    154 H154       -1.8642  -20.5168  -44.9328 H         1 UNK         0.3000 
    155 H155        0.6549  -19.8203  -47.3493 H         1 UNK         0.0600 
    156 H156       -1.1364  -20.6214  -48.8725 H         1 UNK         0.0600 
    157 H157       -1.2197  -18.8808  -48.6817 H         1 UNK         0.0600 
    158 H158       -2.3675  -19.9110  -47.8344 H         1 UNK         0.0600 
    159 H159       -1.3670  -18.1484  -46.3382 H         1 UNK         0.3000 
    160 H160       -0.2825  -17.6418  -43.0453 H         1 UNK         0.0600 
    161 H161        0.4718  -15.7412  -45.3162 H         1 UNK         0.0600 
    162 H162        1.5653  -16.3189  -44.0655 H         1 UNK         0.0600 
    163 H163        0.2236  -15.2642  -43.6367 H         1 UNK         0.0600 
    164 H164       -1.9146  -16.0239  -44.7254 H         1 UNK         0.3000 
    165 H165       -4.7279  -18.0234  -45.0761 H         1 UNK         0.0600 
    166 H166       -6.0260  -16.4417  -43.6857 H         1 UNK         0.0600 
    167 H167       -5.1111  -17.5287  -42.6550 H         1 UNK         0.0600 
    168 H168       -4.5514  -15.8776  -42.8969 H         1 UNK         0.0600 
    169 H169       -4.6068  -15.2496  -45.3145 H         1 UNK         0.3000 
    170 H170       -2.7049  -14.7841  -48.2313 H         1 UNK         0.0600 
    171 H171       -5.7503  -14.7794  -47.8984 H         1 UNK         0.0600 
    172 H172       -4.8335  -13.9180  -49.1361 H         1 UNK         0.0600 
    173 H173       -4.8643  -15.6738  -49.1260 H         1 UNK         0.0600 
    174 H174       -4.3946  -13.0390  -46.7591 H         1 UNK         0.3000 
    175 H175       -3.3054  -11.2786  -45.6266 H         1 UNK         0.0600 
    176 H176       -2.9804  -13.1632  -43.2018 H         1 UNK         0.0600 
    177 H177       -3.7276  -11.5680  -43.1579 H         1 UNK         0.0600 
    178 H178       -4.4962  -12.8683  -44.0446 H         1 UNK         0.0600 
    179 H179       -0.6756  -12.0979  -45.0203 H         1 UNK         0.3000 
    180 H180        0.3972   -8.9462  -43.6982 H         1 UNK         0.0600 
    181 H181        1.8977  -10.4909  -42.4729 H         1 UNK         0.0600 
    182 H182        0.8316  -11.8526  -42.8192 H         1 UNK         0.0600 
    183 H183        0.2838  -10.5415  -41.7820 H         1 UNK         0.0600 
    184 H184        1.7126  -11.1563  -45.0167 H         1 UNK         0.3000 
    185 H185        1.5839   -9.8083  -48.2915 H         1 UNK         0.0600 
    186 H186        4.0551   -9.8222  -48.0850 H         1 UNK         0.0600 
    187 H187        3.3826   -8.4335  -47.2460 H         1 UNK         0.0600 
    188 H188        3.9363   -9.8266  -46.3249 H         1 UNK         0.0600 
    189 H189        3.0273  -11.9891  -47.0938 H         1 UNK         0.3000 
    190 H190        1.9169  -23.5358  -44.9577 H         1 UNK         0.3000 
    191 H191        1.3883  -25.6177  -45.3656 H         1 UNK         0.0600 
    192 H192        3.1110  -27.3435  -45.6251 H         1 UNK         0.0600 
    193 H193        3.6552  -26.1533  -44.4547 H         1 UNK         0.0600 
    194 H194        4.3142  -26.1508  -46.0903 H         1 UNK         0.0600 
    195 H195        0.8119  -23.7787  -47.3619 H         1 UNK         0.3000 
    196 H196        1.3026  -24.7509  -50.0008 H         1 UNK         0.0600 
    197 H197       -0.6309  -23.2546  -50.5719 H         1 UNK         0.0600 
    198 H198        0.5073  -22.4436  -49.4984 H         1 UNK         0.0600 
    199 H199       -1.0109  -23.0800  -48.8702 H         1 UNK         0.0600 
    200 H200       -1.1019  -25.5681  -47.5648 H         1 UNK         0.3000 
    201 H201       -2.7798  -26.9943  -47.3522 H         1 UNK         0.0600 
    202 H202       -1.4998  -28.6432  -49.5937 H         1 UNK         0.0600 
    203 H203       -2.6308  -29.2211  -48.3789 H         1 UNK         0.0600 
    204 H204       -1.0241  -28.7027  -47.8973 H         1 UNK         0.0600 
    205 H205       -3.0981  -24.7379  -49.1560 H         1 UNK         0.3000 
    206 H206       -4.8310  -25.4642  -51.3542 H         1 UNK         0.0600 
    207 H207       -3.3925  -23.4303  -51.4033 H         1 UNK         0.0600 
    208 H208       -5.0836  -22.9620  -51.5053 H         1 UNK         0.0600 
    209 H209       -4.2199  -22.7912  -49.9837 H         1 UNK         0.0600 
    210 H210       -7.0490  -24.9471  -51.5575 H         1 UNK         0.3000 
    211 H211       -8.7731  -25.5408  -49.3879 H         1 UNK         0.0600 
    212 H212       -9.3505  -24.2273  -52.1007 H         1 UNK         0.0600 
    213 H213      -10.5621  -24.9042  -51.0196 H         1 UNK         0.0600 
    214 H214       -9.3698  -25.9588  -51.7625 H         1 UNK         0.0600 
    215 H215       -9.7614  -24.2985  -47.9184 H         1 UNK         0.3000 
    216 H216      -10.2619  -22.6540  -46.5400 H         1 UNK         0.0600 
    217 H217      -11.2391  -20.5886  -47.4552 H         1 UNK         0.0600 
    218 H218      -11.7330  -21.9467  -48.4500 H         1 UNK         0.0600 
    219 H219      -10.4678  -20.8548  -49.0121 H         1 UNK         0.0600 
    220 H220       -7.3632  -22.9973  -47.3761 H         1 UNK         0.3000 
    221 H221       -5.3389  -22.2331  -46.9726 H         1 UNK         0.0600 
    222 H222       -4.9266  -20.7336  -45.0365 H         1 UNK         0.0600 
    223 H223       -6.6231  -20.2998  -44.9674 H         1 UNK         0.0600 
    224 H224       -6.1209  -21.9545  -44.6226 H         1 UNK         0.0600 
    225 H225       -6.7790  -21.1112  -49.2231 H         1 UNK         0.3000 
    226 H226       -6.2332  -18.3272  -49.5222 H         1 UNK         0.0600 
    227 H227       -7.9293  -19.5622  -50.8665 H         1 UNK         0.0600 
    228 H228       -6.7506  -18.8075  -51.9294 H         1 UNK         0.0600 
    229 H229       -6.6636  -20.5364  -51.6111 H         1 UNK         0.0600 
    230 H230       -4.6455  -17.2566  -50.7739 H         1 UNK         0.3000 
    231 H231       -1.9752  -18.4642  -50.8853 H         1 UNK         0.0600 
    232 H232       -1.3216  -16.1555  -51.6020 H         1 UNK         0.0600 
    233 H233       -2.1911  -16.1666  -50.0802 H         1 UNK         0.0600 
    234 H234       -3.0114  -15.6646  -51.5611 H         1 UNK         0.0600 
    235 H235       -3.1602  -20.1043  -52.3404 H         1 UNK         0.3000 
    236 H236       -3.9922  -19.6096  -54.9383 H         1 UNK         0.0600 
    237 H237       -2.7418  -22.1481  -53.7556 H         1 UNK         0.0600 
    238 H238       -4.4441  -21.6931  -53.6776 H         1 UNK         0.0600 
    239 H239       -3.7105  -22.0864  -55.2239 H         1 UNK         0.0600 
    240 H240       -0.7211  -19.7070  -53.8460 H         1 UNK         0.3000 
    241 H241        0.5434  -20.1705  -56.4161 H         1 UNK         0.0600 
    242 H242       -0.2763  -16.2089  -56.2280 H         1 UNK         0.3800 
    243 H243       -1.0676  -17.3282  -55.1476 H         1 UNK         0.3800 
    244 H244        1.7762  -19.0450  -53.8533 H         1 UNK         0.0800 
    245 H245        2.6429  -19.5829  -55.2552 H         1 UNK         0.0800 
    246 H246       -0.0309  -21.0488  -52.5385 H         1 UNK         0.0800 
    247 H247        0.9472  -22.3962  -52.0366 H         1 UNK         0.0800 
@<TRIPOS>BOND
     1    1    2 1    
     2    1  127 1    
     3    1  128 1    
     4    1  129 1    
     5    2    3 2    
     6    2    4 am   BACKBONE|DICT|INTERRES
     7    4    5 1    
     8    4  130 1    
     9    5    6 1    
    10    5   65 1    
    11    5  131 1    
    12    6    7 1    
    13    6  132 1    
    14    6  133 1    
    15    7    8 1    
    16    8    9 1    
    17    8  134 1    
    18    8  135 1    
    19    9   10 ar   
    20    9   14 ar   
    21   10   11 ar   
    22   10  136 1    
    23   11   12 ar   
    24   11  126 1    
    25   12   13 ar   
    26   12  137 1    
    27   13   14 ar   
    28   13   15 1    
    29   14  138 1    
    30   15   16 1    
    31   15  139 1    
    32   15  140 1    
    33   16   17 1    
    34   17   18 1    
    35   17  141 1    
    36   17  142 1    
    37   18   19 1    
    38   18   67 1    
    39   18  143 1    
    40   19   20 am   BACKBONE|DICT|INTERRES
    41   19  144 1    
    42   20   21 2    
    43   20   22 1    
    44   22   23 1    
    45   22   24 1    
    46   22  145 1    
    47   23  146 1    
    48   23  147 1    
    49   23  148 1    
    50   24   25 am   BACKBONE|DICT|INTERRES
    51   24  149 1    
    52   25   26 2    
    53   25   27 1    
    54   27   28 1    
    55   27   29 1    
    56   27  150 1    
    57   28  151 1    
    58   28  152 1    
    59   28  153 1    
    60   29   30 am   BACKBONE|DICT|INTERRES
    61   29  154 1    
    62   30   31 2    
    63   30   32 1    
    64   32   33 1    
    65   32   34 1    
    66   32  155 1    
    67   33  156 1    
    68   33  157 1    
    69   33  158 1    
    70   34   35 am   BACKBONE|DICT|INTERRES
    71   34  159 1    
    72   35   36 2    
    73   35   37 1    
    74   37   38 1    
    75   37   39 1    
    76   37  160 1    
    77   38  161 1    
    78   38  162 1    
    79   38  163 1    
    80   39   40 am   BACKBONE|DICT|INTERRES
    81   39  164 1    
    82   40   41 2    
    83   40   42 1    
    84   42   43 1    
    85   42   44 1    
    86   42  165 1    
    87   43  166 1    
    88   43  167 1    
    89   43  168 1    
    90   44   45 am   BACKBONE|DICT|INTERRES
    91   44  169 1    
    92   45   46 2    
    93   45   47 1    
    94   47   48 1    
    95   47   49 1    
    96   47  170 1    
    97   48  171 1    
    98   48  172 1    
    99   48  173 1    
   100   49   50 am   BACKBONE|DICT|INTERRES
   101   49  174 1    
   102   50   51 2    
   103   50   52 1    
   104   52   53 1    
   105   52   54 1    
   106   52  175 1    
   107   53  176 1    
   108   53  177 1    
   109   53  178 1    
   110   54   55 am   BACKBONE|DICT|INTERRES
   111   54  179 1    
   112   55   56 2    
   113   55   57 1    
   114   57   58 1    
   115   57   59 1    
   116   57  180 1    
   117   58  181 1    
   118   58  182 1    
   119   58  183 1    
   120   59   60 am   BACKBONE|DICT|INTERRES
   121   59  184 1    
   122   60   61 2    
   123   60   62 1    
   124   62   63 1    
   125   62   64 1    
   126   62  185 1    
   127   63  186 1    
   128   63  187 1    
   129   63  188 1    
   130   64   65 am   BACKBONE|DICT|INTERRES
   131   64  189 1    
   132   65   66 2    
   133   67   68 2    
   134   67   69 am   BACKBONE|DICT|INTERRES
   135   69   70 1    
   136   69  190 1    
   137   70   71 1    
   138   70   72 1    
   139   70  191 1    
   140   71  192 1    
   141   71  193 1    
   142   71  194 1    
   143   72   73 2    
   144   72   74 am   BACKBONE|DICT|INTERRES
   145   74   75 1    
   146   74  195 1    
   147   75   76 1    
   148   75   77 1    
   149   75  196 1    
   150   76  197 1    
   151   76  198 1    
   152   76  199 1    
   153   77   78 2    
   154   77   79 am   BACKBONE|DICT|INTERRES
   155   79   80 1    
   156   79  200 1    
   157   80   81 1    
   158   80   82 1    
   159   80  201 1    
   160   81  202 1    
   161   81  203 1    
   162   81  204 1    
   163   82   83 2    
   164   82   84 am   BACKBONE|DICT|INTERRES
   165   84   85 1    
   166   84  205 1    
   167   85   86 1    
   168   85   87 1    
   169   85  206 1    
   170   86  207 1    
   171   86  208 1    
   172   86  209 1    
   173   87   88 2    
   174   87   89 am   BACKBONE|DICT|INTERRES
   175   89   90 1    
   176   89  210 1    
   177   90   91 1    
   178   90   92 1    
   179   90  211 1    
   180   91  212 1    
   181   91  213 1    
   182   91  214 1    
   183   92   93 2    
   184   92   94 am   BACKBONE|DICT|INTERRES
   185   94   95 1    
   186   94  215 1    
   187   95   96 1    
   188   95   97 1    
   189   95  216 1    
   190   96  217 1    
   191   96  218 1    
   192   96  219 1    
   193   97   98 2    
   194   97   99 am   BACKBONE|DICT|INTERRES
   195   99  100 1    
   196   99  220 1    
   197  100  101 1    
   198  100  102 1    
   199  100  221 1    
   200  101  222 1    
   201  101  223 1    
   202  101  224 1    
   203  102  103 2    
   204  102  104 am   BACKBONE|DICT|INTERRES
   205  104  105 1    
   206  104  225 1    
   207  105  106 1    
   208  105  107 1    
   209  105  226 1    
   210  106  227 1    
   211  106  228 1    
   212  106  229 1    
   213  107  108 2    
   214  107  109 am   BACKBONE|DICT|INTERRES
   215  109  110 1    
   216  109  230 1    
   217  110  111 1    
   218  110  112 1    
   219  110  231 1    
   220  111  232 1    
   221  111  233 1    
   222  111  234 1    
   223  112  113 2    
   224  112  114 am   BACKBONE|DICT|INTERRES
   225  114  115 1    
   226  114  235 1    
   227  115  116 1    
   228  115  117 1    
   229  115  236 1    
   230  116  237 1    
   231  116  238 1    
   232  116  239 1    
   233  117  118 2    
   234  117  119 am   BACKBONE|DICT|INTERRES
   235  119  120 1    
   236  119  240 1    
   237  120  121 1    
   238  120  124 1    
   239  120  241 1    
   240  121  122 am   BACKBONE|DICT|INTERRES
   241  121  123 2    
   242  122  242 1    
   243  122  243 1    
   244  124  125 1    
   245  124  244 1    
   246  124  245 1    
   247  125  126 1    
   248  126  246 1    
   249  126  247 1    
@<TRIPOS>SUBSTRUCTURE
     1 UNK         1 GROUP             0       ****    0 ROOT    
