@<TRIPOS>MOLECULE
3R540
247   249    1
SMALL
USER_CHARGES


@<TRIPOS>ATOM
      1 CA          3.6935  -19.8535  -46.4225 C.3       0 UNK        -0.1800 
      2 C           3.2335  -18.4313  -46.7073 C.2       0 UNK         0.5000 
      3 O           2.6295  -17.8035  -45.8393 O.2       0 UNK        -0.5000 
      4 N           3.5252  -17.9272  -47.9161 N.am      1 UNK        -0.5000 
      5 CA          3.0629  -16.6475  -48.4803 C.3       1 UNK         0.1400 
      6 C6          3.6459  -16.3891  -49.8947 C.3       23 UNK        -0.0398 
      7 S7          3.3218  -17.7173  -51.1082 S.3       23 UNK        -0.2404 
      8 C8          2.1668  -16.9174  -52.2738 C.3       23 UNK        -0.0205 
      9 C9          0.7227  -17.2203  -51.9095 C.ar      23 UNK        -0.0193 
     10 C10         0.0120  -18.1987  -52.6107 C.ar      23 UNK        -0.1150 
     11 C11        -1.2907  -18.5413  -52.2368 C.ar      23 UNK        -0.0193 
     12 C12        -1.8795  -17.8911  -51.1474 C.ar      23 UNK        -0.1150 
     13 C13        -1.1777  -16.9134  -50.4376 C.ar      23 UNK        -0.0193 
     14 C14         0.1122  -16.5605  -50.8412 C.ar      23 UNK        -0.1150 
     15 C15        -1.7627  -16.3282  -49.1617 C.3       23 UNK        -0.0205 
     16 S16        -2.0362  -17.6056  -47.8843 S.3       23 UNK        -0.2404 
     17 C17        -0.4736  -18.5706  -47.9303 C.3       23 UNK        -0.0398 
     18 CA         -0.5133  -19.9740  -47.2791 C.3       11 UNK         0.1400 
     19 N          -0.4153  -19.9096  -45.8219 N.am      11 UNK        -0.5000 
     20 C          -0.0833  -20.9524  -45.0502 C.2       10 UNK         0.5000 
     21 O           0.1582  -22.0745  -45.4925 O.2       10 UNK        -0.5000 
     22 CA         -0.0465  -20.7197  -43.5321 C.3       10 UNK         0.1400 
     23 CB          1.2738  -20.0526  -43.1251 C.3       10 UNK        -0.1800 
     24 N          -1.1678  -19.9186  -43.0449 N.am      10 UNK        -0.5000 
     25 C          -2.4607  -20.2566  -43.1449 C.2       9 UNK         0.5000 
     26 O          -2.8608  -21.2794  -43.7003 O.2       9 UNK        -0.5000 
     27 CA         -3.4747  -19.2722  -42.5435 C.3       9 UNK         0.1400 
     28 CB         -3.5304  -19.4084  -41.0139 C.3       9 UNK        -0.1800 
     29 N          -3.1314  -17.8978  -42.9006 N.am      9 UNK        -0.5000 
     30 C          -3.5315  -17.2931  -44.0268 C.2       8 UNK         0.5000 
     31 O          -4.3103  -17.8016  -44.8335 O.2       8 UNK        -0.5000 
     32 CA         -2.9658  -15.8857  -44.3070 C.3       8 UNK         0.1400 
     33 CB         -3.9211  -14.8069  -43.7751 C.3       8 UNK        -0.1800 
     34 N          -1.6303  -15.6564  -43.7489 N.am      8 UNK        -0.5000 
     35 C          -0.5274  -16.3160  -44.1285 C.2       7 UNK         0.5000 
     36 O          -0.5243  -17.2177  -44.9614 O.2       7 UNK        -0.5000 
     37 CA          0.7848  -15.9462  -43.4175 C.3       7 UNK         0.1400 
     38 CB          1.3796  -14.6737  -44.0362 C.3       7 UNK        -0.1800 
     39 N           0.6772  -15.7829  -41.9637 N.am      7 UNK        -0.5000 
     40 C           0.1019  -16.6412  -41.1051 C.2       6 UNK         0.5000 
     41 O          -0.5142  -17.6472  -41.4581 O.2       6 UNK        -0.5000 
     42 CA          0.2256  -16.3498  -39.5971 C.3       6 UNK         0.1400 
     43 CB          0.9514  -17.5009  -38.8816 C.3       6 UNK        -0.1800 
     44 N           0.9248  -15.0994  -39.3032 N.am      6 UNK        -0.5000 
     45 C           0.3573  -13.8858  -39.2779 C.2       5 UNK         0.5000 
     46 O          -0.8381  -13.6895  -39.4982 O.2       5 UNK        -0.5000 
     47 CA          1.2767  -12.6878  -38.9607 C.3       5 UNK         0.1400 
     48 CB          1.0890  -12.2383  -37.5035 C.3       5 UNK        -0.1800 
     49 N           2.6975  -12.9661  -39.1905 N.am      5 UNK        -0.5000 
     50 C           3.2559  -13.1303  -40.3968 C.2       4 UNK         0.5000 
     51 O           2.6256  -13.0133  -41.4490 O.2       4 UNK        -0.5000 
     52 CA          4.7567  -13.4953  -40.4454 C.3       4 UNK         0.1400 
     53 CB          5.3455  -13.9272  -39.0831 C.3       4 UNK        -0.1800 
     54 N           5.0453  -14.5089  -41.4647 N.am      4 UNK        -0.5000 
     55 C           4.5224  -15.7383  -41.5691 C.2       3 UNK         0.5000 
     56 O           3.6993  -16.1969  -40.7748 O.2       3 UNK        -0.5000 
     57 CA          5.0026  -16.5843  -42.7724 C.3       3 UNK         0.1400 
     58 CB          4.4162  -18.0061  -42.7635 C.3       3 UNK        -0.1800 
     59 N           4.7061  -15.9570  -44.0660 N.am      3 UNK        -0.5000 
     60 C           5.3504  -14.8990  -44.5807 C.2       2 UNK         0.5000 
     61 O           6.3059  -14.3565  -44.0218 O.2       2 UNK        -0.5000 
     62 CA          4.8435  -14.3581  -45.9288 C.3       2 UNK         0.1400 
     63 CB          5.8879  -13.5003  -46.6685 C.3       2 UNK        -0.1800 
     64 N           4.4059  -15.4484  -46.7972 N.am      2 UNK        -0.5000 
     65 C           3.3356  -15.4070  -47.5999 C.2       1 UNK         0.5000 
     66 O           2.5827  -14.4362  -47.6855 O.2       1 UNK        -0.5000 
     67 C          -1.6986  -20.8458  -47.7507 C.2       11 UNK         0.5000 
     68 O          -1.5694  -21.5677  -48.7408 O.2       11 UNK        -0.5000 
     69 N          -2.8116  -20.8021  -47.0040 N.am      12 UNK        -0.5000 
     70 CA         -3.9983  -21.6228  -47.2340 C.3       12 UNK         0.1400 
     71 CB         -5.1842  -21.0398  -46.4518 C.3       12 UNK        -0.1800 
     72 C          -3.7591  -23.0959  -46.8616 C.2       12 UNK         0.5000 
     73 O          -4.2452  -23.9806  -47.5646 O.2       12 UNK        -0.5000 
     74 N          -2.9921  -23.3323  -45.7871 N.am      13 UNK        -0.5000 
     75 CA         -2.5447  -24.6583  -45.3605 C.3       13 UNK         0.1400 
     76 CB         -1.9433  -24.5706  -43.9495 C.3       13 UNK        -0.1800 
     77 C          -1.5442  -25.2858  -46.3494 C.2       13 UNK         0.5000 
     78 O          -1.6390  -26.4822  -46.6262 O.2       13 UNK        -0.5000 
     79 N          -0.6226  -24.4674  -46.8799 N.am      14 UNK        -0.5000 
     80 CA          0.3201  -24.8445  -47.9352 C.3       14 UNK         0.1400 
     81 CB          1.3694  -23.7355  -48.1124 C.3       14 UNK        -0.1800 
     82 C          -0.3850  -25.1446  -49.2711 C.2       14 UNK         0.5000 
     83 O          -0.0131  -26.1052  -49.9460 O.2       14 UNK        -0.5000 
     84 N          -1.4012  -24.3313  -49.6008 N.am      15 UNK        -0.5000 
     85 CA         -2.3017  -24.4484  -50.7506 C.3       15 UNK         0.1400 
     86 CB         -3.2018  -25.6927  -50.6052 C.3       15 UNK        -0.1800 
     87 C          -1.5501  -24.3985  -52.0959 C.2       15 UNK         0.5000 
     88 O          -1.7754  -25.2400  -52.9678 O.2       15 UNK        -0.5000 
     89 N          -0.6669  -23.3988  -52.2371 N.am      16 UNK        -0.5000 
     90 CA          0.2562  -23.2215  -53.3670 C.3       16 UNK         0.1400 
     91 CB          1.1634  -22.0149  -53.0821 C.3       16 UNK        -0.1800 
     92 C          -0.4118  -23.0895  -54.7537 C.2       16 UNK         0.5000 
     93 O           0.2143  -23.4284  -55.7585 O.2       16 UNK        -0.5000 
     94 N          -1.6702  -22.6348  -54.7794 N.am      17 UNK        -0.5000 
     95 CA         -2.5450  -22.6219  -55.9527 C.3       17 UNK         0.1400 
     96 CB         -2.6381  -21.1957  -56.5245 C.3       17 UNK        -0.1800 
     97 C          -3.9132  -23.2129  -55.5667 C.2       17 UNK         0.5000 
     98 O          -4.9549  -22.6388  -55.8849 O.2       17 UNK        -0.5000 
     99 N          -3.8806  -24.3288  -54.8207 N.am      18 UNK        -0.5000 
    100 CA        -5.0225  -25.0930  -54.2973 C.3       18 UNK         0.1400 
    101 CB        -5.8616  -25.6793  -55.4519 C.3       18 UNK        -0.1800 
    102 C         -5.8934  -24.3175  -53.2836 C.2       18 UNK         0.5000 
    103 O         -7.0171  -24.7367  -53.0035 O.2       18 UNK        -0.5000 
    104 N         -5.3728  -23.1907  -52.7726 N.am      19 UNK        -0.5000 
    105 CA        -5.9838  -22.1928  -51.8835 C.3       19 UNK         0.1400 
    106 CB        -6.3995  -22.8122  -50.5360 C.3       19 UNK        -0.1800 
    107 C         -7.1437  -21.4024  -52.5264 C.2       19 UNK         0.5000 
    108 O         -7.2143  -20.1852  -52.3598 O.2       19 UNK        -0.5000 
    109 N         -8.0221  -22.0946  -53.2594 N.am      20 UNK        -0.5000 
    110 CA        -9.2251  -21.5579  -53.8914 C.3       20 UNK         0.1400 
    111 CB       -10.0532  -22.7243  -54.4518 C.3       20 UNK        -0.1800 
    112 C         -8.9556  -20.5135  -54.9903 C.2       20 UNK         0.5000 
    113 O         -9.7469  -19.5796  -55.1287 O.2       20 UNK        -0.5000 
    114 N         -7.8678  -20.6834  -55.7569 N.am      21 UNK        -0.5000 
    115 CA        -7.5150  -19.7764  -56.8520 C.3       21 UNK         0.1400 
    116 CB        -6.6188  -20.5024  -57.8664 C.3       21 UNK        -0.1800 
    117 C         -6.8342  -18.4910  -56.3517 C.2       21 UNK         0.5000 
    118 O         -7.0976  -17.4172  -56.8952 O.2       21 UNK        -0.5000 
    119 N         -5.9679  -18.6241  -55.3404 N.am      22 UNK        -0.5000 
    120 CA        -5.2171  -17.5133  -54.7354 C.3       22 UNK         0.1400 
    121 C         -5.9831  -16.7557  -53.6141 C.2       22 UNK         0.5000 
    122 N         -6.9328  -17.3693  -52.9195 N.am      22 UNK        -0.7600 
    123 O         -5.7248  -15.5771  -53.3856 O.2       22 UNK        -0.5000 
    124 C124       -3.8026  -17.9512  -54.2796 C.3       23 UNK        -0.0398 
    125 S125       -3.7973  -19.4120  -53.1843 S.3       23 UNK        -0.2404 
    126 C126       -2.0078  -19.6706  -52.9688 C.3       23 UNK        -0.0205 
    127 H127        4.4226  -19.8597  -45.6131 H         1 UNK         0.0600 
    128 H128        2.8441  -20.4671  -46.1220 H         1 UNK         0.0600 
    129 H129        4.1511  -20.3148  -47.2979 H         1 UNK         0.0600 
    130 H130        4.0366  -18.5058  -48.5677 H         1 UNK         0.3000 
    131 H131        1.9796  -16.7278  -48.5703 H         1 UNK         0.0600 
    132 H132        4.7291  -16.2676  -49.8340 H         1 UNK         0.0800 
    133 H133        3.2687  -15.4452  -50.2920 H         1 UNK         0.0800 
    134 H134        2.3828  -17.2872  -53.2772 H         1 UNK         0.0800 
    135 H135        2.3287  -15.8397  -52.3145 H         1 UNK         0.0800 
    136 H136        0.4880  -18.7157  -53.4320 H         1 UNK         0.1150 
    137 H137       -2.8662  -18.1798  -50.8137 H         1 UNK         0.1150 
    138 H138        0.6643  -15.8140  -50.2887 H         1 UNK         0.1150 
    139 H139       -1.1062  -15.5596  -48.7505 H         1 UNK         0.0800 
    140 H140       -2.7106  -15.8388  -49.3885 H         1 UNK         0.0800 
    141 H141        0.3049  -17.9674  -47.4639 H         1 UNK         0.0800 
    142 H142       -0.1541  -18.7089  -48.9617 H         1 UNK         0.0800 
    143 H143        0.3902  -20.4868  -47.6169 H         1 UNK         0.0600 
    144 H144       -0.5612  -18.9930  -45.4003 H         1 UNK         0.3000 
    145 H145       -0.1020  -21.6943  -43.0433 H         1 UNK         0.0600 
    146 H146        1.3837  -19.0802  -43.6033 H         1 UNK         0.0600 
    147 H147        2.1292  -20.6610  -43.4213 H         1 UNK         0.0600 
    148 H148        1.3320  -19.9062  -42.0464 H         1 UNK         0.0600 
    149 H149       -0.9280  -19.0596  -42.5553 H         1 UNK         0.3000 
    150 H150       -4.4626  -19.5209  -42.9376 H         1 UNK         0.0600 
    151 H151       -3.8008  -20.4245  -40.7241 H         1 UNK         0.0600 
    152 H152       -4.2773  -18.7389  -40.5872 H         1 UNK         0.0600 
    153 H153       -2.5713  -19.1793  -40.5481 H         1 UNK         0.0600 
    154 H154       -2.4323  -17.4435  -42.3259 H         1 UNK         0.3000 
    155 H155       -2.8952  -15.7746  -45.3912 H         1 UNK         0.0600 
    156 H156       -4.0091  -14.8482  -42.6887 H         1 UNK         0.0600 
    157 H157       -4.9218  -14.9320  -44.1909 H         1 UNK         0.0600 
    158 H158       -3.5802  -13.8080  -44.0479 H         1 UNK         0.0600 
    159 H159       -1.5474  -14.9492  -43.0332 H         1 UNK         0.3000 
    160 H160        1.4871  -16.7600  -43.5936 H         1 UNK         0.0600 
    161 H161        2.3729  -14.4693  -43.6409 H         1 UNK         0.0600 
    162 H162        0.7572  -13.8001  -43.8394 H         1 UNK         0.0600 
    163 H163        1.4763  -14.7742  -45.1178 H         1 UNK         0.0600 
    164 H164        1.1735  -14.9945  -41.5710 H         1 UNK         0.3000 
    165 H165       -0.7890  -16.2940  -39.1975 H         1 UNK         0.0600 
    166 H166        1.0067  -17.3254  -37.8072 H         1 UNK         0.0600 
    167 H167        0.4277  -18.4467  -39.0276 H         1 UNK         0.0600 
    168 H168        1.9681  -17.6298  -39.2541 H         1 UNK         0.0600 
    169 H169        1.9229  -15.1712  -39.1601 H         1 UNK         0.3000 
    170 H170        0.9783  -11.8646  -39.6134 H         1 UNK         0.0600 
    171 H171        0.0458  -11.9915  -37.3015 H         1 UNK         0.0600 
    172 H172        1.3836  -13.0185  -36.8004 H         1 UNK         0.0600 
    173 H173        1.6794  -11.3481  -37.2856 H         1 UNK         0.0600 
    174 H174        3.2753  -13.0769  -38.3697 H         1 UNK         0.3000 
    175 H175        5.2771  -12.5899  -40.7603 H         1 UNK         0.0600 
    176 H176        6.3994  -14.1879  -39.1810 H         1 UNK         0.0600 
    177 H177        5.2877  -13.1220  -38.3500 H         1 UNK         0.0600 
    178 H178        4.8297  -14.7954  -38.6708 H         1 UNK         0.0600 
    179 H179        5.6686  -14.2185  -42.2129 H         1 UNK         0.3000 
    180 H180        6.0862  -16.6807  -42.6782 H         1 UNK         0.0600 
    181 H181        3.3314  -17.9907  -42.8522 H         1 UNK         0.0600 
    182 H182        4.6614  -18.5263  -41.8368 H         1 UNK         0.0600 
    183 H183        4.8132  -18.6026  -43.5840 H         1 UNK         0.0600 
    184 H184        3.9268  -16.3463  -44.5829 H         1 UNK         0.3000 
    185 H185        3.9930  -13.7183  -45.6846 H         1 UNK         0.0600 
    186 H186        6.7812  -14.0776  -46.9093 H         1 UNK         0.0600 
    187 H187        5.4838  -13.1039  -47.6001 H         1 UNK         0.0600 
    188 H188        6.1978  -12.6469  -46.0642 H         1 UNK         0.0600 
    189 H189        4.9606  -16.2930  -46.7718 H         1 UNK         0.3000 
    190 H190       -2.8276  -20.1911  -46.1997 H         1 UNK         0.3000 
    191 H191       -4.2409  -21.5817  -48.2982 H         1 UNK         0.0600 
    192 H192       -5.3838  -20.0101  -46.7496 H         1 UNK         0.0600 
    193 H193       -5.0034  -21.0461  -45.3766 H         1 UNK         0.0600 
    194 H194       -6.0925  -21.6147  -46.6363 H         1 UNK         0.0600 
    195 H195       -2.6966  -22.5464  -45.2163 H         1 UNK         0.3000 
    196 H196       -3.4202  -25.3093  -45.3144 H         1 UNK         0.0600 
    197 H197       -1.6362  -25.5552  -43.5949 H         1 UNK         0.0600 
    198 H198       -2.6684  -24.1785  -43.2361 H         1 UNK         0.0600 
    199 H199       -1.0663  -23.9241  -43.9229 H         1 UNK         0.0600 
    200 H200       -0.5519  -23.5179  -46.5244 H         1 UNK         0.3000 
    201 H201        0.8356  -25.7528  -47.6166 H         1 UNK         0.0600 
    202 H202        0.9139  -22.7929  -48.4159 H         1 UNK         0.0600 
    203 H203        2.0997  -24.0075  -48.8754 H         1 UNK         0.0600 
    204 H204        1.9167  -23.5588  -47.1863 H         1 UNK         0.0600 
    205 H205       -1.5644  -23.5209  -49.0110 H         1 UNK         0.3000 
    206 H206       -2.9483  -23.5701  -50.7230 H         1 UNK         0.0600 
    207 H207       -3.7204  -25.6931  -49.6466 H         1 UNK         0.0600 
    208 H208       -3.9644  -25.7194  -51.3823 H         1 UNK         0.0600 
    209 H209       -2.6299  -26.6184  -50.6749 H         1 UNK         0.0600 
    210 H210       -0.5434  -22.7680  -51.4576 H         1 UNK         0.3000 
    211 H211        0.8857  -24.1128  -53.4063 H         1 UNK         0.0600 
    212 H212        0.5879  -21.0979  -52.9656 H         1 UNK         0.0600 
    213 H213        1.8737  -21.8558  -53.8947 H         1 UNK         0.0600 
    214 H214        1.7435  -22.1633  -52.1711 H         1 UNK         0.0600 
    215 H215       -2.0987  -22.3869  -53.9015 H         1 UNK         0.3000 
    216 H216       -2.1400  -23.2732  -56.7298 H         1 UNK         0.0600 
    217 H217       -3.1853  -21.1913  -57.4675 H         1 UNK         0.0600 
    218 H218       -1.6490  -20.7821  -56.7212 H         1 UNK         0.0600 
    219 H219       -3.1562  -20.5220  -55.8443 H         1 UNK         0.0600 
    220 H220       -2.9727  -24.6959  -54.5513 H         1 UNK         0.3000 
    221 H221       -4.5944  -25.9313  -53.7464 H         1 UNK         0.0600 
    222 H222       -6.3924  -24.9031  -56.0038 H         1 UNK         0.0600 
    223 H223       -5.2348  -26.2243  -56.1577 H         1 UNK         0.0600 
    224 H224       -6.6087  -26.3801  -55.0776 H         1 UNK         0.0600 
    225 H225       -4.4733  -22.9253  -53.1403 H         1 UNK         0.3000 
    226 H226       -5.1967  -21.4704  -51.6668 H         1 UNK         0.0600 
    227 H227       -5.5644  -23.3322  -50.0663 H         1 UNK         0.0600 
    228 H228       -6.7327  -22.0402  -49.8415 H         1 UNK         0.0600 
    229 H229       -7.2177  -23.5240  -50.6465 H         1 UNK         0.0600 
    230 H230       -7.8784  -23.0989  -53.3205 H         1 UNK         0.3000 
    231 H231       -9.8128  -21.0672  -53.1128 H         1 UNK         0.0600 
    232 H232      -10.3361  -23.4217  -53.6631 H         1 UNK         0.0600 
    233 H233       -9.5001  -23.2815  -55.2092 H         1 UNK         0.0600 
    234 H234      -10.9741  -22.3654  -54.9134 H         1 UNK         0.0600 
    235 H235       -7.2531  -21.4687  -55.5882 H         1 UNK         0.3000 
    236 H236       -8.4303  -19.4886  -57.3741 H         1 UNK         0.0600 
    237 H237       -6.4664  -19.8887  -58.7549 H         1 UNK         0.0600 
    238 H238       -5.6349  -20.7193  -57.4531 H         1 UNK         0.0600 
    239 H239       -7.0641  -21.4427  -58.1915 H         1 UNK         0.0600 
    240 H240       -5.8242  -19.5340  -54.9282 H         1 UNK         0.3000 
    241 H241       -5.0527  -16.7672  -55.5156 H         1 UNK         0.0600 
    242 H242       -7.4248  -16.8571  -52.2059 H         1 UNK         0.3800 
    243 H243       -7.0839  -18.3702  -53.0020 H         1 UNK         0.3800 
    244 H244       -3.2010  -18.1859  -55.1583 H         1 UNK         0.0800 
    245 H245       -3.2862  -17.1279  -53.7825 H         1 UNK         0.0800 
    246 H246       -1.5585  -19.8321  -53.9497 H         1 UNK         0.0800 
    247 H247       -1.8601  -20.5878  -52.3987 H         1 UNK         0.0800 
@<TRIPOS>BOND
     1    1    2 1    
     2    1  127 1    
     3    1  128 1    
     4    1  129 1    
     5    2    3 2    
     6    2    4 am   BACKBONE|DICT|INTERRES
     7    4    5 1    
     8    4  130 1    
     9    5    6 1    
    10    5   65 1    
    11    5  131 1    
    12    6    7 1    
    13    6  132 1    
    14    6  133 1    
    15    7    8 1    
    16    8    9 1    
    17    8  134 1    
    18    8  135 1    
    19    9   10 ar   
    20    9   14 ar   
    21   10   11 ar   
    22   10  136 1    
    23   11   12 ar   
    24   11  126 1    
    25   12   13 ar   
    26   12  137 1    
    27   13   14 ar   
    28   13   15 1    
    29   14  138 1    
    30   15   16 1    
    31   15  139 1    
    32   15  140 1    
    33   16   17 1    
    34   17   18 1    
    35   17  141 1    
    36   17  142 1    
    37   18   19 1    
    38   18   67 1    
    39   18  143 1    
    40   19   20 am   BACKBONE|DICT|INTERRES
    41   19  144 1    
    42   20   21 2    
    43   20   22 1    
    44   22   23 1    
    45   22   24 1    
    46   22  145 1    
    47   23  146 1    
    48   23  147 1    
    49   23  148 1    
    50   24   25 am   BACKBONE|DICT|INTERRES
    51   24  149 1    
    52   25   26 2    
    53   25   27 1    
    54   27   28 1    
    55   27   29 1    
    56   27  150 1    
    57   28  151 1    
    58   28  152 1    
    59   28  153 1    
    60   29   30 am   BACKBONE|DICT|INTERRES
    61   29  154 1    
    62   30   31 2    
    63   30   32 1    
    64   32   33 1    
    65   32   34 1    
    66   32  155 1    
    67   33  156 1    
    68   33  157 1    
    69   33  158 1    
    70   34   35 am   BACKBONE|DICT|INTERRES
    71   34  159 1    
    72   35   36 2    
    73   35   37 1    
    74   37   38 1    
    75   37   39 1    
    76   37  160 1    
    77   38  161 1    
    78   38  162 1    
    79   38  163 1    
    80   39   40 am   BACKBONE|DICT|INTERRES
    81   39  164 1    
    82   40   41 2    
    83   40   42 1    
    84   42   43 1    
    85   42   44 1    
    86   42  165 1    
    87   43  166 1    
    88   43  167 1    
    89   43  168 1    
    90   44   45 am   BACKBONE|DICT|INTERRES
    91   44  169 1    
    92   45   46 2    
    93   45   47 1    
    94   47   48 1    
    95   47   49 1    
    96   47  170 1    
    97   48  171 1    
    98   48  172 1    
    99   48  173 1    
   100   49   50 am   BACKBONE|DICT|INTERRES
   101   49  174 1    
   102   50   51 2    
   103   50   52 1    
   104   52   53 1    
   105   52   54 1    
   106   52  175 1    
   107   53  176 1    
   108   53  177 1    
   109   53  178 1    
   110   54   55 am   BACKBONE|DICT|INTERRES
   111   54  179 1    
   112   55   56 2    
   113   55   57 1    
   114   57   58 1    
   115   57   59 1    
   116   57  180 1    
   117   58  181 1    
   118   58  182 1    
   119   58  183 1    
   120   59   60 am   BACKBONE|DICT|INTERRES
   121   59  184 1    
   122   60   61 2    
   123   60   62 1    
   124   62   63 1    
   125   62   64 1    
   126   62  185 1    
   127   63  186 1    
   128   63  187 1    
   129   63  188 1    
   130   64   65 am   BACKBONE|DICT|INTERRES
   131   64  189 1    
   132   65   66 2    
   133   67   68 2    
   134   67   69 am   BACKBONE|DICT|INTERRES
   135   69   70 1    
   136   69  190 1    
   137   70   71 1    
   138   70   72 1    
   139   70  191 1    
   140   71  192 1    
   141   71  193 1    
   142   71  194 1    
   143   72   73 2    
   144   72   74 am   BACKBONE|DICT|INTERRES
   145   74   75 1    
   146   74  195 1    
   147   75   76 1    
   148   75   77 1    
   149   75  196 1    
   150   76  197 1    
   151   76  198 1    
   152   76  199 1    
   153   77   78 2    
   154   77   79 am   BACKBONE|DICT|INTERRES
   155   79   80 1    
   156   79  200 1    
   157   80   81 1    
   158   80   82 1    
   159   80  201 1    
   160   81  202 1    
   161   81  203 1    
   162   81  204 1    
   163   82   83 2    
   164   82   84 am   BACKBONE|DICT|INTERRES
   165   84   85 1    
   166   84  205 1    
   167   85   86 1    
   168   85   87 1    
   169   85  206 1    
   170   86  207 1    
   171   86  208 1    
   172   86  209 1    
   173   87   88 2    
   174   87   89 am   BACKBONE|DICT|INTERRES
   175   89   90 1    
   176   89  210 1    
   177   90   91 1    
   178   90   92 1    
   179   90  211 1    
   180   91  212 1    
   181   91  213 1    
   182   91  214 1    
   183   92   93 2    
   184   92   94 am   BACKBONE|DICT|INTERRES
   185   94   95 1    
   186   94  215 1    
   187   95   96 1    
   188   95   97 1    
   189   95  216 1    
   190   96  217 1    
   191   96  218 1    
   192   96  219 1    
   193   97   98 2    
   194   97   99 am   BACKBONE|DICT|INTERRES
   195   99  100 1    
   196   99  220 1    
   197  100  101 1    
   198  100  102 1    
   199  100  221 1    
   200  101  222 1    
   201  101  223 1    
   202  101  224 1    
   203  102  103 2    
   204  102  104 am   BACKBONE|DICT|INTERRES
   205  104  105 1    
   206  104  225 1    
   207  105  106 1    
   208  105  107 1    
   209  105  226 1    
   210  106  227 1    
   211  106  228 1    
   212  106  229 1    
   213  107  108 2    
   214  107  109 am   BACKBONE|DICT|INTERRES
   215  109  110 1    
   216  109  230 1    
   217  110  111 1    
   218  110  112 1    
   219  110  231 1    
   220  111  232 1    
   221  111  233 1    
   222  111  234 1    
   223  112  113 2    
   224  112  114 am   BACKBONE|DICT|INTERRES
   225  114  115 1    
   226  114  235 1    
   227  115  116 1    
   228  115  117 1    
   229  115  236 1    
   230  116  237 1    
   231  116  238 1    
   232  116  239 1    
   233  117  118 2    
   234  117  119 am   BACKBONE|DICT|INTERRES
   235  119  120 1    
   236  119  240 1    
   237  120  121 1    
   238  120  124 1    
   239  120  241 1    
   240  121  122 am   BACKBONE|DICT|INTERRES
   241  121  123 2    
   242  122  242 1    
   243  122  243 1    
   244  124  125 1    
   245  124  244 1    
   246  124  245 1    
   247  125  126 1    
   248  126  246 1    
   249  126  247 1    
@<TRIPOS>SUBSTRUCTURE
     1 UNK         1 GROUP             0       ****    0 ROOT    
