@<TRIPOS>MOLECULE
3R540
247   249    1
SMALL
USER_CHARGES


@<TRIPOS>ATOM
      1 CA          0.9088  -11.3654  -46.8919 C.3       0 UNK        -0.1800 
      2 C           2.0749  -11.8123  -47.7628 C.2       0 UNK         0.5000 
      3 O           2.4930  -11.0697  -48.6508 O.2       0 UNK        -0.5000 
      4 N           2.6011  -13.0130  -47.4997 N.am      1 UNK        -0.5000 
      5 CA          3.7510  -13.6159  -48.1874 C.3       1 UNK         0.1400 
      6 C6          3.3249  -14.8105  -49.0831 C.3       23 UNK        -0.0398 
      7 S7          2.5261  -14.2568  -50.6306 S.3       23 UNK        -0.2404 
      8 C8          0.7600  -14.5771  -50.2987 C.3       23 UNK        -0.0205 
      9 C9          0.2785  -16.0086  -50.5491 C.ar      23 UNK        -0.0193 
     10 C10        -1.0894  -16.2227  -50.7535 C.ar      23 UNK        -0.1150 
     11 C11        -1.5952  -17.5109  -50.9509 C.ar      23 UNK        -0.0193 
     12 C12        -0.7218  -18.5999  -50.9165 C.ar      23 UNK        -0.1150 
     13 C13         0.6468  -18.4082  -50.7259 C.ar      23 UNK        -0.0193 
     14 C14         1.1424  -17.1123  -50.5554 C.ar      23 UNK        -0.1150 
     15 C15         1.5771  -19.6123  -50.6755 C.3       23 UNK        -0.0205 
     16 S16         2.5320  -19.7278  -49.1245 S.3       23 UNK        -0.2404 
     17 C17         1.2914  -19.3715  -47.8338 C.3       23 UNK        -0.0398 
     18 CA          0.5678  -20.6278  -47.2981 C.3       11 UNK         0.1400 
     19 N           0.2355  -20.4728  -45.8824 N.am      11 UNK        -0.5000 
     20 C          -0.0949  -21.4687  -45.0525 C.2       10 UNK         0.5000 
     21 O          -0.1201  -22.6539  -45.3820 O.2       10 UNK        -0.5000 
     22 CA         -0.5028  -21.0541  -43.6259 C.3       10 UNK         0.1400 
     23 CB          0.7319  -20.9545  -42.7175 C.3       10 UNK        -0.1800 
     24 N          -1.2267  -19.7793  -43.6044 N.am      10 UNK        -0.5000 
     25 C          -2.4611  -19.6114  -44.0992 C.2       9 UNK         0.5000 
     26 O          -3.1344  -20.5288  -44.5672 O.2       9 UNK        -0.5000 
     27 CA         -3.0107  -18.1725  -44.1382 C.3       9 UNK         0.1400 
     28 CB         -3.7700  -17.8324  -42.8476 C.3       9 UNK        -0.1800 
     29 N          -1.9871  -17.1523  -44.3948 N.am      9 UNK        -0.5000 
     30 C          -1.2985  -17.0607  -45.5456 C.2       8 UNK         0.5000 
     31 O          -1.3941  -17.8915  -46.4461 O.2       8 UNK        -0.5000 
     32 CA         -0.3343  -15.8816  -45.7463 C.3       8 UNK         0.1400 
     33 CB         -0.9261  -14.8571  -46.7275 C.3       8 UNK        -0.1800 
     34 N           0.0097  -15.2315  -44.4870 N.am      8 UNK        -0.5000 
     35 C           1.1411  -14.5806  -44.2227 C.2       7 UNK         0.5000 
     36 O           2.0382  -14.4117  -45.0501 O.2       7 UNK        -0.5000 
     37 CA          1.3138  -14.0394  -42.7917 C.3       7 UNK         0.1400 
     38 CB          0.5041  -12.7458  -42.5942 C.3       7 UNK        -0.1800 
     39 N           1.0371  -15.0070  -41.7199 N.am      7 UNK        -0.5000 
     40 C          -0.1075  -15.6295  -41.3897 C.2       6 UNK         0.5000 
     41 O          -1.1573  -15.5231  -42.0280 O.2       6 UNK        -0.5000 
     42 CA         -0.0845  -16.5454  -40.1480 C.3       6 UNK         0.1400 
     43 CB         -0.1510  -18.0236  -40.5593 C.3       6 UNK        -0.1800 
     44 N           1.0974  -16.3490  -39.3096 N.am      6 UNK        -0.5000 
     45 C           1.2852  -15.3188  -38.4724 C.2       5 UNK         0.5000 
     46 O           0.4384  -14.4507  -38.2594 O.2       5 UNK        -0.5000 
     47 CA          2.6549  -15.2317  -37.7668 C.3       5 UNK         0.1400 
     48 CB          2.5421  -15.7138  -36.3123 C.3       5 UNK        -0.1800 
     49 N           3.7148  -15.9925  -38.4372 N.am      5 UNK        -0.5000 
     50 C           4.2103  -15.7190  -39.6517 C.2       4 UNK         0.5000 
     51 O           3.8384  -14.7581  -40.3306 O.2       4 UNK        -0.5000 
     52 CA          5.2825  -16.6826  -40.2093 C.3       4 UNK         0.1400 
     53 CB          5.2639  -18.0832  -39.5557 C.3       4 UNK        -0.1800 
     54 N           5.2083  -16.8030  -41.6680 N.am      4 UNK        -0.5000 
     55 C           4.1642  -17.2127  -42.4012 C.2       3 UNK         0.5000 
     56 O           3.0950  -17.5939  -41.9220 O.2       3 UNK        -0.5000 
     57 CA          4.3519  -17.1425  -43.9304 C.3       3 UNK         0.1400 
     58 CB          3.1732  -17.7555  -44.7065 C.3       3 UNK        -0.1800 
     59 N           4.5487  -15.7631  -44.3805 N.am      3 UNK        -0.5000 
     60 C           5.6918  -15.0696  -44.2882 C.2       2 UNK         0.5000 
     61 O           6.7243  -15.5352  -43.8002 O.2       2 UNK        -0.5000 
     62 CA          5.6658  -13.6151  -44.8057 C.3       2 UNK         0.1400 
     63 CB          7.0731  -13.0582  -45.1064 C.3       2 UNK        -0.1800 
     64 N           4.7723  -13.4179  -45.9529 N.am      2 UNK        -0.5000 
     65 C           4.8446  -13.9983  -47.1626 C.2       1 UNK         0.5000 
     66 O           5.7305  -14.7921  -47.4821 O.2       1 UNK        -0.5000 
     67 C          -0.6912  -20.9707  -48.1218 C.2       11 UNK         0.5000 
     68 O          -0.6397  -21.8506  -48.9792 O.2       11 UNK        -0.5000 
     69 N          -1.8170  -20.3136  -47.8058 N.am      12 UNK        -0.5000 
     70 CA         -3.1379  -20.5947  -48.3667 C.3       12 UNK         0.1400 
     71 CB         -4.1473  -19.5485  -47.8705 C.3       12 UNK        -0.1800 
     72 C          -3.6210  -22.0150  -48.0288 C.2       12 UNK         0.5000 
     73 O          -4.1460  -22.6973  -48.9077 O.2       12 UNK        -0.5000 
     74 N          -3.3964  -22.4523  -46.7809 N.am      13 UNK        -0.5000 
     75 CA         -3.6647  -23.8132  -46.3140 C.3       13 UNK         0.1400 
     76 CB         -3.4778  -23.8902  -44.7920 C.3       13 UNK        -0.1800 
     77 C          -2.8009  -24.8672  -47.0313 C.2       13 UNK         0.5000 
     78 O          -3.3254  -25.9132  -47.4137 O.2       13 UNK        -0.5000 
     79 N          -1.5153  -24.5565  -47.2589 N.am      14 UNK        -0.5000 
     80 CA         -0.5925  -25.3727  -48.0566 C.3       14 UNK         0.1400 
     81 CB          0.8386  -24.8341  -47.9109 C.3       14 UNK        -0.1800 
     82 C          -1.0023  -25.4664  -49.5418 C.2       14 UNK         0.5000 
     83 O          -0.7903  -26.5059  -50.1658 O.2       14 UNK        -0.5000 
     84 N          -1.6446  -24.4096  -50.0578 N.am      15 UNK        -0.5000 
     85 CA         -2.2983  -24.3479  -51.3679 C.3       15 UNK         0.1400 
     86 CB         -2.3099  -22.8853  -51.8522 C.3       15 UNK        -0.1800 
     87 C          -3.7182  -24.9653  -51.3704 C.2       15 UNK         0.5000 
     88 O          -4.4932  -24.6859  -52.2858 O.2       15 UNK        -0.5000 
     89 N          -4.0433  -25.7790  -50.3529 N.am      16 UNK        -0.5000 
     90 CA         -5.2922  -26.5206  -50.1507 C.3       16 UNK         0.1400 
     91 CB         -5.4569  -27.6171  -51.2226 C.3       16 UNK        -0.1800 
     92 C          -6.5223  -25.6024  -50.0103 C.2       16 UNK         0.5000 
     93 O          -7.5711  -25.8732  -50.5965 O.2       16 UNK        -0.5000 
     94 N          -6.3514  -24.5273  -49.2281 N.am      17 UNK        -0.5000 
     95 CA         -7.2965  -23.4308  -48.9971 C.3       17 UNK         0.1400 
     96 CB         -8.6006  -23.9290  -48.3384 C.3       17 UNK        -0.1800 
     97 C          -7.5203  -22.6025  -50.2776 C.2       17 UNK         0.5000 
     98 O          -8.6605  -22.2806  -50.6168 O.2       17 UNK        -0.5000 
     99 N          -6.4067  -22.2829  -50.9561 N.am      18 UNK        -0.5000 
    100 CA        -6.3141  -21.5475  -52.2222 C.3       18 UNK         0.1400 
    101 CB        -6.7258  -20.0742  -52.0173 C.3       18 UNK        -0.1800 
    102 C         -7.0906  -22.2443  -53.3612 C.2       18 UNK         0.5000 
    103 O         -7.9610  -21.6387  -53.9917 O.2       18 UNK        -0.5000 
    104 N         -6.7858  -23.5304  -53.5797 N.am      19 UNK        -0.5000 
    105 CA        -7.3764  -24.3600  -54.6266 C.3       19 UNK         0.1400 
    106 CB        -7.1530  -25.8415  -54.2855 C.3       19 UNK        -0.1800 
    107 C         -6.7708  -23.9964  -55.9927 C.2       19 UNK         0.5000 
    108 O         -5.6764  -24.4610  -56.3191 O.2       19 UNK        -0.5000 
    109 N         -7.4728  -23.1336  -56.7401 N.am      20 UNK        -0.5000 
    110 CA        -7.1356  -22.5514  -58.0487 C.3       20 UNK         0.1400 
    111 CB        -6.9409  -23.6367  -59.1250 C.3       20 UNK        -0.1800 
    112 C         -5.9463  -21.5697  -58.0164 C.2       20 UNK         0.5000 
    113 O         -6.0387  -20.4891  -58.6005 O.2       20 UNK        -0.5000 
    114 N         -4.8667  -21.9421  -57.3206 N.am      21 UNK        -0.5000 
    115 CA        -3.7323  -21.0855  -56.9888 C.3       21 UNK         0.1400 
    116 CB        -2.6117  -21.9576  -56.4018 C.3       21 UNK        -0.1800 
    117 C         -4.1387  -19.9923  -55.9838 C.2       21 UNK         0.5000 
    118 O         -4.9899  -20.2434  -55.1298 O.2       21 UNK        -0.5000 
    119 N         -3.5155  -18.8154  -56.1156 N.am      22 UNK        -0.5000 
    120 CA        -3.6141  -17.5980  -55.2816 C.3       22 UNK         0.1400 
    121 C         -5.0215  -16.9695  -55.0303 C.2       22 UNK         0.5000 
    122 N         -6.1242  -17.6461  -55.3134 N.am      22 UNK        -0.7600 
    123 O         -5.1091  -15.8195  -54.6078 O.2       22 UNK        -0.5000 
    124 C124       -2.7489  -17.6751  -53.9934 C.3       23 UNK        -0.0398 
    125 S125       -3.4060  -18.7478  -52.6674 S.3       23 UNK        -0.2404 
    126 C126       -3.0839  -17.7260  -51.1944 C.3       23 UNK        -0.0205 
    127 H127        0.7721  -12.0177  -46.0296 H         1 UNK         0.0600 
    128 H128       -0.0139  -11.3670  -47.4719 H         1 UNK         0.0600 
    129 H129        1.0799  -10.3540  -46.5233 H         1 UNK         0.0600 
    130 H130        2.2348  -13.5610  -46.7240 H         1 UNK         0.3000 
    131 H131        4.2326  -12.8730  -48.8264 H         1 UNK         0.0600 
    132 H132        4.1865  -15.4057  -49.3894 H         1 UNK         0.0800 
    133 H133        2.6704  -15.4895  -48.5341 H         1 UNK         0.0800 
    134 H134        0.5323  -14.2978  -49.2706 H         1 UNK         0.0800 
    135 H135        0.1867  -13.8979  -50.9313 H         1 UNK         0.0800 
    136 H136       -1.7655  -15.3791  -50.7569 H         1 UNK         0.1150 
    137 H137       -1.1115  -19.6003  -51.0458 H         1 UNK         0.1150 
    138 H138        2.2027  -16.9840  -50.4009 H         1 UNK         0.1150 
    139 H139        1.0158  -20.5392  -50.8045 H         1 UNK         0.0800 
    140 H140        2.2719  -19.5582  -51.5144 H         1 UNK         0.0800 
    141 H141        0.5897  -18.5968  -48.1429 H         1 UNK         0.0800 
    142 H142        1.8595  -18.9134  -47.0261 H         1 UNK         0.0800 
    143 H143        1.2500  -21.4777  -47.3719 H         1 UNK         0.0600 
    144 H144        0.1578  -19.5264  -45.5435 H         1 UNK         0.3000 
    145 H145       -1.1583  -21.8317  -43.2280 H         1 UNK         0.0600 
    146 H146        0.4434  -20.7787  -41.6813 H         1 UNK         0.0600 
    147 H147        1.3079  -21.8807  -42.7379 H         1 UNK         0.0600 
    148 H148        1.3980  -20.1465  -43.0231 H         1 UNK         0.0600 
    149 H149       -0.7362  -18.9752  -43.2443 H         1 UNK         0.3000 
    150 H150       -3.7271  -18.1281  -44.9610 H         1 UNK         0.0600 
    151 H151       -4.5435  -18.5737  -42.6423 H         1 UNK         0.0600 
    152 H152       -4.2635  -16.8637  -42.9273 H         1 UNK         0.0600 
    153 H153       -3.1108  -17.7977  -41.9817 H         1 UNK         0.0600 
    154 H154       -1.8617  -16.4619  -43.6647 H         1 UNK         0.3000 
    155 H155        0.5739  -16.2975  -46.1880 H         1 UNK         0.0600 
    156 H156       -1.2115  -15.3328  -47.6669 H         1 UNK         0.0600 
    157 H157       -0.2048  -14.0780  -46.9663 H         1 UNK         0.0600 
    158 H158       -1.8149  -14.3768  -46.3170 H         1 UNK         0.0600 
    159 H159       -0.6428  -15.3255  -43.7131 H         1 UNK         0.3000 
    160 H160        2.3692  -13.7833  -42.6852 H         1 UNK         0.0600 
    161 H161       -0.5693  -12.9179  -42.6794 H         1 UNK         0.0600 
    162 H162        0.7749  -11.9981  -43.3408 H         1 UNK         0.0600 
    163 H163        0.6957  -12.3096  -41.6138 H         1 UNK         0.0600 
    164 H164        1.8439  -15.2131  -41.1422 H         1 UNK         0.3000 
    165 H165       -0.9738  -16.3165  -39.5571 H         1 UNK         0.0600 
    166 H166       -0.1538  -18.6768  -39.6865 H         1 UNK         0.0600 
    167 H167       -1.0594  -18.2359  -41.1195 H         1 UNK         0.0600 
    168 H168        0.6947  -18.3060  -41.1853 H         1 UNK         0.0600 
    169 H169        1.8525  -17.0074  -39.4385 H         1 UNK         0.3000 
    170 H170        2.9494  -14.1801  -37.7576 H         1 UNK         0.0600 
    171 H171        2.2667  -16.7679  -36.2581 H         1 UNK         0.0600 
    172 H172        3.4838  -15.5837  -35.7786 H         1 UNK         0.0600 
    173 H173        1.7830  -15.1481  -35.7703 H         1 UNK         0.0600 
    174 H174        4.0683  -16.7992  -37.9431 H         1 UNK         0.3000 
    175 H175        6.2474  -16.2237  -39.9902 H         1 UNK         0.0600 
    176 H176        6.0015  -18.7387  -40.0191 H         1 UNK         0.0600 
    177 H177        4.2901  -18.5653  -39.6502 H         1 UNK         0.0600 
    178 H178        5.5112  -18.0329  -38.4949 H         1 UNK         0.0600 
    179 H179        6.0059  -16.4401  -42.1810 H         1 UNK         0.3000 
    180 H180        5.2436  -17.7222  -44.1781 H         1 UNK         0.0600 
    181 H181        3.3248  -17.6512  -45.7804 H         1 UNK         0.0600 
    182 H182        2.2254  -17.2827  -44.4521 H         1 UNK         0.0600 
    183 H183        3.0762  -18.8199  -44.4898 H         1 UNK         0.0600 
    184 H184        3.7331  -15.2923  -44.7601 H         1 UNK         0.3000 
    185 H185        5.2470  -13.0206  -43.9926 H         1 UNK         0.0600 
    186 H186        7.6970  -13.0661  -44.2119 H         1 UNK         0.0600 
    187 H187        7.5874  -13.6451  -45.8679 H         1 UNK         0.0600 
    188 H188        7.0227  -12.0267  -45.4549 H         1 UNK         0.0600 
    189 H189        3.9938  -12.7944  -45.7922 H         1 UNK         0.3000 
    190 H190       -1.7573  -19.5426  -47.1450 H         1 UNK         0.3000 
    191 H191       -3.0602  -20.5120  -49.4524 H         1 UNK         0.0600 
    192 H192       -3.7803  -18.5337  -48.0234 H         1 UNK         0.0600 
    193 H193       -5.0933  -19.6411  -48.4055 H         1 UNK         0.0600 
    194 H194       -4.3610  -19.6635  -46.8082 H         1 UNK         0.0600 
    195 H195       -3.0288  -21.8005  -46.0948 H         1 UNK         0.3000 
    196 H196       -4.7104  -24.0374  -46.5345 H         1 UNK         0.0600 
    197 H197       -3.7097  -24.8892  -44.4209 H         1 UNK         0.0600 
    198 H198       -4.1381  -23.1912  -44.2784 H         1 UNK         0.0600 
    199 H199       -2.4542  -23.6607  -44.4973 H         1 UNK         0.0600 
    200 H200       -1.1412  -23.7004  -46.8648 H         1 UNK         0.3000 
    201 H201       -0.6123  -26.3851  -47.6480 H         1 UNK         0.0600 
    202 H202        1.1449  -24.8052  -46.8651 H         1 UNK         0.0600 
    203 H203        0.9379  -23.8281  -48.3165 H         1 UNK         0.0600 
    204 H204        1.5486  -25.4703  -48.4406 H         1 UNK         0.0600 
    205 H205       -1.7149  -23.5740  -49.4878 H         1 UNK         0.3000 
    206 H206       -1.7047  -24.9257  -52.0787 H         1 UNK         0.0600 
    207 H207       -1.3058  -22.4606  -51.8500 H         1 UNK         0.0600 
    208 H208       -2.6897  -22.8092  -52.8717 H         1 UNK         0.0600 
    209 H209       -2.9375  -22.2547  -51.2239 H         1 UNK         0.0600 
    210 H210       -3.3622  -25.8958  -49.6136 H         1 UNK         0.3000 
    211 H211       -5.1908  -27.0258  -49.1893 H         1 UNK         0.0600 
    212 H212       -5.5651  -27.1958  -52.2204 H         1 UNK         0.0600 
    213 H213       -6.3384  -28.2287  -51.0273 H         1 UNK         0.0600 
    214 H214       -4.5960  -28.2853  -51.2349 H         1 UNK         0.0600 
    215 H215       -5.4164  -24.3537  -48.8779 H         1 UNK         0.3000 
    216 H216       -6.8157  -22.7600  -48.2838 H         1 UNK         0.0600 
    217 H217       -9.2268  -23.0888  -48.0367 H         1 UNK         0.0600 
    218 H218       -8.3912  -24.5151  -47.4437 H         1 UNK         0.0600 
    219 H219       -9.1924  -24.5464  -49.0143 H         1 UNK         0.0600 
    220 H220       -5.5270  -22.6061  -50.5709 H         1 UNK         0.3000 
    221 H221       -5.2625  -21.5575  -52.5136 H         1 UNK         0.0600 
    222 H222       -7.7795  -19.9758  -51.7558 H         1 UNK         0.0600 
    223 H223       -6.1375  -19.6077  -51.2272 H         1 UNK         0.0600 
    224 H224       -6.5599  -19.4965  -52.9271 H         1 UNK         0.0600 
    225 H225       -6.0286  -23.9539  -53.0466 H         1 UNK         0.3000 
    226 H226       -8.4539  -24.1843  -54.6556 H         1 UNK         0.0600 
    227 H227       -7.6165  -26.1006  -53.3338 H         1 UNK         0.0600 
    228 H228       -7.5903  -26.4873  -55.0477 H         1 UNK         0.0600 
    229 H229       -6.0918  -26.0832  -54.2198 H         1 UNK         0.0600 
    230 H230       -8.3116  -22.7534  -56.3216 H         1 UNK         0.3000 
    231 H231       -8.0101  -21.9661  -58.3371 H         1 UNK         0.0600 
    232 H232       -6.0624  -24.2531  -58.9332 H         1 UNK         0.0600 
    233 H233       -6.8100  -23.1855  -60.1093 H         1 UNK         0.0600 
    234 H234       -7.8075  -24.2954  -59.1822 H         1 UNK         0.0600 
    235 H235       -4.9064  -22.8482  -56.8623 H         1 UNK         0.3000 
    236 H236       -3.3735  -20.6165  -57.9074 H         1 UNK         0.0600 
    237 H237       -2.2909  -22.7194  -57.1125 H         1 UNK         0.0600 
    238 H238       -1.7369  -21.3562  -56.1513 H         1 UNK         0.0600 
    239 H239       -2.9342  -22.4638  -55.4906 H         1 UNK         0.0600 
    240 H240       -2.8644  -18.7288  -56.8826 H         1 UNK         0.3000 
    241 H241       -3.1266  -16.8496  -55.9078 H         1 UNK         0.0600 
    242 H242       -6.0411  -18.6350  -55.5208 H         1 UNK         0.3800 
    243 H243       -7.0278  -17.2281  -55.1620 H         1 UNK         0.3800 
    244 H244       -1.7479  -18.0297  -54.2417 H         1 UNK         0.0800 
    245 H245       -2.6057  -16.6685  -53.5972 H         1 UNK         0.0800 
    246 H246       -3.6066  -16.7743  -51.3017 H         1 UNK         0.0800 
    247 H247       -3.5178  -18.2190  -50.3269 H         1 UNK         0.0800 
@<TRIPOS>BOND
     1    1    2 1    
     2    1  127 1    
     3    1  128 1    
     4    1  129 1    
     5    2    3 2    
     6    2    4 am   BACKBONE|DICT|INTERRES
     7    4    5 1    
     8    4  130 1    
     9    5    6 1    
    10    5   65 1    
    11    5  131 1    
    12    6    7 1    
    13    6  132 1    
    14    6  133 1    
    15    7    8 1    
    16    8    9 1    
    17    8  134 1    
    18    8  135 1    
    19    9   10 ar   
    20    9   14 ar   
    21   10   11 ar   
    22   10  136 1    
    23   11   12 ar   
    24   11  126 1    
    25   12   13 ar   
    26   12  137 1    
    27   13   14 ar   
    28   13   15 1    
    29   14  138 1    
    30   15   16 1    
    31   15  139 1    
    32   15  140 1    
    33   16   17 1    
    34   17   18 1    
    35   17  141 1    
    36   17  142 1    
    37   18   19 1    
    38   18   67 1    
    39   18  143 1    
    40   19   20 am   BACKBONE|DICT|INTERRES
    41   19  144 1    
    42   20   21 2    
    43   20   22 1    
    44   22   23 1    
    45   22   24 1    
    46   22  145 1    
    47   23  146 1    
    48   23  147 1    
    49   23  148 1    
    50   24   25 am   BACKBONE|DICT|INTERRES
    51   24  149 1    
    52   25   26 2    
    53   25   27 1    
    54   27   28 1    
    55   27   29 1    
    56   27  150 1    
    57   28  151 1    
    58   28  152 1    
    59   28  153 1    
    60   29   30 am   BACKBONE|DICT|INTERRES
    61   29  154 1    
    62   30   31 2    
    63   30   32 1    
    64   32   33 1    
    65   32   34 1    
    66   32  155 1    
    67   33  156 1    
    68   33  157 1    
    69   33  158 1    
    70   34   35 am   BACKBONE|DICT|INTERRES
    71   34  159 1    
    72   35   36 2    
    73   35   37 1    
    74   37   38 1    
    75   37   39 1    
    76   37  160 1    
    77   38  161 1    
    78   38  162 1    
    79   38  163 1    
    80   39   40 am   BACKBONE|DICT|INTERRES
    81   39  164 1    
    82   40   41 2    
    83   40   42 1    
    84   42   43 1    
    85   42   44 1    
    86   42  165 1    
    87   43  166 1    
    88   43  167 1    
    89   43  168 1    
    90   44   45 am   BACKBONE|DICT|INTERRES
    91   44  169 1    
    92   45   46 2    
    93   45   47 1    
    94   47   48 1    
    95   47   49 1    
    96   47  170 1    
    97   48  171 1    
    98   48  172 1    
    99   48  173 1    
   100   49   50 am   BACKBONE|DICT|INTERRES
   101   49  174 1    
   102   50   51 2    
   103   50   52 1    
   104   52   53 1    
   105   52   54 1    
   106   52  175 1    
   107   53  176 1    
   108   53  177 1    
   109   53  178 1    
   110   54   55 am   BACKBONE|DICT|INTERRES
   111   54  179 1    
   112   55   56 2    
   113   55   57 1    
   114   57   58 1    
   115   57   59 1    
   116   57  180 1    
   117   58  181 1    
   118   58  182 1    
   119   58  183 1    
   120   59   60 am   BACKBONE|DICT|INTERRES
   121   59  184 1    
   122   60   61 2    
   123   60   62 1    
   124   62   63 1    
   125   62   64 1    
   126   62  185 1    
   127   63  186 1    
   128   63  187 1    
   129   63  188 1    
   130   64   65 am   BACKBONE|DICT|INTERRES
   131   64  189 1    
   132   65   66 2    
   133   67   68 2    
   134   67   69 am   BACKBONE|DICT|INTERRES
   135   69   70 1    
   136   69  190 1    
   137   70   71 1    
   138   70   72 1    
   139   70  191 1    
   140   71  192 1    
   141   71  193 1    
   142   71  194 1    
   143   72   73 2    
   144   72   74 am   BACKBONE|DICT|INTERRES
   145   74   75 1    
   146   74  195 1    
   147   75   76 1    
   148   75   77 1    
   149   75  196 1    
   150   76  197 1    
   151   76  198 1    
   152   76  199 1    
   153   77   78 2    
   154   77   79 am   BACKBONE|DICT|INTERRES
   155   79   80 1    
   156   79  200 1    
   157   80   81 1    
   158   80   82 1    
   159   80  201 1    
   160   81  202 1    
   161   81  203 1    
   162   81  204 1    
   163   82   83 2    
   164   82   84 am   BACKBONE|DICT|INTERRES
   165   84   85 1    
   166   84  205 1    
   167   85   86 1    
   168   85   87 1    
   169   85  206 1    
   170   86  207 1    
   171   86  208 1    
   172   86  209 1    
   173   87   88 2    
   174   87   89 am   BACKBONE|DICT|INTERRES
   175   89   90 1    
   176   89  210 1    
   177   90   91 1    
   178   90   92 1    
   179   90  211 1    
   180   91  212 1    
   181   91  213 1    
   182   91  214 1    
   183   92   93 2    
   184   92   94 am   BACKBONE|DICT|INTERRES
   185   94   95 1    
   186   94  215 1    
   187   95   96 1    
   188   95   97 1    
   189   95  216 1    
   190   96  217 1    
   191   96  218 1    
   192   96  219 1    
   193   97   98 2    
   194   97   99 am   BACKBONE|DICT|INTERRES
   195   99  100 1    
   196   99  220 1    
   197  100  101 1    
   198  100  102 1    
   199  100  221 1    
   200  101  222 1    
   201  101  223 1    
   202  101  224 1    
   203  102  103 2    
   204  102  104 am   BACKBONE|DICT|INTERRES
   205  104  105 1    
   206  104  225 1    
   207  105  106 1    
   208  105  107 1    
   209  105  226 1    
   210  106  227 1    
   211  106  228 1    
   212  106  229 1    
   213  107  108 2    
   214  107  109 am   BACKBONE|DICT|INTERRES
   215  109  110 1    
   216  109  230 1    
   217  110  111 1    
   218  110  112 1    
   219  110  231 1    
   220  111  232 1    
   221  111  233 1    
   222  111  234 1    
   223  112  113 2    
   224  112  114 am   BACKBONE|DICT|INTERRES
   225  114  115 1    
   226  114  235 1    
   227  115  116 1    
   228  115  117 1    
   229  115  236 1    
   230  116  237 1    
   231  116  238 1    
   232  116  239 1    
   233  117  118 2    
   234  117  119 am   BACKBONE|DICT|INTERRES
   235  119  120 1    
   236  119  240 1    
   237  120  121 1    
   238  120  124 1    
   239  120  241 1    
   240  121  122 am   BACKBONE|DICT|INTERRES
   241  121  123 2    
   242  122  242 1    
   243  122  243 1    
   244  124  125 1    
   245  124  244 1    
   246  124  245 1    
   247  125  126 1    
   248  126  246 1    
   249  126  247 1    
@<TRIPOS>SUBSTRUCTURE
     1 UNK         1 GROUP             0       ****    0 ROOT    
