@<TRIPOS>MOLECULE
3R540
247   249    1
SMALL
USER_CHARGES


@<TRIPOS>ATOM
      1 CA         -1.2429  -12.1628  -46.0199 C.3       0 UNK        -0.1800 
      2 C          -0.0766  -11.4294  -46.6656 C.2       0 UNK         0.5000 
      3 O          -0.2865  -10.4170  -47.3345 O.2       0 UNK        -0.5000 
      4 N           1.1460  -11.9362  -46.4722 N.am      1 UNK        -0.5000 
      5 CA          2.3844  -11.3135  -46.9480 C.3       1 UNK         0.1400 
      6 C6          3.5064  -12.3595  -47.1640 C.3       23 UNK        -0.0398 
      7 S7          3.1603  -13.4439  -48.5874 S.3       23 UNK        -0.2404 
      8 C8          2.6311  -14.9575  -47.7360 C.3       23 UNK        -0.0205 
      9 C9          2.1210  -16.0036  -48.7143 C.ar      23 UNK        -0.0193 
     10 C10         0.9114  -15.8102  -49.3893 C.ar      23 UNK        -0.1150 
     11 C11         0.4047  -16.7836  -50.2575 C.ar      23 UNK        -0.0193 
     12 C12         1.1399  -17.9606  -50.4507 C.ar      23 UNK        -0.1150 
     13 C13         2.3472  -18.1693  -49.7761 C.ar      23 UNK        -0.0193 
     14 C14         2.8363  -17.1853  -48.9152 C.ar      23 UNK        -0.1150 
     15 C15         3.1070  -19.4759  -49.9481 C.3       23 UNK        -0.0205 
     16 S16         2.7663  -20.6302  -48.5805 S.3       23 UNK        -0.2404 
     17 C17         0.9656  -20.8332  -48.7681 C.3       23 UNK        -0.0398 
     18 CA          0.4091  -22.0421  -47.9901 C.3       11 UNK         0.1400 
     19 N           0.4223  -21.8301  -46.5407 N.am      11 UNK        -0.5000 
     20 C           0.1251  -22.7727  -45.6354 C.2       10 UNK         0.5000 
     21 O          -0.1425  -23.9405  -45.9234 O.2       10 UNK        -0.5000 
     22 CA          0.0702  -22.3244  -44.1645 C.3       10 UNK         0.1400 
     23 CB          1.4841  -22.1831  -43.5813 C.3       10 UNK        -0.1800 
     24 N          -0.6664  -21.0722  -43.9855 N.am      10 UNK        -0.5000 
     25 C          -1.9711  -20.9129  -44.2512 C.2       9 UNK         0.5000 
     26 O          -2.7036  -21.8196  -44.6458 O.2       9 UNK        -0.5000 
     27 CA         -2.5486  -19.4937  -44.0934 C.3       9 UNK         0.1400 
     28 CB         -2.8248  -19.1718  -42.6176 C.3       9 UNK        -0.1800 
     29 N          -1.6855  -18.4632  -44.6707 N.am      9 UNK        -0.5000 
     30 C          -1.3603  -18.3874  -45.9692 C.2       8 UNK         0.5000 
     31 O          -1.7747  -19.1601  -46.8304 O.2       8 UNK        -0.5000 
     32 CA         -0.3652  -17.2903  -46.3690 C.3       8 UNK         0.1400 
     33 CB         -1.0862  -15.9440  -46.5349 C.3       8 UNK        -0.1800 
     34 N           0.7338  -17.1663  -45.4115 N.am      8 UNK        -0.5000 
     35 C           1.6419  -18.1282  -45.1863 C.2       7 UNK         0.5000 
     36 O           1.6557  -19.2105  -45.7708 O.2       7 UNK        -0.5000 
     37 CA          2.6625  -17.8587  -44.0675 C.3       7 UNK         0.1400 
     38 CB          3.7468  -16.8758  -44.5355 C.3       7 UNK        -0.1800 
     39 N           2.0238  -17.3385  -42.8595 N.am      7 UNK        -0.5000 
     40 C           1.1324  -18.0127  -42.1179 C.2       6 UNK         0.5000 
     41 O           0.8033  -19.1780  -42.3336 O.2       6 UNK        -0.5000 
     42 CA          0.4593  -17.2383  -40.9698 C.3       6 UNK         0.1400 
     43 CB          1.2512  -17.4157  -39.6660 C.3       6 UNK        -0.1800 
     44 N           0.3067  -15.8093  -41.2508 N.am      6 UNK        -0.5000 
     45 C          -0.4214  -15.2888  -42.2510 C.2       5 UNK         0.5000 
     46 O          -1.0711  -15.9696  -43.0448 O.2       5 UNK        -0.5000 
     47 CA         -0.3770  -13.7574  -42.4146 C.3       5 UNK         0.1400 
     48 CB         -1.5787  -13.1032  -41.7183 C.3       5 UNK        -0.1800 
     49 N           0.8640  -13.1891  -41.8822 N.am      5 UNK        -0.5000 
     50 C           2.0351  -13.1994  -42.5306 C.2       4 UNK         0.5000 
     51 O           2.1742  -13.5578  -43.7041 O.2       4 UNK        -0.5000 
     52 CA          3.2653  -12.8227  -41.6955 C.3       4 UNK         0.1400 
     53 CB          3.9091  -14.0955  -41.1101 C.3       4 UNK        -0.1800 
     54 N           4.2199  -12.1037  -42.5305 N.am      4 UNK        -0.5000 
     55 C           5.2586  -11.3887  -42.0748 C.2       3 UNK         0.5000 
     56 O           5.5423  -11.2719  -40.8821 O.2       3 UNK        -0.5000 
     57 CA          6.0927  -10.6418  -43.1230 C.3       3 UNK         0.1400 
     58 CB          6.9608  -11.6130  -43.9451 C.3       3 UNK        -0.1800 
     59 N           5.1967   -9.8856  -43.9880 N.am      3 UNK        -0.5000 
     60 C           5.5157   -8.8623  -44.7834 C.2       2 UNK         0.5000 
     61 O           6.6573   -8.4107  -44.8910 O.2       2 UNK        -0.5000 
     62 CA          4.3505   -8.2739  -45.6139 C.3       2 UNK         0.1400 
     63 CB          4.8004   -7.1352  -46.5470 C.3       2 UNK        -0.1800 
     64 N           3.6747   -9.3007  -46.4156 N.am      2 UNK        -0.5000 
     65 C           2.8449  -10.2410  -45.9440 C.2       1 UNK         0.5000 
     66 O           2.5097  -10.3149  -44.7576 O.2       1 UNK        -0.5000 
     67 C          -0.9982  -22.4085  -48.4997 C.2       11 UNK         0.5000 
     68 O          -1.1289  -23.3750  -49.2478 O.2       11 UNK        -0.5000 
     69 N          -2.0289  -21.6732  -48.0559 N.am      12 UNK        -0.5000 
     70 CA         -3.4305  -21.9378  -48.3779 C.3       12 UNK         0.1400 
     71 CB         -4.3292  -20.8363  -47.7989 C.3       12 UNK        -0.1800 
     72 C          -3.8977  -23.3238  -47.9077 C.2       12 UNK         0.5000 
     73 O          -4.5483  -24.0236  -48.6812 O.2       12 UNK        -0.5000 
     74 N          -3.5286  -23.7160  -46.6804 N.am      13 UNK        -0.5000 
     75 CA         -3.8050  -25.0384  -46.1164 C.3       13 UNK         0.1400 
     76 CB         -3.3642  -25.0812  -44.6458 C.3       13 UNK        -0.1800 
     77 C          -3.1527  -26.1767  -46.9224 C.2       13 UNK         0.5000 
     78 O          -3.8241  -27.1644  -47.2247 O.2       13 UNK        -0.5000 
     79 N          -1.8796  -25.9952  -47.3042 N.am      14 UNK        -0.5000 
     80 CA         -1.1353  -26.9114  -48.1738 C.3       14 UNK         0.1400 
     81 CB          0.3393  -26.4841  -48.2244 C.3       14 UNK        -0.1800 
     82 C          -1.7296  -27.0078  -49.5941 C.2       14 UNK         0.5000 
     83 O          -1.7414  -28.0908  -50.1791 O.2       14 UNK        -0.5000 
     84 N          -2.2569  -25.8854  -50.0975 N.am      15 UNK        -0.5000 
     85 CA         -2.9577  -25.7517  -51.3746 C.3       15 UNK         0.1400 
     86 CB         -2.7510  -24.3200  -51.8990 C.3       15 UNK        -0.1800 
     87 C          -4.4563  -26.1238  -51.3013 C.2       15 UNK         0.5000 
     88 O          -5.2129  -25.7214  -52.1849 O.2       15 UNK        -0.5000 
     89 N          -4.8677  -26.8761  -50.2682 N.am      16 UNK        -0.5000 
     90 CA         -6.2112  -27.4253  -50.0481 C.3       16 UNK         0.1400 
     91 CB         -6.5432  -28.4858  -51.1194 C.3       16 UNK        -0.1800 
     92 C          -7.2944  -26.3341  -49.9218 C.2       16 UNK         0.5000 
     93 O          -8.3029  -26.3696  -50.6290 O.2       16 UNK        -0.5000 
     94 N          -7.0391  -25.3767  -49.0200 N.am      17 UNK        -0.5000 
     95 CA         -7.8153  -24.1585  -48.7620 C.3       17 UNK         0.1400 
     96 CB         -9.2516  -24.4803  -48.2969 C.3       17 UNK        -0.1800 
     97 C          -7.7506  -23.1766  -49.9497 C.2       17 UNK         0.5000 
     98 O          -8.7603  -22.5703  -50.3117 O.2       17 UNK        -0.5000 
     99 N          -6.5422  -23.0469  -50.5183 N.am      18 UNK        -0.5000 
    100 CA        -6.1697  -22.2220  -51.6697 C.3       18 UNK         0.1400 
    101 CB        -6.1746  -20.7264  -51.2910 C.3       18 UNK        -0.1800 
    102 C         -7.0151  -22.5346  -52.9201 C.2       18 UNK         0.5000 
    103 O         -7.6759  -21.6457  -53.4623 O.2       18 UNK        -0.5000 
    104 N         -6.9930  -23.8063  -53.3423 N.am      19 UNK        -0.5000 
    105 CA        -7.6495  -24.3008  -54.5506 C.3       19 UNK         0.1400 
    106 CB        -7.5455  -25.8338  -54.5933 C.3       19 UNK        -0.1800 
    107 C         -7.0289  -23.6535  -55.8026 C.2       19 UNK         0.5000 
    108 O         -5.8726  -23.9311  -56.1248 O.2       19 UNK        -0.5000 
    109 N         -7.7912  -22.7520  -56.4352 N.am      20 UNK        -0.5000 
    110 CA        -7.4342  -21.8514  -57.5406 C.3       20 UNK         0.1400 
    111 CB        -6.9145  -22.6177  -58.7726 C.3       20 UNK        -0.1800 
    112 C         -6.4777  -20.7079  -57.1399 C.2       20 UNK         0.5000 
    113 O         -6.6822  -19.5776  -57.5850 O.2       20 UNK        -0.5000 
    114 N         -5.4775  -20.9953  -56.3010 N.am      21 UNK        -0.5000 
    115 CA        -4.5133  -20.0470  -55.7527 C.3       21 UNK         0.1400 
    116 CB        -3.4508  -19.7029  -56.8147 C.3       21 UNK        -0.1800 
    117 C         -3.8608  -20.6530  -54.5011 C.2       21 UNK         0.5000 
    118 O         -3.9695  -21.8589  -54.2721 O.2       21 UNK        -0.5000 
    119 N         -3.1713  -19.8090  -53.7253 N.am      22 UNK        -0.5000 
    120 CA        -2.3556  -20.2060  -52.5632 C.3       22 UNK         0.1400 
    121 C         -1.0179  -20.9262  -52.9151 C.2       22 UNK         0.5000 
    122 N         -0.6018  -20.9966  -54.1738 N.am      22 UNK        -0.7600 
    123 O         -0.3466  -21.4389  -52.0278 O.2       22 UNK        -0.5000 
    124 C124       -2.1340  -19.0172  -51.5879 C.3       23 UNK        -0.0398 
    125 S125       -1.3488  -17.5631  -52.3753 S.3       23 UNK        -0.2404 
    126 C126       -0.9476  -16.5222  -50.9272 C.3       23 UNK        -0.0205 
    127 H127       -1.6230  -11.5935  -45.1718 H         1 UNK         0.0600 
    128 H128       -0.9484  -13.1492  -45.6676 H         1 UNK         0.0600 
    129 H129       -2.0524  -12.2920  -46.7383 H         1 UNK         0.0600 
    130 H130        1.2702  -12.7101  -45.8338 H         1 UNK         0.3000 
    131 H131        2.1926  -10.8140  -47.9005 H         1 UNK         0.0600 
    132 H132        4.4602  -11.8705  -47.3708 H         1 UNK         0.0800 
    133 H133        3.6649  -12.9561  -46.2633 H         1 UNK         0.0800 
    134 H134        1.8485  -14.7201  -47.0166 H         1 UNK         0.0800 
    135 H135        3.4708  -15.3482  -47.1603 H         1 UNK         0.0800 
    136 H136        0.3550  -14.8980  -49.2244 H         1 UNK         0.1150 
    137 H137        0.7725  -18.7353  -51.1070 H         1 UNK         0.1150 
    138 H138        3.7626  -17.3539  -48.3841 H         1 UNK         0.1150 
    139 H139        2.8488  -19.9490  -50.8971 H         1 UNK         0.0800 
    140 H140        4.1788  -19.2762  -49.9872 H         1 UNK         0.0800 
    141 H141        0.7683  -20.9429  -49.8335 H         1 UNK         0.0800 
    142 H142        0.4672  -19.9152  -48.4524 H         1 UNK         0.0800 
    143 H143        1.0508  -22.9011  -48.1984 H         1 UNK         0.0600 
    144 H144        0.6778  -20.8996  -46.2226 H         1 UNK         0.3000 
    145 H145       -0.4521  -23.1007  -43.6016 H         1 UNK         0.0600 
    146 H146        1.4487  -21.9583  -42.5152 H         1 UNK         0.0600 
    147 H147        2.0509  -23.1072  -43.7008 H         1 UNK         0.0600 
    148 H148        2.0450  -21.3864  -44.0713 H         1 UNK         0.0600 
    149 H149       -0.1383  -20.2843  -43.6213 H         1 UNK         0.3000 
    150 H150       -3.4996  -19.4611  -44.6288 H         1 UNK         0.0600 
    151 H151       -3.5375  -19.8800  -42.1933 H         1 UNK         0.0600 
    152 H152       -3.2479  -18.1737  -42.5022 H         1 UNK         0.0600 
    153 H153       -1.9175  -19.2235  -42.0167 H         1 UNK         0.0600 
    154 H154       -1.3238  -17.7558  -44.0399 H         1 UNK         0.3000 
    155 H155        0.0626  -17.5739  -47.3320 H         1 UNK         0.0600 
    156 H156       -1.5656  -15.6211  -45.6110 H         1 UNK         0.0600 
    157 H157       -1.8632  -16.0144  -47.2971 H         1 UNK         0.0600 
    158 H158       -0.4009  -15.1596  -46.8482 H         1 UNK         0.0600 
    159 H159        0.7490  -16.3366  -44.8378 H         1 UNK         0.3000 
    160 H160        3.1428  -18.8071  -43.8174 H         1 UNK         0.0600 
    161 H161        4.5269  -16.7634  -43.7825 H         1 UNK         0.0600 
    162 H162        3.3358  -15.8865  -44.7392 H         1 UNK         0.0600 
    163 H163        4.2259  -17.2294  -45.4494 H         1 UNK         0.0600 
    164 H164        2.2246  -16.3809  -42.6158 H         1 UNK         0.3000 
    165 H165       -0.5378  -17.6575  -40.8248 H         1 UNK         0.0600 
    166 H166        0.7471  -16.9328  -38.8287 H         1 UNK         0.0600 
    167 H167        1.3559  -18.4720  -39.4146 H         1 UNK         0.0600 
    168 H168        2.2550  -16.9960  -39.7425 H         1 UNK         0.0600 
    169 H169        0.7964  -15.1768  -40.6371 H         1 UNK         0.3000 
    170 H170       -0.4400  -13.5371  -43.4801 H         1 UNK         0.0600 
    171 H171       -2.5177  -13.4941  -42.1129 H         1 UNK         0.0600 
    172 H172       -1.5725  -13.2860  -40.6430 H         1 UNK         0.0600 
    173 H173       -1.5853  -12.0246  -41.8764 H         1 UNK         0.0600 
    174 H174        0.8314  -12.8515  -40.9306 H         1 UNK         0.3000 
    175 H175        2.9497  -12.1666  -40.8815 H         1 UNK         0.0600 
    176 H176        4.2714  -14.7587  -41.8967 H         1 UNK         0.0600 
    177 H177        4.7522  -13.8575  -40.4620 H         1 UNK         0.0600 
    178 H178        3.1948  -14.6575  -40.5080 H         1 UNK         0.0600 
    179 H179        4.0266  -12.1586  -43.5217 H         1 UNK         0.3000 
    180 H180        6.7455   -9.9422  -42.5966 H         1 UNK         0.0600 
    181 H181        6.3521  -12.2958  -44.5389 H         1 UNK         0.0600 
    182 H182        7.5935  -12.2169  -43.2934 H         1 UNK         0.0600 
    183 H183        7.6198  -11.0757  -44.6269 H         1 UNK         0.0600 
    184 H184        4.2146  -10.1479  -43.9520 H         1 UNK         0.3000 
    185 H185        3.6315   -7.8563  -44.9059 H         1 UNK         0.0600 
    186 H186        5.2679   -6.3275  -45.9823 H         1 UNK         0.0600 
    187 H187        5.5233   -7.4816  -47.2866 H         1 UNK         0.0600 
    188 H188        3.9529   -6.7055  -47.0814 H         1 UNK         0.0600 
    189 H189        3.9258   -9.3226  -47.3937 H         1 UNK         0.3000 
    190 H190       -1.8490  -20.8646  -47.4633 H         1 UNK         0.3000 
    191 H191       -3.5259  -21.9103  -49.4648 H         1 UNK         0.0600 
    192 H192       -4.2296  -20.7630  -46.7159 H         1 UNK         0.0600 
    193 H193       -5.3797  -21.0307  -48.0190 H         1 UNK         0.0600 
    194 H194       -4.0823  -19.8635  -48.2242 H         1 UNK         0.0600 
    195 H195       -3.0321  -23.0608  -46.0822 H         1 UNK         0.3000 
    196 H196       -4.8859  -25.1899  -46.1480 H         1 UNK         0.0600 
    197 H197       -3.5702  -26.0567  -44.2037 H         1 UNK         0.0600 
    198 H198       -3.8974  -24.3369  -44.0542 H         1 UNK         0.0600 
    199 H199       -2.2965  -24.8896  -44.5380 H         1 UNK         0.0600 
    200 H200       -1.3893  -25.1620  -46.9934 H         1 UNK         0.3000 
    201 H201       -1.1846  -27.9067  -47.7276 H         1 UNK         0.0600 
    202 H202        0.7819  -26.4781  -47.2282 H         1 UNK         0.0600 
    203 H203        0.4560  -25.4858  -48.6466 H         1 UNK         0.0600 
    204 H204        0.9242  -27.1707  -48.8374 H         1 UNK         0.0600 
    205 H205       -2.1411  -25.0264  -49.5676 H         1 UNK         0.3000 
    206 H206       -2.5039  -26.4346  -52.0951 H         1 UNK         0.0600 
    207 H207       -1.6908  -24.0916  -52.0102 H         1 UNK         0.0600 
    208 H208       -3.2130  -24.1786  -52.8769 H         1 UNK         0.0600 
    209 H209       -3.1769  -23.5825  -51.2202 H         1 UNK         0.0600 
    210 H210       -4.1853  -27.1059  -49.5578 H         1 UNK         0.3000 
    211 H211       -6.1776  -27.9349  -49.0840 H         1 UNK         0.0600 
    212 H212       -6.6241  -28.0476  -52.1148 H         1 UNK         0.0600 
    213 H213       -7.4923  -28.9766  -50.9011 H         1 UNK         0.0600 
    214 H214       -5.7782  -29.2613  -51.1560 H         1 UNK         0.0600 
    215 H215       -6.1267  -25.3920  -48.5788 H         1 UNK         0.3000 
    216 H216       -7.3150  -23.6564  -47.9326 H         1 UNK         0.0600 
    217 H217       -9.7592  -23.5776  -47.9557 H         1 UNK         0.0600 
    218 H218       -9.2484  -25.1844  -47.4650 H         1 UNK         0.0600 
    219 H219       -9.8557  -24.9074  -49.0975 H         1 UNK         0.0600 
    220 H220       -5.7916  -23.5956  -50.1099 H         1 UNK         0.3000 
    221 H221       -5.1445  -22.4903  -51.9222 H         1 UNK         0.0600 
    222 H222       -7.1671  -20.3861  -50.9945 H         1 UNK         0.0600 
    223 H223       -5.4904  -20.5246  -50.4686 H         1 UNK         0.0600 
    224 H224       -5.8553  -20.1096  -52.1316 H         1 UNK         0.0600 
    225 H225       -6.3976  -24.4750  -52.8568 H         1 UNK         0.3000 
    226 H226       -8.7073  -24.0364  -54.4937 H         1 UNK         0.0600 
    227 H227       -8.0064  -26.2838  -53.7134 H         1 UNK         0.0600 
    228 H228       -8.0527  -26.2351  -55.4713 H         1 UNK         0.0600 
    229 H229       -6.5075  -26.1671  -54.6311 H         1 UNK         0.0600 
    230 H230       -8.7010  -22.5674  -56.0350 H         1 UNK         0.3000 
    231 H231       -8.3721  -21.3766  -57.8334 H         1 UNK         0.0600 
    232 H232       -7.6071  -23.4051  -59.0697 H         1 UNK         0.0600 
    233 H233       -5.9413  -23.0746  -58.5925 H         1 UNK         0.0600 
    234 H234       -6.8009  -21.9458  -59.6241 H         1 UNK         0.0600 
    235 H235       -5.3737  -21.9495  -55.9646 H         1 UNK         0.3000 
    236 H236       -5.0411  -19.1394  -55.4522 H         1 UNK         0.0600 
    237 H237       -2.7163  -18.9964  -56.4269 H         1 UNK         0.0600 
    238 H238       -2.9123  -20.5927  -57.1431 H         1 UNK         0.0600 
    239 H239       -3.9006  -19.2429  -57.6945 H         1 UNK         0.0600 
    240 H240       -3.1113  -18.8337  -53.9817 H         1 UNK         0.3000 
    241 H241       -2.9336  -20.9509  -52.0125 H         1 UNK         0.0600 
    242 H242        0.2627  -21.4712  -54.3798 H         1 UNK         0.3800 
    243 H243       -1.1354  -20.5798  -54.9178 H         1 UNK         0.3800 
    244 H244       -3.0966  -18.6997  -51.1846 H         1 UNK         0.0800 
    245 H245       -1.5455  -19.3300  -50.7233 H         1 UNK         0.0800 
    246 H246       -1.7371  -16.6211  -50.1810 H         1 UNK         0.0800 
    247 H247       -0.9729  -15.4837  -51.2608 H         1 UNK         0.0800 
@<TRIPOS>BOND
     1    1    2 1    
     2    1  127 1    
     3    1  128 1    
     4    1  129 1    
     5    2    3 2    
     6    2    4 am   BACKBONE|DICT|INTERRES
     7    4    5 1    
     8    4  130 1    
     9    5    6 1    
    10    5   65 1    
    11    5  131 1    
    12    6    7 1    
    13    6  132 1    
    14    6  133 1    
    15    7    8 1    
    16    8    9 1    
    17    8  134 1    
    18    8  135 1    
    19    9   10 ar   
    20    9   14 ar   
    21   10   11 ar   
    22   10  136 1    
    23   11   12 ar   
    24   11  126 1    
    25   12   13 ar   
    26   12  137 1    
    27   13   14 ar   
    28   13   15 1    
    29   14  138 1    
    30   15   16 1    
    31   15  139 1    
    32   15  140 1    
    33   16   17 1    
    34   17   18 1    
    35   17  141 1    
    36   17  142 1    
    37   18   19 1    
    38   18   67 1    
    39   18  143 1    
    40   19   20 am   BACKBONE|DICT|INTERRES
    41   19  144 1    
    42   20   21 2    
    43   20   22 1    
    44   22   23 1    
    45   22   24 1    
    46   22  145 1    
    47   23  146 1    
    48   23  147 1    
    49   23  148 1    
    50   24   25 am   BACKBONE|DICT|INTERRES
    51   24  149 1    
    52   25   26 2    
    53   25   27 1    
    54   27   28 1    
    55   27   29 1    
    56   27  150 1    
    57   28  151 1    
    58   28  152 1    
    59   28  153 1    
    60   29   30 am   BACKBONE|DICT|INTERRES
    61   29  154 1    
    62   30   31 2    
    63   30   32 1    
    64   32   33 1    
    65   32   34 1    
    66   32  155 1    
    67   33  156 1    
    68   33  157 1    
    69   33  158 1    
    70   34   35 am   BACKBONE|DICT|INTERRES
    71   34  159 1    
    72   35   36 2    
    73   35   37 1    
    74   37   38 1    
    75   37   39 1    
    76   37  160 1    
    77   38  161 1    
    78   38  162 1    
    79   38  163 1    
    80   39   40 am   BACKBONE|DICT|INTERRES
    81   39  164 1    
    82   40   41 2    
    83   40   42 1    
    84   42   43 1    
    85   42   44 1    
    86   42  165 1    
    87   43  166 1    
    88   43  167 1    
    89   43  168 1    
    90   44   45 am   BACKBONE|DICT|INTERRES
    91   44  169 1    
    92   45   46 2    
    93   45   47 1    
    94   47   48 1    
    95   47   49 1    
    96   47  170 1    
    97   48  171 1    
    98   48  172 1    
    99   48  173 1    
   100   49   50 am   BACKBONE|DICT|INTERRES
   101   49  174 1    
   102   50   51 2    
   103   50   52 1    
   104   52   53 1    
   105   52   54 1    
   106   52  175 1    
   107   53  176 1    
   108   53  177 1    
   109   53  178 1    
   110   54   55 am   BACKBONE|DICT|INTERRES
   111   54  179 1    
   112   55   56 2    
   113   55   57 1    
   114   57   58 1    
   115   57   59 1    
   116   57  180 1    
   117   58  181 1    
   118   58  182 1    
   119   58  183 1    
   120   59   60 am   BACKBONE|DICT|INTERRES
   121   59  184 1    
   122   60   61 2    
   123   60   62 1    
   124   62   63 1    
   125   62   64 1    
   126   62  185 1    
   127   63  186 1    
   128   63  187 1    
   129   63  188 1    
   130   64   65 am   BACKBONE|DICT|INTERRES
   131   64  189 1    
   132   65   66 2    
   133   67   68 2    
   134   67   69 am   BACKBONE|DICT|INTERRES
   135   69   70 1    
   136   69  190 1    
   137   70   71 1    
   138   70   72 1    
   139   70  191 1    
   140   71  192 1    
   141   71  193 1    
   142   71  194 1    
   143   72   73 2    
   144   72   74 am   BACKBONE|DICT|INTERRES
   145   74   75 1    
   146   74  195 1    
   147   75   76 1    
   148   75   77 1    
   149   75  196 1    
   150   76  197 1    
   151   76  198 1    
   152   76  199 1    
   153   77   78 2    
   154   77   79 am   BACKBONE|DICT|INTERRES
   155   79   80 1    
   156   79  200 1    
   157   80   81 1    
   158   80   82 1    
   159   80  201 1    
   160   81  202 1    
   161   81  203 1    
   162   81  204 1    
   163   82   83 2    
   164   82   84 am   BACKBONE|DICT|INTERRES
   165   84   85 1    
   166   84  205 1    
   167   85   86 1    
   168   85   87 1    
   169   85  206 1    
   170   86  207 1    
   171   86  208 1    
   172   86  209 1    
   173   87   88 2    
   174   87   89 am   BACKBONE|DICT|INTERRES
   175   89   90 1    
   176   89  210 1    
   177   90   91 1    
   178   90   92 1    
   179   90  211 1    
   180   91  212 1    
   181   91  213 1    
   182   91  214 1    
   183   92   93 2    
   184   92   94 am   BACKBONE|DICT|INTERRES
   185   94   95 1    
   186   94  215 1    
   187   95   96 1    
   188   95   97 1    
   189   95  216 1    
   190   96  217 1    
   191   96  218 1    
   192   96  219 1    
   193   97   98 2    
   194   97   99 am   BACKBONE|DICT|INTERRES
   195   99  100 1    
   196   99  220 1    
   197  100  101 1    
   198  100  102 1    
   199  100  221 1    
   200  101  222 1    
   201  101  223 1    
   202  101  224 1    
   203  102  103 2    
   204  102  104 am   BACKBONE|DICT|INTERRES
   205  104  105 1    
   206  104  225 1    
   207  105  106 1    
   208  105  107 1    
   209  105  226 1    
   210  106  227 1    
   211  106  228 1    
   212  106  229 1    
   213  107  108 2    
   214  107  109 am   BACKBONE|DICT|INTERRES
   215  109  110 1    
   216  109  230 1    
   217  110  111 1    
   218  110  112 1    
   219  110  231 1    
   220  111  232 1    
   221  111  233 1    
   222  111  234 1    
   223  112  113 2    
   224  112  114 am   BACKBONE|DICT|INTERRES
   225  114  115 1    
   226  114  235 1    
   227  115  116 1    
   228  115  117 1    
   229  115  236 1    
   230  116  237 1    
   231  116  238 1    
   232  116  239 1    
   233  117  118 2    
   234  117  119 am   BACKBONE|DICT|INTERRES
   235  119  120 1    
   236  119  240 1    
   237  120  121 1    
   238  120  124 1    
   239  120  241 1    
   240  121  122 am   BACKBONE|DICT|INTERRES
   241  121  123 2    
   242  122  242 1    
   243  122  243 1    
   244  124  125 1    
   245  124  244 1    
   246  124  245 1    
   247  125  126 1    
   248  126  246 1    
   249  126  247 1    
@<TRIPOS>SUBSTRUCTURE
     1 UNK         1 GROUP             0       ****    0 ROOT    
