@<TRIPOS>MOLECULE
3R540
247   249    1
SMALL
USER_CHARGES


@<TRIPOS>ATOM
      1 CA         -2.9340  -11.3173  -51.9894 C.3       0 UNK        -0.1800 
      2 C          -1.5411  -11.0345  -51.4452 C.2       0 UNK         0.5000 
      3 O          -1.1300   -9.8762  -51.3827 O.2       0 UNK        -0.5000 
      4 N          -0.8195  -12.0867  -51.0404 N.am      1 UNK        -0.5000 
      5 CA          0.5458  -12.0324  -50.4981 C.3       1 UNK         0.1400 
      6 C6          1.3811  -13.2682  -50.9155 C.3       23 UNK        -0.0398 
      7 S7          0.6134  -14.8718  -50.5082 S.3       23 UNK        -0.2404 
      8 C8          1.8913  -15.9900  -51.1568 C.3       23 UNK        -0.0205 
      9 C9          1.5009  -17.4469  -50.9767 C.ar      23 UNK        -0.0193 
     10 C10         1.1060  -18.2177  -52.0742 C.ar      23 UNK        -0.1150 
     11 C11         0.7578  -19.5616  -51.9082 C.ar      23 UNK        -0.0193 
     12 C12         0.8114  -20.1331  -50.6331 C.ar      23 UNK        -0.1150 
     13 C13         1.1918  -19.3680  -49.5275 C.ar      23 UNK        -0.0193 
     14 C14         1.5431  -18.0287  -49.7075 C.ar      23 UNK        -0.1150 
     15 C15         1.1992  -19.9791  -48.1371 C.3       23 UNK        -0.0205 
     16 S16        -0.4804  -19.9826  -47.4469 S.3       23 UNK        -0.2404 
     17 C17        -0.1859  -20.5278  -45.7346 C.3       23 UNK        -0.0398 
     18 CA         -0.1156  -22.0674  -45.6015 C.3       11 UNK         0.1400 
     19 N           0.6381  -22.4707  -44.4146 N.am      11 UNK        -0.5000 
     20 C           1.1545  -23.6926  -44.2229 C.2       10 UNK         0.5000 
     21 O           0.8889  -24.6579  -44.9398 O.2       10 UNK        -0.5000 
     22 CA          2.1283  -23.8611  -43.0458 C.3       10 UNK         0.1400 
     23 CB          3.5073  -23.2877  -43.4072 C.3       10 UNK        -0.1800 
     24 N           1.6209  -23.1809  -41.8570 N.am      10 UNK        -0.5000 
     25 C           1.2187  -23.7981  -40.7380 C.2       9 UNK         0.5000 
     26 O           1.3783  -24.9995  -40.5180 O.2       9 UNK        -0.5000 
     27 CA          0.4757  -22.9345  -39.6954 C.3       9 UNK         0.1400 
     28 CB          1.4565  -22.4113  -38.6352 C.3       9 UNK        -0.1800 
     29 N          -0.2551  -21.7992  -40.2685 N.am      9 UNK        -0.5000 
     30 C          -1.1878  -21.8784  -41.2286 C.2       8 UNK         0.5000 
     31 O          -1.5704  -22.9360  -41.7235 O.2       8 UNK        -0.5000 
     32 CA         -1.7366  -20.5580  -41.7941 C.3       8 UNK         0.1400 
     33 CB         -3.0691  -20.1947  -41.1247 C.3       8 UNK        -0.1800 
     34 N          -0.8235  -19.4187  -41.6925 N.am      8 UNK        -0.5000 
     35 C           0.4179  -19.3280  -42.1872 C.2       7 UNK         0.5000 
     36 O           1.0145  -20.2791  -42.6994 O.2       7 UNK        -0.5000 
     37 CA          1.0794  -17.9341  -42.1041 C.3       7 UNK         0.1400 
     38 CB          2.4790  -17.9101  -42.7425 C.3       7 UNK        -0.1800 
     39 N           0.2528  -16.8983  -42.7319 N.am      7 UNK        -0.5000 
     40 C          -0.8715  -16.3716  -42.2237 C.2       6 UNK         0.5000 
     41 O          -1.3112  -16.6726  -41.1126 O.2       6 UNK        -0.5000 
     42 CA         -1.6600  -15.3684  -43.0882 C.3       6 UNK         0.1400 
     43 CB         -1.5142  -13.9473  -42.5247 C.3       6 UNK        -0.1800 
     44 N          -1.2762  -15.3600  -44.4994 N.am      6 UNK        -0.5000 
     45 C          -1.5011  -16.3454  -45.3802 C.2       5 UNK         0.5000 
     46 O          -2.0731  -17.3997  -45.1035 O.2       5 UNK        -0.5000 
     47 CA         -0.9689  -16.1065  -46.8042 C.3       5 UNK         0.1400 
     48 CB         -1.9878  -15.3052  -47.6287 C.3       5 UNK        -0.1800 
     49 N           0.3157  -15.4023  -46.7923 N.am      5 UNK        -0.5000 
     50 C           1.4753  -15.9573  -46.4121 C.2       4 UNK         0.5000 
     51 O           1.5898  -17.1355  -46.0804 O.2       4 UNK        -0.5000 
     52 CA          2.7089  -15.0378  -46.3569 C.3       4 UNK         0.1400 
     53 CB          3.3831  -14.9315  -47.7307 C.3       4 UNK        -0.1800 
     54 N           2.3819  -13.6987  -45.8691 N.am      4 UNK        -0.5000 
     55 C           2.0888  -13.4258  -44.5896 C.2       3 UNK         0.5000 
     56 O           2.1142  -14.2653  -43.6898 O.2       3 UNK        -0.5000 
     57 CA          1.6693  -11.9811  -44.2572 C.3       3 UNK         0.1400 
     58 CB          2.8923  -11.1508  -43.8403 C.3       3 UNK        -0.1800 
     59 N           0.9727  -11.2915  -45.3449 N.am      3 UNK        -0.5000 
     60 C          -0.1596  -11.6994  -45.9344 C.2       2 UNK         0.5000 
     61 O          -0.7408  -12.7444  -45.6431 O.2       2 UNK        -0.5000 
     62 CA         -0.7386  -10.8041  -47.0466 C.3       2 UNK         0.1400 
     63 CB         -0.2177   -9.3501  -47.0063 C.3       2 UNK        -0.1800 
     64 N          -0.5499  -11.3613  -48.3895 N.am      2 UNK        -0.5000 
     65 C           0.5981  -11.7336  -48.9782 C.2       1 UNK         0.5000 
     66 O           1.6751  -11.8091  -48.3828 O.2       1 UNK        -0.5000 
     67 C          -1.4946  -22.7495  -45.7428 C.2       11 UNK         0.5000 
     68 O          -1.9623  -22.9150  -46.8725 O.2       11 UNK        -0.5000 
     69 N          -2.1192  -23.1745  -44.6320 N.am      12 UNK        -0.5000 
     70 CA         -3.3756  -23.9322  -44.6650 C.3       12 UNK         0.1400 
     71 CB         -4.0092  -24.0020  -43.2694 C.3       12 UNK        -0.1800 
     72 C          -3.1885  -25.3437  -45.2476 C.2       12 UNK         0.5000 
     73 O          -4.0621  -25.8211  -45.9710 O.2       12 UNK        -0.5000 
     74 N          -2.0385  -25.9648  -44.9558 N.am      13 UNK        -0.5000 
     75 CA         -1.6414  -27.2526  -45.5187 C.3       13 UNK         0.1400 
     76 CB         -0.5733  -27.8954  -44.6203 C.3       13 UNK        -0.1800 
     77 C          -1.1295  -27.1093  -46.9625 C.2       13 UNK         0.5000 
     78 O          -1.4140  -27.9744  -47.7914 O.2       13 UNK        -0.5000 
     79 N          -0.3820  -26.0291  -47.2334 N.am      14 UNK        -0.5000 
     80 CA          0.2449  -25.7667  -48.5277 C.3       14 UNK         0.1400 
     81 CB          1.2854  -24.6442  -48.3912 C.3       14 UNK        -0.1800 
     82 C          -0.7613  -25.4314  -49.6418 C.2       14 UNK         0.5000 
     83 O          -0.6670  -26.0150  -50.7228 O.2       14 UNK        -0.5000 
     84 N          -1.6809  -24.4897  -49.3825 N.am      15 UNK        -0.5000 
     85 CA         -2.5688  -23.9398  -50.4110 C.3       15 UNK         0.1400 
     86 CB         -1.8024  -22.9143  -51.2714 C.3       15 UNK        -0.1800 
     87 C          -3.8608  -23.3405  -49.8328 C.2       15 UNK         0.5000 
     88 O          -4.4087  -22.4167  -50.4339 O.2       15 UNK        -0.5000 
     89 N          -4.3296  -23.8498  -48.6836 N.am      16 UNK        -0.5000 
     90 CA         -5.5626  -23.4340  -47.9978 C.3       16 UNK         0.1400 
     91 CB         -6.8004  -23.8977  -48.7943 C.3       16 UNK        -0.1800 
     92 C          -5.5944  -21.9265  -47.6534 C.2       16 UNK         0.5000 
     93 O          -6.6194  -21.2706  -47.8444 O.2       16 UNK        -0.5000 
     94 N          -4.4545  -21.4147  -47.1634 N.am      17 UNK        -0.5000 
     95 CA         -4.1802  -20.0086  -46.8433 C.3       17 UNK         0.1400 
     96 CB         -5.1198  -19.4768  -45.7406 C.3       17 UNK        -0.1800 
     97 C          -4.1371  -19.1292  -48.1110 C.2       17 UNK         0.5000 
     98 O          -4.7296  -18.0495  -48.1446 O.2       17 UNK        -0.5000 
     99 N          -3.4209  -19.6345  -49.1265 N.am      18 UNK        -0.5000 
    100 CA        -3.1690  -19.0394  -50.4413 C.3       18 UNK         0.1400 
    101 CB        -2.3159  -17.7613  -50.3125 C.3       18 UNK        -0.1800 
    102 C         -4.4637  -18.8247  -51.2498 C.2       18 UNK         0.5000 
    103 O         -4.7196  -17.7241  -51.7433 O.2       18 UNK        -0.5000 
    104 N         -5.2749  -19.8844  -51.3503 N.am      19 UNK        -0.5000 
    105 CA        -6.5023  -19.9121  -52.1379 C.3       19 UNK         0.1400 
    106 CB        -7.3474  -21.1221  -51.7122 C.3       19 UNK        -0.1800 
    107 C         -6.1855  -19.9659  -53.6432 C.2       19 UNK         0.5000 
    108 O         -5.3901  -20.8075  -54.0689 O.2       19 UNK        -0.5000 
    109 N         -6.8396  -19.0834  -54.4119 N.am      20 UNK        -0.5000 
    110 CA        -6.7082  -18.9018  -55.8626 C.3       20 UNK         0.1400 
    111 CB        -7.2388  -20.1461  -56.6107 C.3       20 UNK        -0.1800 
    112 C         -5.2815  -18.4919  -56.2982 C.2       20 UNK         0.5000 
    113 O         -4.4961  -18.0006  -55.4841 O.2       20 UNK        -0.5000 
    114 N         -4.9701  -18.6758  -57.5866 N.am      21 UNK        -0.5000 
    115 CA        -3.6632  -18.4047  -58.1859 C.3       21 UNK         0.1400 
    116 CB        -3.8663  -18.0427  -59.6688 C.3       21 UNK        -0.1800 
    117 C         -2.7153  -19.6050  -57.9873 C.2       21 UNK         0.5000 
    118 O         -2.3054  -20.2400  -58.9616 O.2       21 UNK        -0.5000 
    119 N         -2.4224  -19.9235  -56.7216 N.am      22 UNK        -0.5000 
    120 CA        -1.5119  -21.0019  -56.3129 C.3       22 UNK         0.1400 
    121 C         -0.0226  -20.7549  -56.6968 C.2       22 UNK         0.5000 
    122 N          0.7853  -21.8053  -56.7607 N.am      22 UNK        -0.7600 
    123 O          0.4178  -19.6272  -56.9113 O.2       22 UNK        -0.5000 
    124 C124       -1.6860  -21.3593  -54.8134 C.3       23 UNK        -0.0398 
    125 S125       -1.3556  -19.9917  -53.6462 S.3       23 UNK        -0.2404 
    126 C126        0.3362  -20.3967  -53.1068 C.3       23 UNK        -0.0205 
    127 H127       -3.6833  -10.7974  -51.3925 H         1 UNK         0.0600 
    128 H128       -3.1666  -12.3825  -51.9747 H         1 UNK         0.0600 
    129 H129       -3.0128  -10.9665  -53.0184 H         1 UNK         0.0600 
    130 H130       -1.2103  -13.0166  -51.1093 H         1 UNK         0.3000 
    131 H131        1.0454  -11.1754  -50.9549 H         1 UNK         0.0600 
    132 H132        1.5271  -13.2416  -51.9962 H         1 UNK         0.0800 
    133 H133        2.3843  -13.2254  -50.4887 H         1 UNK         0.0800 
    134 H134        2.8363  -15.8028  -50.6454 H         1 UNK         0.0800 
    135 H135        2.0613  -15.7690  -52.2117 H         1 UNK         0.0800 
    136 H136        1.0648  -17.7744  -53.0592 H         1 UNK         0.1150 
    137 H137        0.5493  -21.1713  -50.4935 H         1 UNK         0.1150 
    138 H138        1.8342  -17.4320  -48.8566 H         1 UNK         0.1150 
    139 H139        1.5829  -20.9992  -48.1800 H         1 UNK         0.0800 
    140 H140        1.8675  -19.4199  -47.4810 H         1 UNK         0.0800 
    141 H141       -0.9607  -20.1098  -45.0900 H         1 UNK         0.0800 
    142 H142        0.7484  -20.0710  -45.4044 H         1 UNK         0.0800 
    143 H143        0.4783  -22.4235  -46.4421 H         1 UNK         0.0600 
    144 H144        0.8870  -21.7183  -43.7765 H         1 UNK         0.3000 
    145 H145        2.2415  -24.9321  -42.8661 H         1 UNK         0.0600 
    146 H146        4.2242  -23.4578  -42.6038 H         1 UNK         0.0600 
    147 H147        3.9055  -23.7626  -44.3048 H         1 UNK         0.0600 
    148 H148        3.4637  -22.2135  -43.5933 H         1 UNK         0.0600 
    149 H149        1.4396  -22.1879  -41.9461 H         1 UNK         0.3000 
    150 H150       -0.2552  -23.5779  -39.2016 H         1 UNK         0.0600 
    151 H151        2.0020  -23.2324  -38.1681 H         1 UNK         0.0600 
    152 H152        0.9332  -21.8781  -37.8413 H         1 UNK         0.0600 
    153 H153        2.1922  -21.7329  -39.0690 H         1 UNK         0.0600 
    154 H154        0.0039  -20.8819  -39.9369 H         1 UNK         0.3000 
    155 H155       -1.9280  -20.7198  -42.8563 H         1 UNK         0.0600 
    156 H156       -2.9381  -19.9718  -40.0651 H         1 UNK         0.0600 
    157 H157       -3.7849  -21.0141  -41.2031 H         1 UNK         0.0600 
    158 H158       -3.5223  -19.3230  -41.5977 H         1 UNK         0.0600 
    159 H159       -1.2129  -18.5675  -41.2966 H         1 UNK         0.3000 
    160 H160        1.1930  -17.6922  -41.0456 H         1 UNK         0.0600 
    161 H161        2.4460  -18.1910  -43.7953 H         1 UNK         0.0600 
    162 H162        3.1498  -18.6074  -42.2392 H         1 UNK         0.0600 
    163 H163        2.9284  -16.9192  -42.6741 H         1 UNK         0.0600 
    164 H164        0.5361  -16.6025  -43.6557 H         1 UNK         0.3000 
    165 H165       -2.7131  -15.6510  -43.0328 H         1 UNK         0.0600 
    166 H166       -2.0839  -13.2261  -43.1112 H         1 UNK         0.0600 
    167 H167       -1.8804  -13.8938  -41.4987 H         1 UNK         0.0600 
    168 H168       -0.4725  -13.6285  -42.5166 H         1 UNK         0.0600 
    169 H169       -0.8599  -14.5007  -44.8468 H         1 UNK         0.3000 
    170 H170       -0.8290  -17.0758  -47.2850 H         1 UNK         0.0600 
    171 H171       -2.9471  -15.8229  -47.6652 H         1 UNK         0.0600 
    172 H172       -2.1683  -14.3161  -47.2082 H         1 UNK         0.0600 
    173 H173       -1.6511  -15.1742  -48.6557 H         1 UNK         0.0600 
    174 H174        0.2910  -14.4129  -46.9926 H         1 UNK         0.3000 
    175 H175        3.4259  -15.4901  -45.6680 H         1 UNK         0.0600 
    176 H176        2.7296  -14.4518  -48.4569 H         1 UNK         0.0600 
    177 H177        4.3030  -14.3494  -47.6743 H         1 UNK         0.0600 
    178 H178        3.6444  -15.9170  -48.1176 H         1 UNK         0.0600 
    179 H179        2.3127  -12.9585  -46.5580 H         1 UNK         0.3000 
    180 H180        0.9852  -12.0241  -43.4086 H         1 UNK         0.0600 
    181 H181        3.4223  -11.6239  -43.0124 H         1 UNK         0.0600 
    182 H182        2.5995  -10.1543  -43.5092 H         1 UNK         0.0600 
    183 H183        3.6005  -11.0382  -44.6623 H         1 UNK         0.0600 
    184 H184        1.3964  -10.4377  -45.6773 H         1 UNK         0.3000 
    185 H185       -1.8153  -10.7705  -46.8741 H         1 UNK         0.0600 
    186 H186       -0.3708   -8.9022  -46.0234 H         1 UNK         0.0600 
    187 H187        0.8446   -9.2835  -47.2438 H         1 UNK         0.0600 
    188 H188       -0.7514   -8.7290  -47.7259 H         1 UNK         0.0600 
    189 H189       -1.3769  -11.3763  -48.9684 H         1 UNK         0.3000 
    190 H190       -1.6889  -23.0509  -43.7212 H         1 UNK         0.3000 
    191 H191       -4.0744  -23.3962  -45.3058 H         1 UNK         0.0600 
    192 H192       -3.4013  -24.5859  -42.5778 H         1 UNK         0.0600 
    193 H193       -4.9917  -24.4735  -43.3137 H         1 UNK         0.0600 
    194 H194       -4.1462  -23.0070  -42.8463 H         1 UNK         0.0600 
    195 H195       -1.3528  -25.4841  -44.3906 H         1 UNK         0.3000 
    196 H196       -2.5104  -27.9142  -45.5337 H         1 UNK         0.0600 
    197 H197       -0.2804  -28.8737  -45.0036 H         1 UNK         0.0600 
    198 H198       -0.9474  -28.0423  -43.6071 H         1 UNK         0.0600 
    199 H199        0.3281  -27.2848  -44.5592 H         1 UNK         0.0600 
    200 H200       -0.1348  -25.4081  -46.4700 H         1 UNK         0.3000 
    201 H201        0.7771  -26.6741  -48.8212 H         1 UNK         0.0600 
    202 H202        1.9754  -24.8335  -47.5687 H         1 UNK         0.0600 
    203 H203        0.8145  -23.6767  -48.2266 H         1 UNK         0.0600 
    204 H204        1.8800  -24.5588  -49.3016 H         1 UNK         0.0600 
    205 H205       -1.7021  -24.0362  -48.4728 H         1 UNK         0.3000 
    206 H206       -2.8961  -24.7526  -51.0625 H         1 UNK         0.0600 
    207 H207       -0.8922  -23.3373  -51.6955 H         1 UNK         0.0600 
    208 H208       -2.4115  -22.5684  -52.1072 H         1 UNK         0.0600 
    209 H209       -1.5285  -22.0393  -50.6835 H         1 UNK         0.0600 
    210 H210       -3.8177  -24.6032  -48.2454 H         1 UNK         0.3000 
    211 H211       -5.5864  -23.9597  -47.0443 H         1 UNK         0.0600 
    212 H212       -6.8741  -23.3954  -49.7585 H         1 UNK         0.0600 
    213 H213       -7.7202  -23.6906  -48.2462 H         1 UNK         0.0600 
    214 H214       -6.7692  -24.9715  -48.9782 H         1 UNK         0.0600 
    215 H215       -3.6530  -22.0361  -47.0968 H         1 UNK         0.3000 
    216 H216       -3.1751  -19.9860  -46.4245 H         1 UNK         0.0600 
    217 H217       -4.7999  -18.4885  -45.4081 H         1 UNK         0.0600 
    218 H218       -5.1125  -20.1298  -44.8679 H         1 UNK         0.0600 
    219 H219       -6.1494  -19.3845  -46.0861 H         1 UNK         0.0600 
    220 H220       -3.0083  -20.5449  -48.9877 H         1 UNK         0.3000 
    221 H221       -2.5778  -19.7724  -50.9895 H         1 UNK         0.0600 
    222 H222       -2.8811  -16.9438  -49.8667 H         1 UNK         0.0600 
    223 H223       -1.4313  -17.9328  -49.7002 H         1 UNK         0.0600 
    224 H224       -1.9706  -17.4256  -51.2910 H         1 UNK         0.0600 
    225 H225       -4.9759  -20.7739  -50.9535 H         1 UNK         0.3000 
    226 H226       -7.0718  -19.0064  -51.9185 H         1 UNK         0.0600 
    227 H227       -7.5851  -21.0819  -50.6488 H         1 UNK         0.0600 
    228 H228       -8.2910  -21.1513  -52.2582 H         1 UNK         0.0600 
    229 H229       -6.8269  -22.0614  -51.9036 H         1 UNK         0.0600 
    230 H230       -7.4435  -18.4159  -53.9534 H         1 UNK         0.3000 
    231 H231       -7.3547  -18.0611  -56.1180 H         1 UNK         0.0600 
    232 H232       -8.2113  -20.4513  -56.2239 H         1 UNK         0.0600 
    233 H233       -6.5623  -20.9962  -56.5151 H         1 UNK         0.0600 
    234 H234       -7.3718  -19.9473  -57.6744 H         1 UNK         0.0600 
    235 H235       -5.6542  -19.1065  -58.1915 H         1 UNK         0.3000 
    236 H236       -3.2058  -17.5422  -57.6962 H         1 UNK         0.0600 
    237 H237       -2.9138  -17.8152  -60.1492 H         1 UNK         0.0600 
    238 H238       -4.3299  -18.8583  -60.2252 H         1 UNK         0.0600 
    239 H239       -4.5001  -17.1622  -59.7753 H         1 UNK         0.0600 
    240 H240       -2.8067  -19.3551  -55.9762 H         1 UNK         0.3000 
    241 H241       -1.8217  -21.8824  -56.8793 H         1 UNK         0.0600 
    242 H242        1.7538  -21.6608  -57.0012 H         1 UNK         0.3800 
    243 H243        0.4543  -22.7436  -56.5974 H         1 UNK         0.3800 
    244 H244       -1.0750  -22.2242  -54.5517 H         1 UNK         0.0800 
    245 H245       -2.7152  -21.6798  -54.6446 H         1 UNK         0.0800 
    246 H246        1.0309  -20.2263  -53.9302 H         1 UNK         0.0800 
    247 H247        0.4006  -21.4578  -52.8633 H         1 UNK         0.0800 
@<TRIPOS>BOND
     1    1    2 1    
     2    1  127 1    
     3    1  128 1    
     4    1  129 1    
     5    2    3 2    
     6    2    4 am   BACKBONE|DICT|INTERRES
     7    4    5 1    
     8    4  130 1    
     9    5    6 1    
    10    5   65 1    
    11    5  131 1    
    12    6    7 1    
    13    6  132 1    
    14    6  133 1    
    15    7    8 1    
    16    8    9 1    
    17    8  134 1    
    18    8  135 1    
    19    9   10 ar   
    20    9   14 ar   
    21   10   11 ar   
    22   10  136 1    
    23   11   12 ar   
    24   11  126 1    
    25   12   13 ar   
    26   12  137 1    
    27   13   14 ar   
    28   13   15 1    
    29   14  138 1    
    30   15   16 1    
    31   15  139 1    
    32   15  140 1    
    33   16   17 1    
    34   17   18 1    
    35   17  141 1    
    36   17  142 1    
    37   18   19 1    
    38   18   67 1    
    39   18  143 1    
    40   19   20 am   BACKBONE|DICT|INTERRES
    41   19  144 1    
    42   20   21 2    
    43   20   22 1    
    44   22   23 1    
    45   22   24 1    
    46   22  145 1    
    47   23  146 1    
    48   23  147 1    
    49   23  148 1    
    50   24   25 am   BACKBONE|DICT|INTERRES
    51   24  149 1    
    52   25   26 2    
    53   25   27 1    
    54   27   28 1    
    55   27   29 1    
    56   27  150 1    
    57   28  151 1    
    58   28  152 1    
    59   28  153 1    
    60   29   30 am   BACKBONE|DICT|INTERRES
    61   29  154 1    
    62   30   31 2    
    63   30   32 1    
    64   32   33 1    
    65   32   34 1    
    66   32  155 1    
    67   33  156 1    
    68   33  157 1    
    69   33  158 1    
    70   34   35 am   BACKBONE|DICT|INTERRES
    71   34  159 1    
    72   35   36 2    
    73   35   37 1    
    74   37   38 1    
    75   37   39 1    
    76   37  160 1    
    77   38  161 1    
    78   38  162 1    
    79   38  163 1    
    80   39   40 am   BACKBONE|DICT|INTERRES
    81   39  164 1    
    82   40   41 2    
    83   40   42 1    
    84   42   43 1    
    85   42   44 1    
    86   42  165 1    
    87   43  166 1    
    88   43  167 1    
    89   43  168 1    
    90   44   45 am   BACKBONE|DICT|INTERRES
    91   44  169 1    
    92   45   46 2    
    93   45   47 1    
    94   47   48 1    
    95   47   49 1    
    96   47  170 1    
    97   48  171 1    
    98   48  172 1    
    99   48  173 1    
   100   49   50 am   BACKBONE|DICT|INTERRES
   101   49  174 1    
   102   50   51 2    
   103   50   52 1    
   104   52   53 1    
   105   52   54 1    
   106   52  175 1    
   107   53  176 1    
   108   53  177 1    
   109   53  178 1    
   110   54   55 am   BACKBONE|DICT|INTERRES
   111   54  179 1    
   112   55   56 2    
   113   55   57 1    
   114   57   58 1    
   115   57   59 1    
   116   57  180 1    
   117   58  181 1    
   118   58  182 1    
   119   58  183 1    
   120   59   60 am   BACKBONE|DICT|INTERRES
   121   59  184 1    
   122   60   61 2    
   123   60   62 1    
   124   62   63 1    
   125   62   64 1    
   126   62  185 1    
   127   63  186 1    
   128   63  187 1    
   129   63  188 1    
   130   64   65 am   BACKBONE|DICT|INTERRES
   131   64  189 1    
   132   65   66 2    
   133   67   68 2    
   134   67   69 am   BACKBONE|DICT|INTERRES
   135   69   70 1    
   136   69  190 1    
   137   70   71 1    
   138   70   72 1    
   139   70  191 1    
   140   71  192 1    
   141   71  193 1    
   142   71  194 1    
   143   72   73 2    
   144   72   74 am   BACKBONE|DICT|INTERRES
   145   74   75 1    
   146   74  195 1    
   147   75   76 1    
   148   75   77 1    
   149   75  196 1    
   150   76  197 1    
   151   76  198 1    
   152   76  199 1    
   153   77   78 2    
   154   77   79 am   BACKBONE|DICT|INTERRES
   155   79   80 1    
   156   79  200 1    
   157   80   81 1    
   158   80   82 1    
   159   80  201 1    
   160   81  202 1    
   161   81  203 1    
   162   81  204 1    
   163   82   83 2    
   164   82   84 am   BACKBONE|DICT|INTERRES
   165   84   85 1    
   166   84  205 1    
   167   85   86 1    
   168   85   87 1    
   169   85  206 1    
   170   86  207 1    
   171   86  208 1    
   172   86  209 1    
   173   87   88 2    
   174   87   89 am   BACKBONE|DICT|INTERRES
   175   89   90 1    
   176   89  210 1    
   177   90   91 1    
   178   90   92 1    
   179   90  211 1    
   180   91  212 1    
   181   91  213 1    
   182   91  214 1    
   183   92   93 2    
   184   92   94 am   BACKBONE|DICT|INTERRES
   185   94   95 1    
   186   94  215 1    
   187   95   96 1    
   188   95   97 1    
   189   95  216 1    
   190   96  217 1    
   191   96  218 1    
   192   96  219 1    
   193   97   98 2    
   194   97   99 am   BACKBONE|DICT|INTERRES
   195   99  100 1    
   196   99  220 1    
   197  100  101 1    
   198  100  102 1    
   199  100  221 1    
   200  101  222 1    
   201  101  223 1    
   202  101  224 1    
   203  102  103 2    
   204  102  104 am   BACKBONE|DICT|INTERRES
   205  104  105 1    
   206  104  225 1    
   207  105  106 1    
   208  105  107 1    
   209  105  226 1    
   210  106  227 1    
   211  106  228 1    
   212  106  229 1    
   213  107  108 2    
   214  107  109 am   BACKBONE|DICT|INTERRES
   215  109  110 1    
   216  109  230 1    
   217  110  111 1    
   218  110  112 1    
   219  110  231 1    
   220  111  232 1    
   221  111  233 1    
   222  111  234 1    
   223  112  113 2    
   224  112  114 am   BACKBONE|DICT|INTERRES
   225  114  115 1    
   226  114  235 1    
   227  115  116 1    
   228  115  117 1    
   229  115  236 1    
   230  116  237 1    
   231  116  238 1    
   232  116  239 1    
   233  117  118 2    
   234  117  119 am   BACKBONE|DICT|INTERRES
   235  119  120 1    
   236  119  240 1    
   237  120  121 1    
   238  120  124 1    
   239  120  241 1    
   240  121  122 am   BACKBONE|DICT|INTERRES
   241  121  123 2    
   242  122  242 1    
   243  122  243 1    
   244  124  125 1    
   245  124  244 1    
   246  124  245 1    
   247  125  126 1    
   248  126  246 1    
   249  126  247 1    
@<TRIPOS>SUBSTRUCTURE
     1 UNK         1 GROUP             0       ****    0 ROOT    
