@<TRIPOS>MOLECULE
3R540
247   249    1
SMALL
USER_CHARGES


@<TRIPOS>ATOM
      1 CA          2.6693  -11.2728  -49.6388 C.3       0 UNK        -0.1800 
      2 C           1.8017  -12.2695  -48.8837 C.2       0 UNK         0.5000 
      3 O           2.0620  -12.5460  -47.7122 O.2       0 UNK        -0.5000 
      4 N           0.7678  -12.8056  -49.5436 N.am      1 UNK        -0.5000 
      5 CA         -0.1809  -13.7828  -48.9979 C.3       1 UNK         0.1400 
      6 C6         -0.8436  -14.6319  -50.1125 C.3       23 UNK        -0.0398 
      7 S7          0.3172  -15.8315  -50.8445 S.3       23 UNK        -0.2404 
      8 C8          0.0500  -17.2364  -49.7161 C.3       23 UNK        -0.0205 
      9 C9          0.6025  -18.5393  -50.2698 C.ar      23 UNK        -0.0193 
     10 C10         0.0324  -19.1134  -51.4092 C.ar      23 UNK        -0.1150 
     11 C11         0.4954  -20.3389  -51.8932 C.ar      23 UNK        -0.0193 
     12 C12         1.5203  -21.0031  -51.2139 C.ar      23 UNK        -0.1150 
     13 C13         2.0916  -20.4497  -50.0632 C.ar      23 UNK        -0.0193 
     14 C14         1.6436  -19.2012  -49.6133 C.ar      23 UNK        -0.1150 
     15 C15         3.1725  -21.2314  -49.3158 C.3       23 UNK        -0.0205 
     16 S16         3.0936  -21.0966  -47.4930 S.3       23 UNK        -0.2404 
     17 C17         1.3483  -21.4954  -47.1370 C.3       23 UNK        -0.0398 
     18 CA          1.1620  -22.7101  -46.1991 C.3       11 UNK         0.1400 
     19 N           1.8302  -22.5369  -44.9101 N.am      11 UNK        -0.5000 
     20 C           2.0827  -23.5136  -44.0302 C.2       10 UNK         0.5000 
     21 O           1.8151  -24.6979  -44.2386 O.2       10 UNK        -0.5000 
     22 CA          2.6993  -23.0865  -42.6809 C.3       10 UNK         0.1400 
     23 CB          3.5950  -24.1763  -42.0568 C.3       10 UNK        -0.1800 
     24 N           3.3912  -21.7934  -42.7363 N.am      10 UNK        -0.5000 
     25 C           4.5010  -21.4790  -43.4234 C.2       9 UNK         0.5000 
     26 O           5.1448  -22.2877  -44.0927 O.2       9 UNK        -0.5000 
     27 CA          4.9677  -20.0082  -43.3770 C.3       9 UNK         0.1400 
     28 CB          4.7804  -19.3425  -44.7488 C.3       9 UNK        -0.1800 
     29 N           4.2701  -19.2038  -42.3722 N.am      9 UNK        -0.5000 
     30 C           4.4905  -19.2621  -41.0526 C.2       8 UNK         0.5000 
     31 O           5.3612  -19.9618  -40.5341 O.2       8 UNK        -0.5000 
     32 CA          3.5521  -18.4277  -40.1611 C.3       8 UNK         0.1400 
     33 CB          4.0642  -16.9845  -40.0414 C.3       8 UNK        -0.1800 
     34 N           2.1620  -18.4200  -40.6293 N.am      8 UNK        -0.5000 
     35 C           1.3734  -19.5028  -40.7021 C.2       7 UNK         0.5000 
     36 O           1.7393  -20.6353  -40.3888 O.2       7 UNK        -0.5000 
     37 CA         -0.0483  -19.3013  -41.2542 C.3       7 UNK         0.1400 
     38 CB         -0.9654  -18.6588  -40.2034 C.3       7 UNK        -0.1800 
     39 N          -0.0572  -18.5041  -42.4791 N.am      7 UNK        -0.5000 
     40 C           0.4242  -18.9247  -43.6572 C.2       6 UNK         0.5000 
     41 O           0.8361  -20.0678  -43.8575 O.2       6 UNK        -0.5000 
     42 CA          0.4750  -17.8965  -44.8016 C.3       6 UNK         0.1400 
     43 CB         -0.8521  -17.8749  -45.5743 C.3       6 UNK        -0.1800 
     44 N           0.7949  -16.5466  -44.3369 N.am      6 UNK        -0.5000 
     45 C           1.9530  -16.1975  -43.7588 C.2       5 UNK         0.5000 
     46 O           2.8915  -16.9728  -43.5819 O.2       5 UNK        -0.5000 
     47 CA          2.0571  -14.7557  -43.2378 C.3       5 UNK         0.1400 
     48 CB          2.3321  -13.7719  -44.3848 C.3       5 UNK        -0.1800 
     49 N           0.8549  -14.3518  -42.5082 N.am      5 UNK        -0.5000 
     50 C           0.4900  -14.8528  -41.3193 C.2       4 UNK         0.5000 
     51 O           1.1388  -15.6995  -40.7068 O.2       4 UNK        -0.5000 
     52 CA         -0.8401  -14.3496  -40.7308 C.3       4 UNK         0.1400 
     53 CB         -0.6328  -13.0272  -39.9778 C.3       4 UNK        -0.1800 
     54 N          -1.8743  -14.1710  -41.7495 N.am      4 UNK        -0.5000 
     55 C          -2.4366  -15.1721  -42.4409 C.2       3 UNK         0.5000 
     56 O          -2.1619  -16.3603  -42.2753 O.2       3 UNK        -0.5000 
     57 CA         -3.4286  -14.7644  -43.5462 C.3       3 UNK         0.1400 
     58 CB         -4.8222  -14.5009  -42.9568 C.3       3 UNK        -0.1800 
     59 N          -2.9894  -13.5921  -44.3124 N.am      3 UNK        -0.5000 
     60 C          -1.8564  -13.5456  -45.0243 C.2       2 UNK         0.5000 
     61 O          -1.0435  -14.4731  -45.0673 O.2       2 UNK        -0.5000 
     62 CA         -1.5560  -12.2417  -45.7856 C.3       2 UNK         0.1400 
     63 CB         -0.7897  -11.2582  -44.8883 C.3       2 UNK        -0.1800 
     64 N          -0.7437  -12.5459  -46.9610 N.am      2 UNK        -0.5000 
     65 C          -1.2220  -13.1161  -48.0718 C.2       1 UNK         0.5000 
     66 O          -2.4222  -13.1495  -48.3511 O.2       1 UNK        -0.5000 
     67 C          -0.3421  -22.9584  -45.9963 C.2       11 UNK         0.5000 
     68 O          -0.9185  -23.7898  -46.6968 O.2       11 UNK        -0.5000 
     69 N          -0.9450  -22.2410  -45.0340 N.am      12 UNK        -0.5000 
     70 CA         -2.3860  -22.2006  -44.7472 C.3       12 UNK         0.1400 
     71 CB         -2.6387  -21.1740  -43.6323 C.3       12 UNK        -0.1800 
     72 C          -3.0342  -23.5549  -44.3884 C.2       12 UNK         0.5000 
     73 O          -4.2606  -23.6617  -44.4050 O.2       12 UNK        -0.5000 
     74 N          -2.2108  -24.5687  -44.0913 N.am      13 UNK        -0.5000 
     75 CA         -2.6197  -25.9616  -43.9202 C.3       13 UNK         0.1400 
     76 CB         -1.4354  -26.7515  -43.3418 C.3       13 UNK        -0.1800 
     77 C          -3.1216  -26.6194  -45.2246 C.2       13 UNK         0.5000 
     78 O          -3.8699  -27.5949  -45.1462 O.2       13 UNK        -0.5000 
     79 N          -2.7081  -26.0909  -46.3861 N.am      14 UNK        -0.5000 
     80 CA         -3.0858  -26.5869  -47.7107 C.3       14 UNK         0.1400 
     81 CB         -1.9031  -27.3605  -48.3158 C.3       14 UNK        -0.1800 
     82 C          -3.5372  -25.4603  -48.6565 C.2       14 UNK         0.5000 
     83 O          -4.4492  -25.6801  -49.4547 O.2       14 UNK        -0.5000 
     84 N          -2.8973  -24.2866  -48.5737 N.am      15 UNK        -0.5000 
     85 CA         -3.1781  -23.1238  -49.4119 C.3       15 UNK         0.1400 
     86 CB         -2.0310  -22.1079  -49.2676 C.3       15 UNK        -0.1800 
     87 C          -4.5095  -22.4566  -49.0359 C.2       15 UNK         0.5000 
     88 O          -4.7128  -22.1220  -47.8666 O.2       15 UNK        -0.5000 
     89 N          -5.3576  -22.2198  -50.0417 N.am      16 UNK        -0.5000 
     90 CA         -6.4916  -21.3009  -49.9527 C.3       16 UNK         0.1400 
     91 CB         -7.6225  -21.7897  -50.8711 C.3       16 UNK        -0.1800 
     92 C          -6.0497  -19.8799  -50.3469 C.2       16 UNK         0.5000 
     93 O          -6.5473  -18.9095  -49.7763 O.2       16 UNK        -0.5000 
     94 N          -5.1139  -19.7976  -51.3088 N.am      17 UNK        -0.5000 
     95 CA         -4.4729  -18.5900  -51.8443 C.3       17 UNK         0.1400 
     96 CB         -3.5976  -17.9211  -50.7660 C.3       17 UNK        -0.1800 
     97 C          -5.4560  -17.6066  -52.5177 C.2       17 UNK         0.5000 
     98 O          -5.1890  -16.4052  -52.5725 O.2       17 UNK        -0.5000 
     99 N          -6.5759  -18.1362  -53.0293 N.am      18 UNK        -0.5000 
    100 CA        -7.6445  -17.3759  -53.6825 C.3       18 UNK         0.1400 
    101 CB        -8.9175  -18.2367  -53.6935 C.3       18 UNK        -0.1800 
    102 C         -7.2901  -16.9212  -55.1126 C.2       18 UNK         0.5000 
    103 O         -7.9271  -16.0047  -55.6336 O.2       18 UNK        -0.5000 
    104 N         -6.2931  -17.5702  -55.7210 N.am      19 UNK        -0.5000 
    105 CA        -5.7807  -17.3219  -57.0620 C.3       19 UNK         0.1400 
    106 CB        -6.7132  -17.9747  -58.1017 C.3       19 UNK        -0.1800 
    107 C         -4.3595  -17.8985  -57.1472 C.2       19 UNK         0.5000 
    108 O         -3.9063  -18.5588  -56.2066 O.2       19 UNK        -0.5000 
    109 N         -3.6968  -17.6901  -58.2933 N.am      20 UNK        -0.5000 
    110 CA        -2.3566  -18.2052  -58.6091 C.3       20 UNK         0.1400 
    111 CB        -1.9104  -17.6341  -59.9638 C.3       20 UNK        -0.1800 
    112 C         -2.2512  -19.7464  -58.6123 C.2       20 UNK         0.5000 
    113 O         -1.1554  -20.2811  -58.4412 O.2       20 UNK        -0.5000 
    114 N         -3.3943  -20.4296  -58.7673 N.am      21 UNK        -0.5000 
    115 CA        -3.5520  -21.8778  -58.6155 C.3       21 UNK         0.1400 
    116 CB        -4.9016  -22.2853  -59.2284 C.3       21 UNK        -0.1800 
    117 C         -3.4531  -22.3652  -57.1514 C.2       21 UNK         0.5000 
    118 O         -3.3859  -23.5742  -56.9291 O.2       21 UNK        -0.5000 
    119 N         -3.4529  -21.4331  -56.1868 N.am      22 UNK        -0.5000 
    120 CA        -3.3582  -21.6518  -54.7346 C.3       22 UNK         0.1400 
    121 C         -4.6862  -22.0871  -54.0451 C.2       22 UNK         0.5000 
    122 N         -5.8025  -22.1922  -54.7539 N.am      22 UNK        -0.7600 
    123 O         -4.7243  -22.2710  -52.8312 O.2       22 UNK        -0.5000 
    124 C124       -2.1339  -22.5222  -54.3308 C.3       23 UNK        -0.0398 
    125 S125       -1.4634  -22.0932  -52.6927 S.3       23 UNK        -0.2404 
    126 C126       -0.1240  -20.9517  -53.1382 C.3       23 UNK        -0.0205 
    127 H127        2.6563  -10.3069  -49.1339 H         1 UNK         0.0600 
    128 H128        2.3229  -11.1270  -50.6622 H         1 UNK         0.0600 
    129 H129        3.6998  -11.6260  -49.6755 H         1 UNK         0.0600 
    130 H130        0.5988  -12.5254  -50.4991 H         1 UNK         0.3000 
    131 H131        0.3741  -14.4717  -48.3567 H         1 UNK         0.0600 
    132 H132       -1.7049  -15.1859  -49.7349 H         1 UNK         0.0800 
    133 H133       -1.2330  -13.9897  -50.9040 H         1 UNK         0.0800 
    134 H134       -1.0147  -17.3708  -49.5277 H         1 UNK         0.0800 
    135 H135        0.5024  -17.0040  -48.7508 H         1 UNK         0.0800 
    136 H136       -0.7762  -18.6060  -51.9163 H         1 UNK         0.1150 
    137 H137        1.8614  -21.9628  -51.5764 H         1 UNK         0.1150 
    138 H138        2.0806  -18.7603  -48.7288 H         1 UNK         0.1150 
    139 H139        3.1176  -22.2898  -49.5756 H         1 UNK         0.0800 
    140 H140        4.1497  -20.8817  -49.6503 H         1 UNK         0.0800 
    141 H141        0.8228  -21.6790  -48.0750 H         1 UNK         0.0800 
    142 H142        0.8918  -20.6014  -46.7085 H         1 UNK         0.0800 
    143 H143        1.5837  -23.5900  -46.6898 H         1 UNK         0.0600 
    144 H144        2.0076  -21.5815  -44.6234 H         1 UNK         0.3000 
    145 H145        1.8540  -22.9380  -42.0078 H         1 UNK         0.0600 
    146 H146        4.0138  -23.8448  -41.1066 H         1 UNK         0.0600 
    147 H147        3.0246  -25.0846  -41.8590 H         1 UNK         0.0600 
    148 H148        4.4219  -24.4487  -42.7128 H         1 UNK         0.0600 
    149 H149        2.9462  -21.0546  -42.2063 H         1 UNK         0.3000 
    150 H150        6.0339  -20.0111  -43.1418 H         1 UNK         0.0600 
    151 H151        5.3083  -19.8916  -45.5294 H         1 UNK         0.0600 
    152 H152        5.1688  -18.3239  -44.7497 H         1 UNK         0.0600 
    153 H153        3.7276  -19.2987  -45.0306 H         1 UNK         0.0600 
    154 H154        3.5833  -18.5407  -42.7231 H         1 UNK         0.3000 
    155 H155        3.5627  -18.8743  -39.1648 H         1 UNK         0.0600 
    156 H156        5.0962  -16.9624  -39.6892 H         1 UNK         0.0600 
    157 H157        3.4668  -16.4125  -39.3314 H         1 UNK         0.0600 
    158 H158        4.0319  -16.4662  -41.0003 H         1 UNK         0.0600 
    159 H159        1.7753  -17.5116  -40.8706 H         1 UNK         0.3000 
    160 H160       -0.4509  -20.2882  -41.4887 H         1 UNK         0.0600 
    161 H161       -0.6433  -17.6497  -39.9467 H         1 UNK         0.0600 
    162 H162       -0.9767  -19.2448  -39.2837 H         1 UNK         0.0600 
    163 H163       -1.9926  -18.5997  -40.5637 H         1 UNK         0.0600 
    164 H164       -0.4509  -17.5722  -42.4144 H         1 UNK         0.3000 
    165 H165        1.2645  -18.2082  -45.4887 H         1 UNK         0.0600 
    166 H166       -0.8012  -17.1960  -46.4257 H         1 UNK         0.0600 
    167 H167       -1.0978  -18.8651  -45.9606 H         1 UNK         0.0600 
    168 H168       -1.6793  -17.5524  -44.9405 H         1 UNK         0.0600 
    169 H169        0.0817  -15.8333  -44.4732 H         1 UNK         0.3000 
    170 H170        2.9022  -14.7110  -42.5475 H         1 UNK         0.0600 
    171 H171        3.2512  -14.0349  -44.9099 H         1 UNK         0.0600 
    172 H172        1.5294  -13.7692  -45.1219 H         1 UNK         0.0600 
    173 H173        2.4518  -12.7542  -44.0133 H         1 UNK         0.0600 
    174 H174        0.2351  -13.7066  -42.9731 H         1 UNK         0.3000 
    175 H175       -1.1920  -15.0973  -40.0168 H         1 UNK         0.0600 
    176 H176        0.1234  -13.1367  -39.1992 H         1 UNK         0.0600 
    177 H177       -0.3043  -12.2290  -40.6447 H         1 UNK         0.0600 
    178 H178       -1.5528  -12.7019  -39.4919 H         1 UNK         0.0600 
    179 H179       -2.1565  -13.2243  -41.9559 H         1 UNK         0.3000 
    180 H180       -3.5064  -15.6037  -44.2407 H         1 UNK         0.0600 
    181 H181       -4.8200  -13.6458  -42.2797 H         1 UNK         0.0600 
    182 H182       -5.1771  -15.3650  -42.3933 H         1 UNK         0.0600 
    183 H183       -5.5522  -14.3056  -43.7425 H         1 UNK         0.0600 
    184 H184       -3.6077  -12.7936  -44.3133 H         1 UNK         0.3000 
    185 H185       -2.4951  -11.7812  -46.0993 H         1 UNK         0.0600 
    186 H186       -1.3737  -10.9956  -44.0054 H         1 UNK         0.0600 
    187 H187        0.1570  -11.6753  -44.5444 H         1 UNK         0.0600 
    188 H188       -0.5713  -10.3316  -45.4195 H         1 UNK         0.0600 
    189 H189        0.2630  -12.5565  -46.8319 H         1 UNK         0.3000 
    190 H190       -0.3685  -21.5970  -44.5025 H         1 UNK         0.3000 
    191 H191       -2.8835  -21.8478  -45.6529 H         1 UNK         0.0600 
    192 H192       -2.1323  -21.4557  -42.7091 H         1 UNK         0.0600 
    193 H193       -3.7031  -21.0896  -43.4090 H         1 UNK         0.0600 
    194 H194       -2.2942  -20.1813  -43.9201 H         1 UNK         0.0600 
    195 H195       -1.2173  -24.3901  -44.1067 H         1 UNK         0.3000 
    196 H196       -3.4389  -25.9907  -43.1988 H         1 UNK         0.0600 
    197 H197       -1.7044  -27.7956  -43.1764 H         1 UNK         0.0600 
    198 H198       -1.1187  -26.3425  -42.3822 H         1 UNK         0.0600 
    199 H199       -0.5757  -26.7355  -44.0133 H         1 UNK         0.0600 
    200 H200       -2.0927  -25.2839  -46.3619 H         1 UNK         0.3000 
    201 H201       -3.9305  -27.2739  -47.6267 H         1 UNK         0.0600 
    202 H202       -1.6376  -28.2185  -47.6981 H         1 UNK         0.0600 
    203 H203       -1.0184  -26.7296  -48.4113 H         1 UNK         0.0600 
    204 H204       -2.1486  -27.7381  -49.3093 H         1 UNK         0.0600 
    205 H205       -2.1574  -24.1633  -47.8870 H         1 UNK         0.3000 
    206 H206       -3.2181  -23.4512  -50.4533 H         1 UNK         0.0600 
    207 H207       -1.0745  -22.5460  -49.5527 H         1 UNK         0.0600 
    208 H208       -2.1949  -21.2403  -49.9080 H         1 UNK         0.0600 
    209 H209       -1.9431  -21.7381  -48.2460 H         1 UNK         0.0600 
    210 H210       -5.1049  -22.5185  -50.9807 H         1 UNK         0.3000 
    211 H211       -6.8730  -21.2702  -48.9298 H         1 UNK         0.0600 
    212 H212       -8.4868  -21.1270  -50.8107 H         1 UNK         0.0600 
    213 H213       -7.9564  -22.7872  -50.5852 H         1 UNK         0.0600 
    214 H214       -7.3112  -21.8281  -51.9152 H         1 UNK         0.0600 
    215 H215       -4.8161  -20.6701  -51.7345 H         1 UNK         0.3000 
    216 H216       -3.8054  -18.9312  -52.6366 H         1 UNK         0.0600 
    217 H217       -2.9840  -17.1281  -51.1953 H         1 UNK         0.0600 
    218 H218       -2.9222  -18.6443  -50.3090 H         1 UNK         0.0600 
    219 H219       -4.1999  -17.4771  -49.9730 H         1 UNK         0.0600 
    220 H220       -6.7190  -19.1308  -52.9371 H         1 UNK         0.3000 
    221 H221       -7.8432  -16.4790  -53.0920 H         1 UNK         0.0600 
    222 H222       -8.7774  -19.1549  -54.2656 H         1 UNK         0.0600 
    223 H223       -9.2157  -18.5129  -52.6818 H         1 UNK         0.0600 
    224 H224       -9.7522  -17.6953  -54.1407 H         1 UNK         0.0600 
    225 H225       -5.7708  -18.2669  -55.2056 H         1 UNK         0.3000 
    226 H226       -5.7231  -16.2454  -57.2350 H         1 UNK         0.0600 
    227 H227       -7.7253  -17.5759  -58.0319 H         1 UNK         0.0600 
    228 H228       -6.3691  -17.7894  -59.1196 H         1 UNK         0.0600 
    229 H229       -6.7723  -19.0552  -57.9642 H         1 UNK         0.0600 
    230 H230       -4.1407  -17.1426  -59.0168 H         1 UNK         0.3000 
    231 H231       -1.6729  -17.8384  -57.8408 H         1 UNK         0.0600 
    232 H232       -1.8907  -16.5442  -59.9461 H         1 UNK         0.0600 
    233 H233       -2.5752  -17.9463  -60.7702 H         1 UNK         0.0600 
    234 H234       -0.9046  -17.9708  -60.2187 H         1 UNK         0.0600 
    235 H235       -4.2397  -19.9012  -58.9226 H         1 UNK         0.3000 
    236 H236       -2.7560  -22.3714  -59.1768 H         1 UNK         0.0600 
    237 H237       -5.0489  -23.3647  -59.1718 H         1 UNK         0.0600 
    238 H238       -5.7378  -21.8121  -58.7122 H         1 UNK         0.0600 
    239 H239       -4.9563  -22.0080  -60.2813 H         1 UNK         0.0600 
    240 H240       -3.5397  -20.4579  -56.4548 H         1 UNK         0.3000 
    241 H241       -3.1775  -20.6480  -54.3496 H         1 UNK         0.0600 
    242 H242       -6.6549  -22.4732  -54.2975 H         1 UNK         0.3800 
    243 H243       -5.7935  -22.0390  -55.7485 H         1 UNK         0.3800 
    244 H244       -2.3933  -23.5820  -54.3384 H         1 UNK         0.0800 
    245 H245       -1.3303  -22.4114  -55.0602 H         1 UNK         0.0800 
    246 H246        0.6361  -21.4850  -53.7113 H         1 UNK         0.0800 
    247 H247       -0.5134  -20.1678  -53.7898 H         1 UNK         0.0800 
@<TRIPOS>BOND
     1    1    2 1    
     2    1  127 1    
     3    1  128 1    
     4    1  129 1    
     5    2    3 2    
     6    2    4 am   BACKBONE|DICT|INTERRES
     7    4    5 1    
     8    4  130 1    
     9    5    6 1    
    10    5   65 1    
    11    5  131 1    
    12    6    7 1    
    13    6  132 1    
    14    6  133 1    
    15    7    8 1    
    16    8    9 1    
    17    8  134 1    
    18    8  135 1    
    19    9   10 ar   
    20    9   14 ar   
    21   10   11 ar   
    22   10  136 1    
    23   11   12 ar   
    24   11  126 1    
    25   12   13 ar   
    26   12  137 1    
    27   13   14 ar   
    28   13   15 1    
    29   14  138 1    
    30   15   16 1    
    31   15  139 1    
    32   15  140 1    
    33   16   17 1    
    34   17   18 1    
    35   17  141 1    
    36   17  142 1    
    37   18   19 1    
    38   18   67 1    
    39   18  143 1    
    40   19   20 am   BACKBONE|DICT|INTERRES
    41   19  144 1    
    42   20   21 2    
    43   20   22 1    
    44   22   23 1    
    45   22   24 1    
    46   22  145 1    
    47   23  146 1    
    48   23  147 1    
    49   23  148 1    
    50   24   25 am   BACKBONE|DICT|INTERRES
    51   24  149 1    
    52   25   26 2    
    53   25   27 1    
    54   27   28 1    
    55   27   29 1    
    56   27  150 1    
    57   28  151 1    
    58   28  152 1    
    59   28  153 1    
    60   29   30 am   BACKBONE|DICT|INTERRES
    61   29  154 1    
    62   30   31 2    
    63   30   32 1    
    64   32   33 1    
    65   32   34 1    
    66   32  155 1    
    67   33  156 1    
    68   33  157 1    
    69   33  158 1    
    70   34   35 am   BACKBONE|DICT|INTERRES
    71   34  159 1    
    72   35   36 2    
    73   35   37 1    
    74   37   38 1    
    75   37   39 1    
    76   37  160 1    
    77   38  161 1    
    78   38  162 1    
    79   38  163 1    
    80   39   40 am   BACKBONE|DICT|INTERRES
    81   39  164 1    
    82   40   41 2    
    83   40   42 1    
    84   42   43 1    
    85   42   44 1    
    86   42  165 1    
    87   43  166 1    
    88   43  167 1    
    89   43  168 1    
    90   44   45 am   BACKBONE|DICT|INTERRES
    91   44  169 1    
    92   45   46 2    
    93   45   47 1    
    94   47   48 1    
    95   47   49 1    
    96   47  170 1    
    97   48  171 1    
    98   48  172 1    
    99   48  173 1    
   100   49   50 am   BACKBONE|DICT|INTERRES
   101   49  174 1    
   102   50   51 2    
   103   50   52 1    
   104   52   53 1    
   105   52   54 1    
   106   52  175 1    
   107   53  176 1    
   108   53  177 1    
   109   53  178 1    
   110   54   55 am   BACKBONE|DICT|INTERRES
   111   54  179 1    
   112   55   56 2    
   113   55   57 1    
   114   57   58 1    
   115   57   59 1    
   116   57  180 1    
   117   58  181 1    
   118   58  182 1    
   119   58  183 1    
   120   59   60 am   BACKBONE|DICT|INTERRES
   121   59  184 1    
   122   60   61 2    
   123   60   62 1    
   124   62   63 1    
   125   62   64 1    
   126   62  185 1    
   127   63  186 1    
   128   63  187 1    
   129   63  188 1    
   130   64   65 am   BACKBONE|DICT|INTERRES
   131   64  189 1    
   132   65   66 2    
   133   67   68 2    
   134   67   69 am   BACKBONE|DICT|INTERRES
   135   69   70 1    
   136   69  190 1    
   137   70   71 1    
   138   70   72 1    
   139   70  191 1    
   140   71  192 1    
   141   71  193 1    
   142   71  194 1    
   143   72   73 2    
   144   72   74 am   BACKBONE|DICT|INTERRES
   145   74   75 1    
   146   74  195 1    
   147   75   76 1    
   148   75   77 1    
   149   75  196 1    
   150   76  197 1    
   151   76  198 1    
   152   76  199 1    
   153   77   78 2    
   154   77   79 am   BACKBONE|DICT|INTERRES
   155   79   80 1    
   156   79  200 1    
   157   80   81 1    
   158   80   82 1    
   159   80  201 1    
   160   81  202 1    
   161   81  203 1    
   162   81  204 1    
   163   82   83 2    
   164   82   84 am   BACKBONE|DICT|INTERRES
   165   84   85 1    
   166   84  205 1    
   167   85   86 1    
   168   85   87 1    
   169   85  206 1    
   170   86  207 1    
   171   86  208 1    
   172   86  209 1    
   173   87   88 2    
   174   87   89 am   BACKBONE|DICT|INTERRES
   175   89   90 1    
   176   89  210 1    
   177   90   91 1    
   178   90   92 1    
   179   90  211 1    
   180   91  212 1    
   181   91  213 1    
   182   91  214 1    
   183   92   93 2    
   184   92   94 am   BACKBONE|DICT|INTERRES
   185   94   95 1    
   186   94  215 1    
   187   95   96 1    
   188   95   97 1    
   189   95  216 1    
   190   96  217 1    
   191   96  218 1    
   192   96  219 1    
   193   97   98 2    
   194   97   99 am   BACKBONE|DICT|INTERRES
   195   99  100 1    
   196   99  220 1    
   197  100  101 1    
   198  100  102 1    
   199  100  221 1    
   200  101  222 1    
   201  101  223 1    
   202  101  224 1    
   203  102  103 2    
   204  102  104 am   BACKBONE|DICT|INTERRES
   205  104  105 1    
   206  104  225 1    
   207  105  106 1    
   208  105  107 1    
   209  105  226 1    
   210  106  227 1    
   211  106  228 1    
   212  106  229 1    
   213  107  108 2    
   214  107  109 am   BACKBONE|DICT|INTERRES
   215  109  110 1    
   216  109  230 1    
   217  110  111 1    
   218  110  112 1    
   219  110  231 1    
   220  111  232 1    
   221  111  233 1    
   222  111  234 1    
   223  112  113 2    
   224  112  114 am   BACKBONE|DICT|INTERRES
   225  114  115 1    
   226  114  235 1    
   227  115  116 1    
   228  115  117 1    
   229  115  236 1    
   230  116  237 1    
   231  116  238 1    
   232  116  239 1    
   233  117  118 2    
   234  117  119 am   BACKBONE|DICT|INTERRES
   235  119  120 1    
   236  119  240 1    
   237  120  121 1    
   238  120  124 1    
   239  120  241 1    
   240  121  122 am   BACKBONE|DICT|INTERRES
   241  121  123 2    
   242  122  242 1    
   243  122  243 1    
   244  124  125 1    
   245  124  244 1    
   246  124  245 1    
   247  125  126 1    
   248  126  246 1    
   249  126  247 1    
@<TRIPOS>SUBSTRUCTURE
     1 UNK         1 GROUP             0       ****    0 ROOT    
