@<TRIPOS>MOLECULE
3R540
247   249    1
SMALL
USER_CHARGES


@<TRIPOS>ATOM
      1 CA         -1.2875   -8.0612  -52.3640 C.3       0 UNK        -0.1800 
      2 C          -0.2429   -9.0981  -51.9751 C.2       0 UNK         0.5000 
      3 O           0.9547   -8.8232  -52.0588 O.2       0 UNK        -0.5000 
      4 N          -0.6907  -10.2887  -51.5607 N.am      1 UNK        -0.5000 
      5 CA          0.1528  -11.3830  -51.0712 C.3       1 UNK         0.1400 
      6 C6         -0.5871  -12.7431  -51.1196 C.3       23 UNK        -0.0398 
      7 S7         -2.1813  -12.7855  -50.2233 S.3       23 UNK        -0.2404 
      8 C8         -2.9716  -14.2437  -50.9788 C.3       23 UNK        -0.0205 
      9 C9         -2.1325  -15.4984  -50.7911 C.ar      23 UNK        -0.0193 
     10 C10        -1.4076  -16.0304  -51.8614 C.ar      23 UNK        -0.1150 
     11 C11        -0.5996  -17.1568  -51.6810 C.ar      23 UNK        -0.0193 
     12 C12        -0.5290  -17.7600  -50.4220 C.ar      23 UNK        -0.1150 
     13 C13        -1.2539  -17.2378  -49.3465 C.ar      23 UNK        -0.0193 
     14 C14        -2.0574  -16.1109  -49.5380 C.ar      23 UNK        -0.1150 
     15 C15        -1.1318  -17.8536  -47.9648 C.3       23 UNK        -0.0205 
     16 S16        -2.5471  -18.9125  -47.5597 S.3       23 UNK        -0.2404 
     17 C17        -2.0920  -19.4524  -45.8739 C.3       23 UNK        -0.0398 
     18 CA         -1.5150  -20.8897  -45.8522 C.3       11 UNK         0.1400 
     19 N          -0.5485  -21.0742  -44.7620 N.am      11 UNK        -0.5000 
     20 C           0.2484  -22.1415  -44.6091 C.2       10 UNK         0.5000 
     21 O           0.2835  -23.0791  -45.4064 O.2       10 UNK        -0.5000 
     22 CA          1.0872  -22.2151  -43.3165 C.3       10 UNK         0.1400 
     23 CB          2.4816  -21.6100  -43.5355 C.3       10 UNK        -0.1800 
     24 N           0.4599  -21.5920  -42.1439 N.am      10 UNK        -0.5000 
     25 C          -0.7504  -21.9065  -41.6548 C.2       9 UNK         0.5000 
     26 O          -1.4995  -22.7235  -42.1898 O.2       9 UNK        -0.5000 
     27 CA         -1.1987  -21.1906  -40.3623 C.3       9 UNK         0.1400 
     28 CB         -2.4104  -21.8673  -39.6885 C.3       9 UNK        -0.1800 
     29 N          -0.1099  -21.0070  -39.3998 N.am      9 UNK        -0.5000 
     30 C           0.6766  -21.9536  -38.8600 C.2       8 UNK         0.5000 
     31 O           0.5119  -23.1616  -39.0377 O.2       8 UNK        -0.5000 
     32 CA          1.8503  -21.4698  -37.9747 C.3       8 UNK         0.1400 
     33 CB          3.1055  -22.3525  -38.1356 C.3       8 UNK        -0.1800 
     34 N           2.1913  -20.0514  -38.1557 N.am      8 UNK        -0.5000 
     35 C           2.5916  -19.4543  -39.2871 C.2       7 UNK         0.5000 
     36 O           2.7819  -20.0406  -40.3551 O.2       7 UNK        -0.5000 
     37 CA          2.7235  -17.9237  -39.2277 C.3       7 UNK         0.1400 
     38 CB          4.1840  -17.4913  -39.4226 C.3       7 UNK        -0.1800 
     39 N           1.8755  -17.2907  -40.2389 N.am      7 UNK        -0.5000 
     40 C           0.5345  -17.3753  -40.2741 C.2       6 UNK         0.5000 
     41 O          -0.1290  -17.9640  -39.4187 O.2       6 UNK        -0.5000 
     42 CA         -0.1969  -16.7108  -41.4582 C.3       6 UNK         0.1400 
     43 CB         -0.7590  -15.3442  -41.0411 C.3       6 UNK        -0.1800 
     44 N           0.6661  -16.5476  -42.6281 N.am      6 UNK        -0.5000 
     45 C           1.0491  -17.5623  -43.4169 C.2       5 UNK         0.5000 
     46 O           0.5573  -18.6894  -43.3403 O.2       5 UNK        -0.5000 
     47 CA          2.1665  -17.2987  -44.4513 C.3       5 UNK         0.1400 
     48 CB          1.6554  -17.5019  -45.8815 C.3       5 UNK        -0.1800 
     49 N           2.7809  -15.9724  -44.3592 N.am      5 UNK        -0.5000 
     50 C           3.5860  -15.5627  -43.3703 C.2       4 UNK         0.5000 
     51 O           3.9123  -16.2764  -42.4235 O.2       4 UNK        -0.5000 
     52 CA          4.0620  -14.0972  -43.4149 C.3       4 UNK         0.1400 
     53 CB          5.4349  -14.0018  -44.0972 C.3       4 UNK        -0.1800 
     54 N           3.1355  -13.1746  -44.0805 N.am      4 UNK        -0.5000 
     55 C           1.8543  -12.9631  -43.7419 C.2       3 UNK         0.5000 
     56 O           1.2841  -13.5746  -42.8390 O.2       3 UNK        -0.5000 
     57 CA          1.0738  -11.8990  -44.5390 C.3       3 UNK         0.1400 
     58 CB          0.8175  -10.6597  -43.6675 C.3       3 UNK        -0.1800 
     59 N           1.7471  -11.4776  -45.7709 N.am      3 UNK        -0.5000 
     60 C           1.7769  -12.1886  -46.9045 C.2       2 UNK         0.5000 
     61 O           1.2577  -13.2993  -47.0338 O.2       2 UNK        -0.5000 
     62 CA          2.5663  -11.5690  -48.0721 C.3       2 UNK         0.1400 
     63 CB          3.9544  -12.2191  -48.1818 C.3       2 UNK        -0.1800 
     64 N           1.8678  -11.7125  -49.3491 N.am      2 UNK        -0.5000 
     65 C           0.7311  -11.0798  -49.6695 C.2       1 UNK         0.5000 
     66 O           0.1562  -10.2881  -48.9161 O.2       1 UNK        -0.5000 
     67 C          -2.6405  -21.9560  -45.8878 C.2       11 UNK         0.5000 
     68 O          -3.2778  -22.1176  -46.9297 O.2       11 UNK        -0.5000 
     69 N          -2.8560  -22.7049  -44.7938 N.am      12 UNK        -0.5000 
     70 CA         -3.7816  -23.8411  -44.7565 C.3       12 UNK         0.1400 
     71 CB         -3.9916  -24.3050  -43.3082 C.3       12 UNK        -0.1800 
     72 C          -3.3192  -25.0177  -45.6384 C.2       12 UNK         0.5000 
     73 O          -4.1674  -25.7323  -46.1712 O.2       12 UNK        -0.5000 
     74 N          -1.9989  -25.1711  -45.8311 N.am      13 UNK        -0.5000 
     75 CA         -1.4118  -26.1585  -46.7438 C.3       13 UNK         0.1400 
     76 CB          0.0830  -26.3236  -46.4315 C.3       13 UNK        -0.1800 
     77 C          -1.6209  -25.7839  -48.2247 C.2       13 UNK         0.5000 
     78 O          -1.7183  -26.6721  -49.0712 O.2       13 UNK        -0.5000 
     79 N          -1.7254  -24.4764  -48.5001 N.am      14 UNK        -0.5000 
     80 CA         -2.0938  -23.9110  -49.7993 C.3       14 UNK         0.1400 
     81 CB         -1.4782  -22.5056  -49.9090 C.3       14 UNK        -0.1800 
     82 C          -3.6220  -23.8497  -50.0058 C.2       14 UNK         0.5000 
     83 O          -4.0633  -23.4798  -51.0954 O.2       14 UNK        -0.5000 
     84 N          -4.3905  -24.1835  -48.9567 N.am      15 UNK        -0.5000 
     85 CA         -5.8483  -24.1145  -48.8307 C.3       15 UNK         0.1400 
     86 CB         -6.5288  -25.1518  -49.7434 C.3       15 UNK        -0.1800 
     87 C          -6.3803  -22.6855  -49.0434 C.2       15 UNK         0.5000 
     88 O          -7.3149  -22.4839  -49.8186 O.2       15 UNK        -0.5000 
     89 N          -5.7365  -21.7094  -48.3853 N.am      16 UNK        -0.5000 
     90 CA         -5.9780  -20.2675  -48.5238 C.3       16 UNK         0.1400 
     91 CB         -7.3743  -19.8809  -47.9918 C.3       16 UNK        -0.1800 
     92 C          -5.7136  -19.7807  -49.9657 C.2       16 UNK         0.5000 
     93 O          -6.4910  -18.9978  -50.5129 O.2       16 UNK        -0.5000 
     94 N          -4.6313  -20.3120  -50.5540 N.am      17 UNK        -0.5000 
     95 CA         -4.1416  -20.1365  -51.9262 C.3       17 UNK         0.1400 
     96 CB         -3.9738  -18.6463  -52.2825 C.3       17 UNK        -0.1800 
     97 C          -4.9510  -20.8842  -53.0056 C.2       17 UNK         0.5000 
     98 O          -4.5181  -20.8945  -54.1585 O.2       17 UNK        -0.5000 
     99 N          -6.0844  -21.5066  -52.6496 N.am      18 UNK        -0.5000 
    100 CA        -6.9990  -22.1472  -53.5965 C.3       18 UNK         0.1400 
    101 CB        -8.3582  -22.3869  -52.9232 C.3       18 UNK        -0.1800 
    102 C         -6.4604  -23.4585  -54.1951 C.2       18 UNK         0.5000 
    103 O         -6.7244  -23.7304  -55.3669 O.2       18 UNK        -0.5000 
    104 N         -5.7218  -24.2454  -53.3999 N.am      19 UNK        -0.5000 
    105 CA        -5.1180  -25.5046  -53.8461 C.3       19 UNK         0.1400 
    106 CB        -4.9787  -26.4790  -52.6665 C.3       19 UNK        -0.1800 
    107 C         -3.7574  -25.2683  -54.5168 C.2       19 UNK         0.5000 
    108 O         -3.4077  -25.9908  -55.4508 O.2       19 UNK        -0.5000 
    109 N         -3.0230  -24.2530  -54.0417 N.am      20 UNK        -0.5000 
    110 CA        -1.7537  -23.8174  -54.6239 C.3       20 UNK         0.1400 
    111 CB        -1.0333  -22.8985  -53.6281 C.3       20 UNK        -0.1800 
    112 C         -1.9304  -23.1087  -55.9799 C.2       20 UNK         0.5000 
    113 O         -1.0395  -23.1980  -56.8253 O.2       20 UNK        -0.5000 
    114 N         -3.0661  -22.4112  -56.1475 N.am      21 UNK        -0.5000 
    115 CA        -3.4429  -21.5723  -57.2916 C.3       21 UNK         0.1400 
    116 CB        -3.6309  -22.4245  -58.5641 C.3       21 UNK        -0.1800 
    117 C         -2.4837  -20.3778  -57.4929 C.2       21 UNK         0.5000 
    118 O         -2.2759  -19.9288  -58.6215 O.2       21 UNK        -0.5000 
    119 N         -1.9046  -19.8988  -56.3856 N.am      22 UNK        -0.5000 
    120 CA        -0.8798  -18.8459  -56.3407 C.3       22 UNK         0.1400 
    121 C         -1.4398  -17.3942  -56.2587 C.2       22 UNK         0.5000 
    122 N         -2.7483  -17.1902  -56.1587 N.am      22 UNK        -0.7600 
    123 O         -0.6733  -16.4351  -56.3044 O.2       22 UNK        -0.5000 
    124 C124        0.1695  -19.1494  -55.2397 C.3       23 UNK        -0.0398 
    125 S125       -0.5292  -19.1936  -53.5510 S.3       23 UNK        -0.2404 
    126 C126        0.2196  -17.6972  -52.8407 C.3       23 UNK        -0.0205 
    127 H127       -1.1499   -7.7605  -53.4026 H         1 UNK         0.0600 
    128 H128       -2.3015   -8.4462  -52.2529 H         1 UNK         0.0600 
    129 H129       -1.1894   -7.1762  -51.7354 H         1 UNK         0.0600 
    130 H130       -1.6849  -10.4453  -51.4748 H         1 UNK         0.3000 
    131 H131        1.0040  -11.4604  -51.7517 H         1 UNK         0.0600 
    132 H132       -0.7779  -12.9995  -52.1627 H         1 UNK         0.0800 
    133 H133        0.0499  -13.5414  -50.7342 H         1 UNK         0.0800 
    134 H134       -3.1498  -14.0512  -52.0380 H         1 UNK         0.0800 
    135 H135       -3.9526  -14.3926  -50.5253 H         1 UNK         0.0800 
    136 H136       -1.4599  -15.5589  -52.8328 H         1 UNK         0.1150 
    137 H137        0.0997  -18.6278  -50.2796 H         1 UNK         0.1150 
    138 H138       -2.6080  -15.6964  -48.7051 H         1 UNK         0.1150 
    139 H139       -0.2152  -18.4399  -47.8955 H         1 UNK         0.0800 
    140 H140       -1.0623  -17.0558  -47.2251 H         1 UNK         0.0800 
    141 H141       -1.3635  -18.7452  -45.4752 H         1 UNK         0.0800 
    142 H142       -2.9637  -19.3638  -45.2229 H         1 UNK         0.0800 
    143 H143       -0.9399  -21.0311  -46.7700 H         1 UNK         0.0600 
    144 H144       -0.4664  -20.3257  -44.0816 H         1 UNK         0.3000 
    145 H145        1.2148  -23.2735  -43.0813 H         1 UNK         0.0600 
    146 H146        3.1138  -21.7500  -42.6584 H         1 UNK         0.0600 
    147 H147        2.9857  -22.0842  -44.3784 H         1 UNK         0.0600 
    148 H148        2.4308  -20.5415  -43.7426 H         1 UNK         0.0600 
    149 H149        1.0196  -20.9065  -41.6519 H         1 UNK         0.3000 
    150 H150       -1.5080  -20.1899  -40.6667 H         1 UNK         0.0600 
    151 H151       -3.2695  -21.8906  -40.3600 H         1 UNK         0.0600 
    152 H152       -2.7155  -21.3271  -38.7923 H         1 UNK         0.0600 
    153 H153       -2.1919  -22.8966  -39.4024 H         1 UNK         0.0600 
    154 H154        0.1029  -20.0390  -39.1847 H         1 UNK         0.3000 
    155 H155        1.5075  -21.5697  -36.9442 H         1 UNK         0.0600 
    156 H156        3.9207  -21.9983  -37.5050 H         1 UNK         0.0600 
    157 H157        3.4606  -22.3680  -39.1663 H         1 UNK         0.0600 
    158 H158        2.8998  -23.3838  -37.8470 H         1 UNK         0.0600 
    159 H159        2.0329  -19.4696  -37.3444 H         1 UNK         0.3000 
    160 H160        2.3931  -17.5689  -38.2493 H         1 UNK         0.0600 
    161 H161        4.5882  -17.8534  -40.3686 H         1 UNK         0.0600 
    162 H162        4.8155  -17.8866  -38.6261 H         1 UNK         0.0600 
    163 H163        4.2820  -16.4057  -39.4091 H         1 UNK         0.0600 
    164 H164        2.3599  -16.8418  -41.0068 H         1 UNK         0.3000 
    165 H165       -1.0372  -17.3524  -41.7319 H         1 UNK         0.0600 
    166 H166        0.0299  -14.6703  -40.7053 H         1 UNK         0.0600 
    167 H167       -1.2831  -14.8627  -41.8668 H         1 UNK         0.0600 
    168 H168       -1.4699  -15.4496  -40.2207 H         1 UNK         0.0600 
    169 H169        1.0687  -15.6268  -42.7670 H         1 UNK         0.3000 
    170 H170        2.9428  -18.0434  -44.2643 H         1 UNK         0.0600 
    171 H171        1.1859  -18.4798  -45.9939 H         1 UNK         0.0600 
    172 H172        0.9251  -16.7387  -46.1480 H         1 UNK         0.0600 
    173 H173        2.4709  -17.4504  -46.6030 H         1 UNK         0.0600 
    174 H174        2.5407  -15.3109  -45.0839 H         1 UNK         0.3000 
    175 H175        4.1690  -13.7619  -42.3813 H         1 UNK         0.0600 
    176 H176        5.3821  -14.2882  -45.1484 H         1 UNK         0.0600 
    177 H177        5.8334  -12.9885  -44.0442 H         1 UNK         0.0600 
    178 H178        6.1588  -14.6592  -43.6134 H         1 UNK         0.0600 
    179 H179        3.5168  -12.6230  -44.8340 H         1 UNK         0.3000 
    180 H180        0.1076  -12.3352  -44.8015 H         1 UNK         0.0600 
    181 H181        0.2836  -10.9265  -42.7544 H         1 UNK         0.0600 
    182 H182        1.7488  -10.1744  -43.3730 H         1 UNK         0.0600 
    183 H183        0.2075   -9.9259  -44.1949 H         1 UNK         0.0600 
    184 H184        2.2024  -10.5762  -45.7443 H         1 UNK         0.3000 
    185 H185        2.7022  -10.5022  -47.8820 H         1 UNK         0.0600 
    186 H186        4.5163  -12.1028  -47.2542 H         1 UNK         0.0600 
    187 H187        3.8837  -13.2874  -48.3902 H         1 UNK         0.0600 
    188 H188        4.5438  -11.7603  -48.9759 H         1 UNK         0.0600 
    189 H189        2.2695  -12.3679  -50.0033 H         1 UNK         0.3000 
    190 H190       -2.2982  -22.5532  -43.9576 H         1 UNK         0.3000 
    191 H191       -4.7448  -23.4987  -45.1411 H         1 UNK         0.0600 
    192 H192       -4.7626  -25.0747  -43.2550 H         1 UNK         0.0600 
    193 H193       -4.3092  -23.4807  -42.6692 H         1 UNK         0.0600 
    194 H194       -3.0802  -24.7281  -42.8845 H         1 UNK         0.0600 
    195 H195       -1.3556  -24.5229  -45.3915 H         1 UNK         0.3000 
    196 H196       -1.9016  -27.1194  -46.5707 H         1 UNK         0.0600 
    197 H197        0.5209  -27.1163  -47.0394 H         1 UNK         0.0600 
    198 H198        0.2425  -26.5894  -45.3864 H         1 UNK         0.0600 
    199 H199        0.6424  -25.4103  -46.6360 H         1 UNK         0.0600 
    200 H200       -1.6391  -23.8203  -47.7373 H         1 UNK         0.3000 
    201 H201       -1.6799  -24.5324  -50.5958 H         1 UNK         0.0600 
    202 H202       -0.3953  -22.5396  -49.7879 H         1 UNK         0.0600 
    203 H203       -1.8767  -21.8240  -49.1577 H         1 UNK         0.0600 
    204 H204       -1.6767  -22.0627  -50.8836 H         1 UNK         0.0600 
    205 H205       -3.9109  -24.4719  -48.1157 H         1 UNK         0.3000 
    206 H206       -6.0805  -24.3803  -47.7985 H         1 UNK         0.0600 
    207 H207       -6.0939  -26.1426  -49.6129 H         1 UNK         0.0600 
    208 H208       -7.5926  -25.2290  -49.5164 H         1 UNK         0.0600 
    209 H209       -6.4434  -24.8778  -50.7932 H         1 UNK         0.0600 
    210 H210       -4.9350  -21.9619  -47.8102 H         1 UNK         0.3000 
    211 H211       -5.2459  -19.7720  -47.8884 H         1 UNK         0.0600 
    212 H212       -8.1751  -20.2829  -48.6129 H         1 UNK         0.0600 
    213 H213       -7.4940  -18.7973  -47.9689 H         1 UNK         0.0600 
    214 H214       -7.5226  -20.2449  -46.9752 H         1 UNK         0.0600 
    215 H215       -4.1048  -20.9758  -50.0050 H         1 UNK         0.3000 
    216 H216       -3.1470  -20.5811  -51.9398 H         1 UNK         0.0600 
    217 H217       -4.9321  -18.1419  -52.4053 H         1 UNK         0.0600 
    218 H218       -3.4284  -18.5255  -53.2187 H         1 UNK         0.0600 
    219 H219       -3.4144  -18.1217  -51.5094 H         1 UNK         0.0600 
    220 H220       -6.3657  -21.5003  -51.6775 H         1 UNK         0.3000 
    221 H221       -7.1581  -21.4505  -54.4226 H         1 UNK         0.0600 
    222 H222       -8.2935  -23.1471  -52.1445 H         1 UNK         0.0600 
    223 H223       -8.7458  -21.4734  -52.4717 H         1 UNK         0.0600 
    224 H224       -9.0953  -22.7303  -53.6499 H         1 UNK         0.0600 
    225 H225       -5.4812  -23.9236  -52.4677 H         1 UNK         0.3000 
    226 H226       -5.7709  -25.9773  -54.5832 H         1 UNK         0.0600 
    227 H227       -5.9525  -26.7270  -52.2451 H         1 UNK         0.0600 
    228 H228       -4.5223  -27.4157  -52.9887 H         1 UNK         0.0600 
    229 H229       -4.3559  -26.0726  -51.8703 H         1 UNK         0.0600 
    230 H230       -3.3773  -23.7313  -53.2507 H         1 UNK         0.3000 
    231 H231       -1.1276  -24.6966  -54.7893 H         1 UNK         0.0600 
    232 H232       -1.6488  -22.0402  -53.3587 H         1 UNK         0.0600 
    233 H233       -0.7787  -23.4349  -52.7149 H         1 UNK         0.0600 
    234 H234       -0.1018  -22.5159  -54.0475 H         1 UNK         0.0600 
    235 H235       -3.6979  -22.3425  -55.3575 H         1 UNK         0.3000 
    236 H236       -4.4128  -21.1401  -57.0406 H         1 UNK         0.0600 
    237 H237       -4.3093  -23.2586  -58.3822 H         1 UNK         0.0600 
    238 H238       -4.0586  -21.8301  -59.3722 H         1 UNK         0.0600 
    239 H239       -2.6857  -22.8323  -58.9238 H         1 UNK         0.0600 
    240 H240       -2.1628  -20.3003  -55.4955 H         1 UNK         0.3000 
    241 H241       -0.3379  -18.8769  -57.2880 H         1 UNK         0.0600 
    242 H242       -3.3847  -17.9707  -56.1244 H         1 UNK         0.3800 
    243 H243       -3.1033  -16.2479  -56.1147 H         1 UNK         0.3800 
    244 H244        0.9941  -18.4365  -55.2907 H         1 UNK         0.0800 
    245 H245        0.6219  -20.1229  -55.4334 H         1 UNK         0.0800 
    246 H246        0.3149  -16.9296  -53.6103 H         1 UNK         0.0800 
    247 H247        1.2328  -17.9246  -52.5064 H         1 UNK         0.0800 
@<TRIPOS>BOND
     1    1    2 1    
     2    1  127 1    
     3    1  128 1    
     4    1  129 1    
     5    2    3 2    
     6    2    4 am   BACKBONE|DICT|INTERRES
     7    4    5 1    
     8    4  130 1    
     9    5    6 1    
    10    5   65 1    
    11    5  131 1    
    12    6    7 1    
    13    6  132 1    
    14    6  133 1    
    15    7    8 1    
    16    8    9 1    
    17    8  134 1    
    18    8  135 1    
    19    9   10 ar   
    20    9   14 ar   
    21   10   11 ar   
    22   10  136 1    
    23   11   12 ar   
    24   11  126 1    
    25   12   13 ar   
    26   12  137 1    
    27   13   14 ar   
    28   13   15 1    
    29   14  138 1    
    30   15   16 1    
    31   15  139 1    
    32   15  140 1    
    33   16   17 1    
    34   17   18 1    
    35   17  141 1    
    36   17  142 1    
    37   18   19 1    
    38   18   67 1    
    39   18  143 1    
    40   19   20 am   BACKBONE|DICT|INTERRES
    41   19  144 1    
    42   20   21 2    
    43   20   22 1    
    44   22   23 1    
    45   22   24 1    
    46   22  145 1    
    47   23  146 1    
    48   23  147 1    
    49   23  148 1    
    50   24   25 am   BACKBONE|DICT|INTERRES
    51   24  149 1    
    52   25   26 2    
    53   25   27 1    
    54   27   28 1    
    55   27   29 1    
    56   27  150 1    
    57   28  151 1    
    58   28  152 1    
    59   28  153 1    
    60   29   30 am   BACKBONE|DICT|INTERRES
    61   29  154 1    
    62   30   31 2    
    63   30   32 1    
    64   32   33 1    
    65   32   34 1    
    66   32  155 1    
    67   33  156 1    
    68   33  157 1    
    69   33  158 1    
    70   34   35 am   BACKBONE|DICT|INTERRES
    71   34  159 1    
    72   35   36 2    
    73   35   37 1    
    74   37   38 1    
    75   37   39 1    
    76   37  160 1    
    77   38  161 1    
    78   38  162 1    
    79   38  163 1    
    80   39   40 am   BACKBONE|DICT|INTERRES
    81   39  164 1    
    82   40   41 2    
    83   40   42 1    
    84   42   43 1    
    85   42   44 1    
    86   42  165 1    
    87   43  166 1    
    88   43  167 1    
    89   43  168 1    
    90   44   45 am   BACKBONE|DICT|INTERRES
    91   44  169 1    
    92   45   46 2    
    93   45   47 1    
    94   47   48 1    
    95   47   49 1    
    96   47  170 1    
    97   48  171 1    
    98   48  172 1    
    99   48  173 1    
   100   49   50 am   BACKBONE|DICT|INTERRES
   101   49  174 1    
   102   50   51 2    
   103   50   52 1    
   104   52   53 1    
   105   52   54 1    
   106   52  175 1    
   107   53  176 1    
   108   53  177 1    
   109   53  178 1    
   110   54   55 am   BACKBONE|DICT|INTERRES
   111   54  179 1    
   112   55   56 2    
   113   55   57 1    
   114   57   58 1    
   115   57   59 1    
   116   57  180 1    
   117   58  181 1    
   118   58  182 1    
   119   58  183 1    
   120   59   60 am   BACKBONE|DICT|INTERRES
   121   59  184 1    
   122   60   61 2    
   123   60   62 1    
   124   62   63 1    
   125   62   64 1    
   126   62  185 1    
   127   63  186 1    
   128   63  187 1    
   129   63  188 1    
   130   64   65 am   BACKBONE|DICT|INTERRES
   131   64  189 1    
   132   65   66 2    
   133   67   68 2    
   134   67   69 am   BACKBONE|DICT|INTERRES
   135   69   70 1    
   136   69  190 1    
   137   70   71 1    
   138   70   72 1    
   139   70  191 1    
   140   71  192 1    
   141   71  193 1    
   142   71  194 1    
   143   72   73 2    
   144   72   74 am   BACKBONE|DICT|INTERRES
   145   74   75 1    
   146   74  195 1    
   147   75   76 1    
   148   75   77 1    
   149   75  196 1    
   150   76  197 1    
   151   76  198 1    
   152   76  199 1    
   153   77   78 2    
   154   77   79 am   BACKBONE|DICT|INTERRES
   155   79   80 1    
   156   79  200 1    
   157   80   81 1    
   158   80   82 1    
   159   80  201 1    
   160   81  202 1    
   161   81  203 1    
   162   81  204 1    
   163   82   83 2    
   164   82   84 am   BACKBONE|DICT|INTERRES
   165   84   85 1    
   166   84  205 1    
   167   85   86 1    
   168   85   87 1    
   169   85  206 1    
   170   86  207 1    
   171   86  208 1    
   172   86  209 1    
   173   87   88 2    
   174   87   89 am   BACKBONE|DICT|INTERRES
   175   89   90 1    
   176   89  210 1    
   177   90   91 1    
   178   90   92 1    
   179   90  211 1    
   180   91  212 1    
   181   91  213 1    
   182   91  214 1    
   183   92   93 2    
   184   92   94 am   BACKBONE|DICT|INTERRES
   185   94   95 1    
   186   94  215 1    
   187   95   96 1    
   188   95   97 1    
   189   95  216 1    
   190   96  217 1    
   191   96  218 1    
   192   96  219 1    
   193   97   98 2    
   194   97   99 am   BACKBONE|DICT|INTERRES
   195   99  100 1    
   196   99  220 1    
   197  100  101 1    
   198  100  102 1    
   199  100  221 1    
   200  101  222 1    
   201  101  223 1    
   202  101  224 1    
   203  102  103 2    
   204  102  104 am   BACKBONE|DICT|INTERRES
   205  104  105 1    
   206  104  225 1    
   207  105  106 1    
   208  105  107 1    
   209  105  226 1    
   210  106  227 1    
   211  106  228 1    
   212  106  229 1    
   213  107  108 2    
   214  107  109 am   BACKBONE|DICT|INTERRES
   215  109  110 1    
   216  109  230 1    
   217  110  111 1    
   218  110  112 1    
   219  110  231 1    
   220  111  232 1    
   221  111  233 1    
   222  111  234 1    
   223  112  113 2    
   224  112  114 am   BACKBONE|DICT|INTERRES
   225  114  115 1    
   226  114  235 1    
   227  115  116 1    
   228  115  117 1    
   229  115  236 1    
   230  116  237 1    
   231  116  238 1    
   232  116  239 1    
   233  117  118 2    
   234  117  119 am   BACKBONE|DICT|INTERRES
   235  119  120 1    
   236  119  240 1    
   237  120  121 1    
   238  120  124 1    
   239  120  241 1    
   240  121  122 am   BACKBONE|DICT|INTERRES
   241  121  123 2    
   242  122  242 1    
   243  122  243 1    
   244  124  125 1    
   245  124  244 1    
   246  124  245 1    
   247  125  126 1    
   248  126  246 1    
   249  126  247 1    
@<TRIPOS>SUBSTRUCTURE
     1 UNK         1 GROUP             0       ****    0 ROOT    
