@<TRIPOS>MOLECULE
3R540
247   249    1
SMALL
USER_CHARGES


@<TRIPOS>ATOM
      1 CA         -3.4428   -9.7116  -47.5044 C.3       0 UNK        -0.1800 
      2 C          -2.2560  -10.3061  -48.2498 C.2       0 UNK         0.5000 
      3 O          -1.8212   -9.7453  -49.2561 O.2       0 UNK        -0.5000 
      4 N          -1.7367  -11.4410  -47.7655 N.am      1 UNK        -0.5000 
      5 CA         -0.5569  -12.1193  -48.3066 C.3       1 UNK         0.1400 
      6 C6         -0.4341  -13.5545  -47.7401 C.3       23 UNK        -0.0398 
      7 S7          0.7869  -14.5724  -48.6379 S.3       23 UNK        -0.2404 
      8 C8          0.2942  -16.2434  -48.1069 C.3       23 UNK        -0.0205 
      9 C9         -0.5217  -17.0106  -49.1421 C.ar      23 UNK        -0.0193 
     10 C10        -1.5663  -16.4056  -49.8489 C.ar      23 UNK        -0.1150 
     11 C11        -2.2829  -17.1195  -50.8130 C.ar      23 UNK        -0.0193 
     12 C12        -1.9742  -18.4631  -51.0458 C.ar      23 UNK        -0.1150 
     13 C13        -0.9441  -19.0871  -50.3359 C.ar      23 UNK        -0.0193 
     14 C14        -0.2220  -18.3536  -49.3898 C.ar      23 UNK        -0.1150 
     15 C15        -0.5881  -20.5421  -50.6114 C.3       23 UNK        -0.0205 
     16 S16        -1.7060  -21.6977  -49.7553 S.3       23 UNK        -0.2404 
     17 C17        -1.2676  -21.4135  -48.0049 C.3       23 UNK        -0.0398 
     18 CA         -0.9772  -22.7124  -47.2126 C.3       11 UNK         0.1400 
     19 N          -0.1496  -22.4464  -46.0306 N.am      11 UNK        -0.5000 
     20 C           0.3558  -23.3777  -45.2089 C.2       10 UNK         0.5000 
     21 O           0.2253  -24.5874  -45.3846 O.2       10 UNK        -0.5000 
     22 CA          1.0728  -22.8757  -43.9419 C.3       10 UNK         0.1400 
     23 CB          2.5091  -22.4334  -44.2563 C.3       10 UNK        -0.1800 
     24 N           0.3423  -21.7896  -43.2857 N.am      10 UNK        -0.5000 
     25 C          -0.8797  -21.9264  -42.7496 C.2       9 UNK         0.5000 
     26 O          -1.4797  -22.9993  -42.6893 O.2       9 UNK        -0.5000 
     27 CA         -1.5716  -20.6479  -42.2441 C.3       9 UNK         0.1400 
     28 CB         -1.1028  -20.2963  -40.8247 C.3       9 UNK        -0.1800 
     29 N          -1.3593  -19.5044  -43.1314 N.am      9 UNK        -0.5000 
     30 C          -1.7907  -19.4263  -44.3985 C.2       8 UNK         0.5000 
     31 O          -2.4688  -20.2957  -44.9443 O.2       8 UNK        -0.5000 
     32 CA         -1.3319  -18.2011  -45.2110 C.3       8 UNK         0.1400 
     33 CB         -2.1948  -16.9715  -44.8898 C.3       8 UNK        -0.1800 
     34 N           0.0840  -17.8983  -44.9862 N.am      8 UNK        -0.5000 
     35 C           1.0863  -18.7125  -45.3491 C.2       7 UNK         0.5000 
     36 O           0.9182  -19.7580  -45.9747 O.2       7 UNK        -0.5000 
     37 CA          2.5061  -18.3252  -44.9054 C.3       7 UNK         0.1400 
     38 CB          3.1792  -17.4212  -45.9402 C.3       7 UNK        -0.1800 
     39 N           2.5139  -17.6618  -43.6047 N.am      7 UNK        -0.5000 
     40 C           2.3206  -18.2991  -42.4425 C.2       6 UNK         0.5000 
     41 O           2.1510  -19.5152  -42.3509 O.2       6 UNK        -0.5000 
     42 CA          2.2551  -17.4194  -41.1805 C.3       6 UNK         0.1400 
     43 CB          3.6669  -17.0729  -40.6847 C.3       6 UNK        -0.1800 
     44 N           1.4997  -16.1841  -41.3988 N.am      6 UNK        -0.5000 
     45 C           0.1942  -16.1405  -41.6985 C.2       5 UNK         0.5000 
     46 O          -0.5179  -17.1399  -41.7759 O.2       5 UNK        -0.5000 
     47 CA         -0.4185  -14.7605  -41.9957 C.3       5 UNK         0.1400 
     48 CB         -1.0709  -14.1824  -40.7314 C.3       5 UNK        -0.1800 
     49 N           0.5306  -13.7847  -42.5350 N.am      5 UNK        -0.5000 
     50 C           1.1820  -13.8883  -43.7018 C.2       4 UNK         0.5000 
     51 O           1.0886  -14.8661  -44.4494 O.2       4 UNK        -0.5000 
     52 CA          2.0418  -12.6650  -44.0821 C.3       4 UNK         0.1400 
     53 CB          2.9963  -12.2382  -42.9443 C.3       4 UNK        -0.1800 
     54 N           2.7684  -12.8086  -45.3465 N.am      4 UNK        -0.5000 
     55 C           3.8149  -13.6032  -45.6214 C.2       3 UNK         0.5000 
     56 O           4.3072  -14.3909  -44.8123 O.2       3 UNK        -0.5000 
     57 CA          4.4448  -13.4781  -47.0288 C.3       3 UNK         0.1400 
     58 CB          4.5875  -14.8412  -47.7240 C.3       3 UNK        -0.1800 
     59 N           3.6952  -12.5832  -47.9125 N.am      3 UNK        -0.5000 
     60 C           3.8819  -11.2605  -48.0192 C.2       2 UNK         0.5000 
     61 O           4.7654  -10.6429  -47.4245 O.2       2 UNK        -0.5000 
     62 CA          2.8902  -10.4939  -48.9186 C.3       2 UNK         0.1400 
     63 CB          3.4763  -10.3041  -50.3258 C.3       2 UNK        -0.1800 
     64 N           1.5827  -11.1498  -49.0290 N.am      2 UNK        -0.5000 
     65 C           0.7172  -11.2985  -48.0169 C.2       1 UNK         0.5000 
     66 O           0.9190  -10.8704  -46.8779 O.2       1 UNK        -0.5000 
     67 C          -2.2789  -23.4554  -46.8437 C.2       11 UNK         0.5000 
     68 O          -2.6309  -24.4346  -47.5037 O.2       11 UNK        -0.5000 
     69 N          -2.9523  -23.0004  -45.7771 N.am      12 UNK        -0.5000 
     70 CA         -4.1519  -23.6214  -45.2144 C.3       12 UNK         0.1400 
     71 CB         -4.7334  -22.7284  -44.1090 C.3       12 UNK        -0.1800 
     72 C          -3.9078  -25.0518  -44.7051 C.2       12 UNK         0.5000 
     73 O          -4.7258  -25.9332  -44.9664 O.2       12 UNK        -0.5000 
     74 N          -2.7818  -25.2626  -44.0139 N.am      13 UNK        -0.5000 
     75 CA         -2.3705  -26.5638  -43.4940 C.3       13 UNK         0.1400 
     76 CB         -1.2327  -26.3703  -42.4791 C.3       13 UNK        -0.1800 
     77 C          -1.9533  -27.5494  -44.6009 C.2       13 UNK         0.5000 
     78 O          -2.3909  -28.7007  -44.5826 O.2       13 UNK        -0.5000 
     79 N          -1.0970  -27.0940  -45.5242 N.am      14 UNK        -0.5000 
     80 CA         -0.4508  -27.9458  -46.5211 C.3       14 UNK         0.1400 
     81 CB          0.8896  -27.3162  -46.9318 C.3       14 UNK        -0.1800 
     82 C          -1.3079  -28.2087  -47.7691 C.2       14 UNK         0.5000 
     83 O          -1.2432  -29.3143  -48.3091 O.2       14 UNK        -0.5000 
     84 N          -2.0498  -27.1951  -48.2345 N.am      15 UNK        -0.5000 
     85 CA         -2.6738  -27.1879  -49.5613 C.3       15 UNK         0.1400 
     86 CB         -1.8484  -26.2668  -50.4769 C.3       15 UNK        -0.1800 
     87 C          -4.1570  -26.7781  -49.5420 C.2       15 UNK         0.5000 
     88 O          -4.7367  -26.6026  -50.6139 O.2       15 UNK        -0.5000 
     89 N          -4.7476  -26.6332  -48.3459 N.am      16 UNK        -0.5000 
     90 CA         -6.1333  -26.2099  -48.0949 C.3       16 UNK         0.1400 
     91 CB         -7.1427  -27.2275  -48.6692 C.3       16 UNK        -0.1800 
     92 C          -6.4302  -24.7547  -48.5265 C.2       16 UNK         0.5000 
     93 O          -7.5901  -24.4189  -48.7723 O.2       16 UNK        -0.5000 
     94 N          -5.3789  -23.9209  -48.5595 N.am      17 UNK        -0.5000 
     95 CA         -5.3401  -22.4948  -48.9008 C.3       17 UNK         0.1400 
     96 CB         -6.2867  -21.6703  -48.0029 C.3       17 UNK        -0.1800 
     97 C          -5.5764  -22.1984  -50.3952 C.2       17 UNK         0.5000 
     98 O          -6.0742  -23.0435  -51.1413 O.2       17 UNK        -0.5000 
     99 N          -5.2033  -20.9731  -50.7969 N.am      18 UNK        -0.5000 
    100 CA        -5.3861  -20.3859  -52.1311 C.3       18 UNK         0.1400 
    101 CB        -6.8860  -20.1555  -52.4134 C.3       18 UNK        -0.1800 
    102 C         -4.6709  -21.1563  -53.2644 C.2       18 UNK         0.5000 
    103 O         -5.1580  -21.1744  -54.3954 O.2       18 UNK        -0.5000 
    104 N         -3.5255  -21.7756  -52.9436 N.am      19 UNK        -0.5000 
    105 CA        -2.7295  -22.5789  -53.8778 C.3       19 UNK         0.1400 
    106 CB        -1.8645  -23.5578  -53.0715 C.3       19 UNK        -0.1800 
    107 C         -1.8546  -21.7354  -54.8274 C.2       19 UNK         0.5000 
    108 O         -1.4239  -22.2421  -55.8645 O.2       19 UNK        -0.5000 
    109 N         -1.6024  -20.4743  -54.4554 N.am      20 UNK        -0.5000 
    110 CA        -0.9049  -19.4728  -55.2621 C.3       20 UNK         0.1400 
    111 CB        -0.2517  -18.4596  -54.3048 C.3       20 UNK        -0.1800 
    112 C         -1.8716  -18.7893  -56.2537 C.2       20 UNK         0.5000 
    113 O         -3.0272  -19.2009  -56.3777 O.2       20 UNK        -0.5000 
    114 N         -1.4055  -17.7273  -56.9273 N.am      21 UNK        -0.5000 
    115 CA        -2.1900  -16.9196  -57.8743 C.3       21 UNK         0.1400 
    116 CB        -1.2794  -15.8483  -58.4934 C.3       21 UNK        -0.1800 
    117 C         -3.4492  -16.2686  -57.2589 C.2       21 UNK         0.5000 
    118 O         -4.4359  -16.0578  -57.9649 O.2       21 UNK        -0.5000 
    119 N         -3.3958  -15.9974  -55.9504 N.am      22 UNK        -0.5000 
    120 CA        -4.5239  -15.5905  -55.0988 C.3       22 UNK         0.1400 
    121 C         -5.5017  -16.7417  -54.7097 C.2       22 UNK         0.5000 
    122 N         -5.2545  -17.9946  -55.0713 N.am      22 UNK        -0.7600 
    123 O         -6.5214  -16.4894  -54.0745 O.2       22 UNK        -0.5000 
    124 C124       -4.0398  -14.7906  -53.8568 C.3       23 UNK        -0.0398 
    125 S125       -2.5915  -15.5179  -53.0113 S.3       23 UNK        -0.2404 
    126 C126       -3.3558  -16.4178  -51.6301 C.3       23 UNK        -0.0205 
    127 H127       -3.7255  -10.3167  -46.6426 H         1 UNK         0.0600 
    128 H128       -4.3052   -9.6408  -48.1674 H         1 UNK         0.0600 
    129 H129       -3.1998   -8.7096  -47.1510 H         1 UNK         0.0600 
    130 H130       -2.1204  -11.8332  -46.9179 H         1 UNK         0.3000 
    131 H131       -0.6917  -12.1912  -49.3884 H         1 UNK         0.0600 
    132 H132       -0.1714  -13.5407  -46.6803 H         1 UNK         0.0800 
    133 H133       -1.4020  -14.0532  -47.8009 H         1 UNK         0.0800 
    134 H134        1.2085  -16.7925  -47.8878 H         1 UNK         0.0800 
    135 H135       -0.2617  -16.1896  -47.1726 H         1 UNK         0.0800 
    136 H136       -1.8052  -15.3663  -49.6792 H         1 UNK         0.1150 
    137 H137       -2.5212  -19.0166  -51.7934 H         1 UNK         0.1150 
    138 H138        0.5833  -18.8287  -48.8473 H         1 UNK         0.1150 
    139 H139       -0.6358  -20.7291  -51.6843 H         1 UNK         0.0800 
    140 H140        0.4424  -20.7493  -50.3185 H         1 UNK         0.0800 
    141 H141       -2.0514  -20.8179  -47.5348 H         1 UNK         0.0800 
    142 H142       -0.3761  -20.7894  -47.9854 H         1 UNK         0.0800 
    143 H143       -0.3931  -23.3782  -47.8515 H         1 UNK         0.0600 
    144 H144        0.0532  -21.4703  -45.8340 H         1 UNK         0.3000 
    145 H145        1.1257  -23.7096  -43.2389 H         1 UNK         0.0600 
    146 H146        3.0258  -22.0999  -43.3561 H         1 UNK         0.0600 
    147 H147        3.0852  -23.2589  -44.6758 H         1 UNK         0.0600 
    148 H148        2.5348  -21.6188  -44.9789 H         1 UNK         0.0600 
    149 H149        0.7981  -20.8855  -43.2444 H         1 UNK         0.3000 
    150 H150       -2.6449  -20.8438  -42.2071 H         1 UNK         0.0600 
    151 H151       -1.2693  -21.1292  -40.1406 H         1 UNK         0.0600 
    152 H152       -1.6483  -19.4381  -40.4318 H         1 UNK         0.0600 
    153 H153       -0.0398  -20.0558  -40.7983 H         1 UNK         0.0600 
    154 H154       -0.8593  -18.7121  -42.7358 H         1 UNK         0.3000 
    155 H155       -1.4577  -18.4341  -46.2707 H         1 UNK         0.0600 
    156 H156       -2.2084  -16.7538  -43.8227 H         1 UNK         0.0600 
    157 H157       -3.2278  -17.1375  -45.1975 H         1 UNK         0.0600 
    158 H158       -1.8399  -16.0817  -45.4091 H         1 UNK         0.0600 
    159 H159        0.3069  -17.0408  -44.4974 H         1 UNK         0.3000 
    160 H160        3.0939  -19.2421  -44.8308 H         1 UNK         0.0600 
    161 H161        2.6586  -16.4679  -46.0307 H         1 UNK         0.0600 
    162 H162        3.1960  -17.8910  -46.9243 H         1 UNK         0.0600 
    163 H163        4.2118  -17.2129  -45.6606 H         1 UNK         0.0600 
    164 H164        2.6021  -16.6543  -43.6093 H         1 UNK         0.3000 
    165 H165        1.7486  -17.9928  -40.4012 H         1 UNK         0.0600 
    166 H166        3.6301  -16.5169  -39.7477 H         1 UNK         0.0600 
    167 H167        4.2488  -17.9773  -40.5023 H         1 UNK         0.0600 
    168 H168        4.2140  -16.4710  -41.4115 H         1 UNK         0.0600 
    169 H169        2.0138  -15.3167  -41.3571 H         1 UNK         0.3000 
    170 H170       -1.1994  -14.9036  -42.7443 H         1 UNK         0.0600 
    171 H171       -1.8055  -14.8755  -40.3189 H         1 UNK         0.0600 
    172 H172       -0.3335  -13.9838  -39.9525 H         1 UNK         0.0600 
    173 H173       -1.5929  -13.2499  -40.9469 H         1 UNK         0.0600 
    174 H174        0.6588  -12.9469  -41.9864 H         1 UNK         0.3000 
    175 H175        1.3410  -11.8455  -44.2474 H         1 UNK         0.0600 
    176 H176        3.6384  -13.0582  -42.6213 H         1 UNK         0.0600 
    177 H177        3.6391  -11.4157  -43.2586 H         1 UNK         0.0600 
    178 H178        2.4465  -11.8915  -42.0691 H         1 UNK         0.0600 
    179 H179        2.4272  -12.2126  -46.0897 H         1 UNK         0.3000 
    180 H180        5.4506  -13.0786  -46.8841 H         1 UNK         0.0600 
    181 H181        3.6194  -15.3083  -47.9010 H         1 UNK         0.0600 
    182 H182        5.1863  -15.5276  -47.1250 H         1 UNK         0.0600 
    183 H183        5.0873  -14.7390  -48.6873 H         1 UNK         0.0600 
    184 H184        2.9378  -13.0039  -48.4328 H         1 UNK         0.3000 
    185 H185        2.7375   -9.5079  -48.4747 H         1 UNK         0.0600 
    186 H186        4.4395   -9.7940  -50.2822 H         1 UNK         0.0600 
    187 H187        3.6331  -11.2590  -50.8291 H         1 UNK         0.0600 
    188 H188        2.8180   -9.6989  -50.9494 H         1 UNK         0.0600 
    189 H189        1.3499  -11.5345  -49.9336 H         1 UNK         0.3000 
    190 H190       -2.6271  -22.1511  -45.3221 H         1 UNK         0.3000 
    191 H191       -4.8978  -23.6859  -46.0033 H         1 UNK         0.0600 
    192 H192       -4.9600  -21.7311  -44.4865 H         1 UNK         0.0600 
    193 H193       -5.6614  -23.1474  -43.7184 H         1 UNK         0.0600 
    194 H194       -4.0458  -22.6203  -43.2711 H         1 UNK         0.0600 
    195 H195       -2.1852  -24.4706  -43.7934 H         1 UNK         0.3000 
    196 H196       -3.2200  -27.0000  -42.9640 H         1 UNK         0.0600 
    197 H197       -0.9110  -27.3263  -42.0642 H         1 UNK         0.0600 
    198 H198       -1.5520  -25.7443  -41.6457 H         1 UNK         0.0600 
    199 H199       -0.3613  -25.8984  -42.9343 H         1 UNK         0.0600 
    200 H200       -0.7593  -26.1353  -45.4602 H         1 UNK         0.3000 
    201 H201       -0.2305  -28.9127  -46.0630 H         1 UNK         0.0600 
    202 H202        1.5364  -27.1654  -46.0673 H         1 UNK         0.0600 
    203 H203        0.7482  -26.3494  -47.4169 H         1 UNK         0.0600 
    204 H204        1.4257  -27.9585  -47.6316 H         1 UNK         0.0600 
    205 H205       -2.0646  -26.3093  -47.7369 H         1 UNK         0.3000 
    206 H206       -2.6573  -28.1890  -49.9961 H         1 UNK         0.0600 
    207 H207       -0.7998  -26.5639  -50.4963 H         1 UNK         0.0600 
    208 H208       -2.2121  -26.3108  -51.5037 H         1 UNK         0.0600 
    209 H209       -1.8961  -25.2274  -50.1486 H         1 UNK         0.0600 
    210 H210       -4.1852  -26.7936  -47.5214 H         1 UNK         0.3000 
    211 H211       -6.2598  -26.2229  -47.0131 H         1 UNK         0.0600 
    212 H212       -7.1628  -27.2114  -49.7590 H         1 UNK         0.0600 
    213 H213       -8.1541  -27.0109  -48.3237 H         1 UNK         0.0600 
    214 H214       -6.9043  -28.2425  -48.3513 H         1 UNK         0.0600 
    215 H215       -4.4719  -24.3260  -48.3518 H         1 UNK         0.3000 
    216 H216       -4.3246  -22.1768  -48.6715 H         1 UNK         0.0600 
    217 H217       -6.1248  -20.6009  -48.1402 H         1 UNK         0.0600 
    218 H218       -6.1234  -21.8829  -46.9472 H         1 UNK         0.0600 
    219 H219       -7.3355  -21.8662  -48.2267 H         1 UNK         0.0600 
    220 H220       -4.7844  -20.3584  -50.1131 H         1 UNK         0.3000 
    221 H221       -4.9134  -19.4045  -52.0975 H         1 UNK         0.0600 
    222 H222       -7.4256  -21.0963  -52.5256 H         1 UNK         0.0600 
    223 H223       -7.3565  -19.5938  -51.6063 H         1 UNK         0.0600 
    224 H224       -7.0346  -19.5834  -53.3291 H         1 UNK         0.0600 
    225 H225       -3.2091  -21.7461  -51.9847 H         1 UNK         0.3000 
    226 H226       -3.4112  -23.1663  -54.4967 H         1 UNK         0.0600 
    227 H227       -2.4818  -24.1540  -52.4010 H         1 UNK         0.0600 
    228 H228       -1.3364  -24.2479  -53.7305 H         1 UNK         0.0600 
    229 H229       -1.1161  -23.0415  -52.4705 H         1 UNK         0.0600 
    230 H230       -2.0493  -20.1407  -53.6175 H         1 UNK         0.3000 
    231 H231       -0.1184  -19.9593  -55.8425 H         1 UNK         0.0600 
    232 H232       -0.9987  -17.8894  -53.7540 H         1 UNK         0.0600 
    233 H233        0.3785  -17.7483  -54.8389 H         1 UNK         0.0600 
    234 H234        0.3849  -18.9608  -53.5753 H         1 UNK         0.0600 
    235 H235       -0.4490  -17.4385  -56.7812 H         1 UNK         0.3000 
    236 H236       -2.5270  -17.5843  -58.6724 H         1 UNK         0.0600 
    237 H237       -0.4353  -16.3000  -59.0148 H         1 UNK         0.0600 
    238 H238       -1.8240  -15.2455  -59.2215 H         1 UNK         0.0600 
    239 H239       -0.8842  -15.1701  -57.7360 H         1 UNK         0.0600 
    240 H240       -2.5398  -16.1990  -55.4548 H         1 UNK         0.3000 
    241 H241       -5.1353  -14.9050  -55.6885 H         1 UNK         0.0600 
    242 H242       -5.9138  -18.7177  -54.8356 H         1 UNK         0.3800 
    243 H243       -4.4291  -18.2497  -55.6071 H         1 UNK         0.3800 
    244 H244       -3.7400  -13.7941  -54.1833 H         1 UNK         0.0800 
    245 H245       -4.8466  -14.6229  -53.1410 H         1 UNK         0.0800 
    246 H246       -4.0781  -17.1377  -52.0156 H         1 UNK         0.0800 
    247 H247       -3.9113  -15.7221  -50.9994 H         1 UNK         0.0800 
@<TRIPOS>BOND
     1    1    2 1    
     2    1  127 1    
     3    1  128 1    
     4    1  129 1    
     5    2    3 2    
     6    2    4 am   BACKBONE|DICT|INTERRES
     7    4    5 1    
     8    4  130 1    
     9    5    6 1    
    10    5   65 1    
    11    5  131 1    
    12    6    7 1    
    13    6  132 1    
    14    6  133 1    
    15    7    8 1    
    16    8    9 1    
    17    8  134 1    
    18    8  135 1    
    19    9   10 ar   
    20    9   14 ar   
    21   10   11 ar   
    22   10  136 1    
    23   11   12 ar   
    24   11  126 1    
    25   12   13 ar   
    26   12  137 1    
    27   13   14 ar   
    28   13   15 1    
    29   14  138 1    
    30   15   16 1    
    31   15  139 1    
    32   15  140 1    
    33   16   17 1    
    34   17   18 1    
    35   17  141 1    
    36   17  142 1    
    37   18   19 1    
    38   18   67 1    
    39   18  143 1    
    40   19   20 am   BACKBONE|DICT|INTERRES
    41   19  144 1    
    42   20   21 2    
    43   20   22 1    
    44   22   23 1    
    45   22   24 1    
    46   22  145 1    
    47   23  146 1    
    48   23  147 1    
    49   23  148 1    
    50   24   25 am   BACKBONE|DICT|INTERRES
    51   24  149 1    
    52   25   26 2    
    53   25   27 1    
    54   27   28 1    
    55   27   29 1    
    56   27  150 1    
    57   28  151 1    
    58   28  152 1    
    59   28  153 1    
    60   29   30 am   BACKBONE|DICT|INTERRES
    61   29  154 1    
    62   30   31 2    
    63   30   32 1    
    64   32   33 1    
    65   32   34 1    
    66   32  155 1    
    67   33  156 1    
    68   33  157 1    
    69   33  158 1    
    70   34   35 am   BACKBONE|DICT|INTERRES
    71   34  159 1    
    72   35   36 2    
    73   35   37 1    
    74   37   38 1    
    75   37   39 1    
    76   37  160 1    
    77   38  161 1    
    78   38  162 1    
    79   38  163 1    
    80   39   40 am   BACKBONE|DICT|INTERRES
    81   39  164 1    
    82   40   41 2    
    83   40   42 1    
    84   42   43 1    
    85   42   44 1    
    86   42  165 1    
    87   43  166 1    
    88   43  167 1    
    89   43  168 1    
    90   44   45 am   BACKBONE|DICT|INTERRES
    91   44  169 1    
    92   45   46 2    
    93   45   47 1    
    94   47   48 1    
    95   47   49 1    
    96   47  170 1    
    97   48  171 1    
    98   48  172 1    
    99   48  173 1    
   100   49   50 am   BACKBONE|DICT|INTERRES
   101   49  174 1    
   102   50   51 2    
   103   50   52 1    
   104   52   53 1    
   105   52   54 1    
   106   52  175 1    
   107   53  176 1    
   108   53  177 1    
   109   53  178 1    
   110   54   55 am   BACKBONE|DICT|INTERRES
   111   54  179 1    
   112   55   56 2    
   113   55   57 1    
   114   57   58 1    
   115   57   59 1    
   116   57  180 1    
   117   58  181 1    
   118   58  182 1    
   119   58  183 1    
   120   59   60 am   BACKBONE|DICT|INTERRES
   121   59  184 1    
   122   60   61 2    
   123   60   62 1    
   124   62   63 1    
   125   62   64 1    
   126   62  185 1    
   127   63  186 1    
   128   63  187 1    
   129   63  188 1    
   130   64   65 am   BACKBONE|DICT|INTERRES
   131   64  189 1    
   132   65   66 2    
   133   67   68 2    
   134   67   69 am   BACKBONE|DICT|INTERRES
   135   69   70 1    
   136   69  190 1    
   137   70   71 1    
   138   70   72 1    
   139   70  191 1    
   140   71  192 1    
   141   71  193 1    
   142   71  194 1    
   143   72   73 2    
   144   72   74 am   BACKBONE|DICT|INTERRES
   145   74   75 1    
   146   74  195 1    
   147   75   76 1    
   148   75   77 1    
   149   75  196 1    
   150   76  197 1    
   151   76  198 1    
   152   76  199 1    
   153   77   78 2    
   154   77   79 am   BACKBONE|DICT|INTERRES
   155   79   80 1    
   156   79  200 1    
   157   80   81 1    
   158   80   82 1    
   159   80  201 1    
   160   81  202 1    
   161   81  203 1    
   162   81  204 1    
   163   82   83 2    
   164   82   84 am   BACKBONE|DICT|INTERRES
   165   84   85 1    
   166   84  205 1    
   167   85   86 1    
   168   85   87 1    
   169   85  206 1    
   170   86  207 1    
   171   86  208 1    
   172   86  209 1    
   173   87   88 2    
   174   87   89 am   BACKBONE|DICT|INTERRES
   175   89   90 1    
   176   89  210 1    
   177   90   91 1    
   178   90   92 1    
   179   90  211 1    
   180   91  212 1    
   181   91  213 1    
   182   91  214 1    
   183   92   93 2    
   184   92   94 am   BACKBONE|DICT|INTERRES
   185   94   95 1    
   186   94  215 1    
   187   95   96 1    
   188   95   97 1    
   189   95  216 1    
   190   96  217 1    
   191   96  218 1    
   192   96  219 1    
   193   97   98 2    
   194   97   99 am   BACKBONE|DICT|INTERRES
   195   99  100 1    
   196   99  220 1    
   197  100  101 1    
   198  100  102 1    
   199  100  221 1    
   200  101  222 1    
   201  101  223 1    
   202  101  224 1    
   203  102  103 2    
   204  102  104 am   BACKBONE|DICT|INTERRES
   205  104  105 1    
   206  104  225 1    
   207  105  106 1    
   208  105  107 1    
   209  105  226 1    
   210  106  227 1    
   211  106  228 1    
   212  106  229 1    
   213  107  108 2    
   214  107  109 am   BACKBONE|DICT|INTERRES
   215  109  110 1    
   216  109  230 1    
   217  110  111 1    
   218  110  112 1    
   219  110  231 1    
   220  111  232 1    
   221  111  233 1    
   222  111  234 1    
   223  112  113 2    
   224  112  114 am   BACKBONE|DICT|INTERRES
   225  114  115 1    
   226  114  235 1    
   227  115  116 1    
   228  115  117 1    
   229  115  236 1    
   230  116  237 1    
   231  116  238 1    
   232  116  239 1    
   233  117  118 2    
   234  117  119 am   BACKBONE|DICT|INTERRES
   235  119  120 1    
   236  119  240 1    
   237  120  121 1    
   238  120  124 1    
   239  120  241 1    
   240  121  122 am   BACKBONE|DICT|INTERRES
   241  121  123 2    
   242  122  242 1    
   243  122  243 1    
   244  124  125 1    
   245  124  244 1    
   246  124  245 1    
   247  125  126 1    
   248  126  246 1    
   249  126  247 1    
@<TRIPOS>SUBSTRUCTURE
     1 UNK         1 GROUP             0       ****    0 ROOT    
