@<TRIPOS>MOLECULE
3R540
247   249    1
SMALL
USER_CHARGES


@<TRIPOS>ATOM
      1 CA         -3.0409  -15.2611  -41.6498 C.3       0 UNK        -0.1800 
      2 C          -3.1166  -14.0245  -42.5359 C.2       0 UNK         0.5000 
      3 O          -3.1400  -12.9022  -42.0317 O.2       0 UNK        -0.5000 
      4 N          -3.1781  -14.2356  -43.8531 N.am      1 UNK        -0.5000 
      5 CA         -3.1955  -13.2063  -44.8959 C.3       1 UNK         0.1400 
      6 C6         -3.7686  -13.7657  -46.2276 C.3       23 UNK        -0.0398 
      7 S7         -3.1392  -15.4212  -46.6914 S.3       23 UNK        -0.2404 
      8 C8         -2.4775  -15.1383  -48.3585 C.3       23 UNK        -0.0205 
      9 C9         -2.0738  -16.4535  -49.0095 C.ar      23 UNK        -0.0193 
     10 C10        -3.0348  -17.2468  -49.6452 C.ar      23 UNK        -0.1150 
     11 C11        -2.6722  -18.4543  -50.2497 C.ar      23 UNK        -0.0193 
     12 C12        -1.3364  -18.8618  -50.2247 C.ar      23 UNK        -0.1150 
     13 C13        -0.3688  -18.0848  -49.5838 C.ar      23 UNK        -0.0193 
     14 C14        -0.7431  -16.8814  -48.9772 C.ar      23 UNK        -0.1150 
     15 C15         1.0827  -18.5356  -49.5582 C.3       23 UNK        -0.0205 
     16 S16         1.4546  -19.5576  -48.0989 S.3       23 UNK        -0.2404 
     17 C17         0.9360  -21.2238  -48.6268 C.3       23 UNK        -0.0398 
     18 CA         -0.0777  -21.9379  -47.6972 C.3       11 UNK         0.1400 
     19 N           0.2753  -21.8882  -46.2753 N.am      11 UNK        -0.5000 
     20 C          -0.1715  -22.7716  -45.3716 C.2       10 UNK         0.5000 
     21 O          -0.9106  -23.7166  -45.6522 O.2       10 UNK        -0.5000 
     22 CA          0.2459  -22.5412  -43.9096 C.3       10 UNK         0.1400 
     23 CB          1.7283  -22.8832  -43.6961 C.3       10 UNK        -0.1800 
     24 N          -0.0152  -21.1708  -43.4710 N.am      10 UNK        -0.5000 
     25 C          -1.2436  -20.6674  -43.2769 C.2       9 UNK         0.5000 
     26 O          -2.2771  -21.3131  -43.4478 O.2       9 UNK        -0.5000 
     27 CA         -1.3466  -19.1896  -42.8465 C.3       9 UNK         0.1400 
     28 CB         -1.3368  -19.0781  -41.3147 C.3       9 UNK        -0.1800 
     29 N          -0.3000  -18.3290  -43.3998 N.am      9 UNK        -0.5000 
     30 C          -0.0355  -18.1858  -44.7065 C.2       8 UNK         0.5000 
     31 O          -0.6707  -18.7514  -45.5931 O.2       8 UNK        -0.5000 
     32 CA          1.1659  -17.3068  -45.0884 C.3       8 UNK         0.1400 
     33 CB          0.7195  -15.8594  -45.2974 C.3       8 UNK        -0.1800 
     34 N           2.2562  -17.3358  -44.1157 N.am      8 UNK        -0.5000 
     35 C           2.9533  -18.4221  -43.7553 C.2       7 UNK         0.5000 
     36 O           2.7176  -19.5596  -44.1640 O.2       7 UNK        -0.5000 
     37 CA          4.0890  -18.1930  -42.7467 C.3       7 UNK         0.1400 
     38 CB          5.3222  -17.5932  -43.4407 C.3       7 UNK        -0.1800 
     39 N           3.6552  -17.3014  -41.6727 N.am      7 UNK        -0.5000 
     40 C           3.0554  -17.7133  -40.5484 C.2       6 UNK         0.5000 
     41 O           2.8699  -18.8975  -40.2657 O.2       6 UNK        -0.5000 
     42 CA          2.5727  -16.6217  -39.5729 C.3       6 UNK         0.1400 
     43 CB          3.6638  -16.3038  -38.5393 C.3       6 UNK        -0.1800 
     44 N           2.1614  -15.3795  -40.2307 N.am      6 UNK        -0.5000 
     45 C           1.1062  -15.2663  -41.0485 C.2       5 UNK         0.5000 
     46 O           0.3814  -16.2088  -41.3664 O.2       5 UNK        -0.5000 
     47 CA          0.8377  -13.8697  -41.6376 C.3       5 UNK         0.1400 
     48 CB          0.0983  -12.9878  -40.6198 C.3       5 UNK        -0.1800 
     49 N           2.0243  -13.1468  -42.1049 N.am      5 UNK        -0.5000 
     50 C           2.9938  -13.6059  -42.9077 C.2       4 UNK         0.5000 
     51 O           3.1016  -14.7855  -43.2453 O.2       4 UNK        -0.5000 
     52 CA          4.0035  -12.5622  -43.4290 C.3       4 UNK         0.1400 
     53 CB          4.8612  -13.1053  -44.5866 C.3       4 UNK        -0.1800 
     54 N           3.3346  -11.3378  -43.8770 N.am      4 UNK        -0.5000 
     55 C           3.0168  -10.2934  -43.1007 C.2       3 UNK         0.5000 
     56 O           3.2363  -10.2559  -41.8899 O.2       3 UNK        -0.5000 
     57 CA          2.3075   -9.1107  -43.7856 C.3       3 UNK         0.1400 
     58 CB          3.3371   -8.1301  -44.3678 C.3       3 UNK        -0.1800 
     59 N           1.3936   -9.5385  -44.8481 N.am      3 UNK        -0.5000 
     60 C           0.2039  -10.1176  -44.6342 C.2       2 UNK         0.5000 
     61 O          -0.2611  -10.3021  -43.5069 O.2       2 UNK        -0.5000 
     62 CA         -0.6104  -10.4992  -45.8935 C.3       2 UNK         0.1400 
     63 CB          0.2584  -11.1669  -46.9846 C.3       2 UNK        -0.1800 
     64 N          -1.7934  -11.3220  -45.6030 N.am      2 UNK        -0.5000 
     65 C          -1.8055  -12.5613  -45.0893 C.2       1 UNK         0.5000 
     66 O          -0.7880  -13.1915  -44.8031 O.2       1 UNK        -0.5000 
     67 C          -1.5456  -21.5416  -47.9533 C.2       11 UNK         0.5000 
     68 O          -2.1521  -22.0859  -48.8744 O.2       11 UNK        -0.5000 
     69 N          -2.1217  -20.6747  -47.1089 N.am      12 UNK        -0.5000 
     70 CA         -3.5476  -20.3472  -47.1160 C.3       12 UNK         0.1400 
     71 CB         -3.8153  -19.1572  -46.1871 C.3       12 UNK        -0.1800 
     72 C          -4.4354  -21.5450  -46.7347 C.2       12 UNK         0.5000 
     73 O          -5.4714  -21.7493  -47.3675 O.2       12 UNK        -0.5000 
     74 N          -4.0080  -22.3258  -45.7308 N.am      13 UNK        -0.5000 
     75 CA         -4.6806  -23.5516  -45.2962 C.3       13 UNK         0.1400 
     76 CB         -4.1115  -24.0062  -43.9438 C.3       13 UNK        -0.1800 
     77 C          -4.5833  -24.6807  -46.3381 C.2       13 UNK         0.5000 
     78 O          -5.5669  -25.3892  -46.5560 O.2       13 UNK        -0.5000 
     79 N          -3.4106  -24.8167  -46.9738 N.am      14 UNK        -0.5000 
     80 CA         -3.1697  -25.7556  -48.0727 C.3       14 UNK         0.1400 
     81 CB         -1.6605  -25.8471  -48.3293 C.3       14 UNK        -0.1800 
     82 C          -3.9162  -25.3720  -49.3660 C.2       14 UNK         0.5000 
     83 O          -4.3275  -26.2593  -50.1154 O.2       14 UNK        -0.5000 
     84 N          -4.0808  -24.0611  -49.5933 N.am      15 UNK        -0.5000 
     85 CA         -4.7599  -23.4256  -50.7202 C.3       15 UNK         0.1400 
     86 CB         -6.2844  -23.6605  -50.6377 C.3       15 UNK        -0.1800 
     87 C          -4.1165  -23.8322  -52.0594 C.2       15 UNK         0.5000 
     88 O          -2.9111  -23.6346  -52.2272 O.2       15 UNK        -0.5000 
     89 N          -4.9109  -24.4166  -52.9670 N.am      16 UNK        -0.5000 
     90 CA         -4.5265  -24.8483  -54.3138 C.3       16 UNK         0.1400 
     91 CB         -5.7469  -25.4806  -54.9992 C.3       16 UNK        -0.1800 
     92 C          -3.3267  -25.8151  -54.3717 C.2       16 UNK         0.5000 
     93 O          -2.6360  -25.8563  -55.3900 O.2       16 UNK        -0.5000 
     94 N          -3.0916  -26.5643  -53.2850 N.am      17 UNK        -0.5000 
     95 CA         -1.9545  -27.4714  -53.1360 C.3       17 UNK         0.1400 
     96 CB         -2.2220  -28.4208  -51.9583 C.3       17 UNK        -0.1800 
     97 C          -0.6081  -26.7433  -52.9472 C.2       17 UNK         0.5000 
     98 O           0.4298  -27.3291  -53.2588 O.2       17 UNK        -0.5000 
     99 N          -0.6385  -25.5016  -52.4426 N.am      18 UNK        -0.5000 
    100 CA         0.5456  -24.6725  -52.2135 C.3       18 UNK         0.1400 
    101 CB         0.5116  -24.1198  -50.7821 C.3       18 UNK        -0.1800 
    102 C          0.6400  -23.5225  -53.2269 C.2       18 UNK         0.5000 
    103 O          1.7365  -23.2339  -53.7078 O.2       18 UNK        -0.5000 
    104 N         -0.4964  -22.8887  -53.5350 N.am      19 UNK        -0.5000 
    105 CA        -0.6058  -21.7682  -54.4585 C.3       19 UNK         0.1400 
    106 CB        -0.6837  -20.4572  -53.6574 C.3       19 UNK        -0.1800 
    107 C         -1.8557  -21.9920  -55.3134 C.2       19 UNK         0.5000 
    108 O         -2.9657  -21.7541  -54.8403 O.2       19 UNK        -0.5000 
    109 N         -1.6600  -22.4567  -56.5542 N.am      20 UNK        -0.5000 
    110 CA        -2.7131  -22.8491  -57.5013 C.3       20 UNK         0.1400 
    111 CB        -2.0502  -23.3960  -58.7750 C.3       20 UNK        -0.1800 
    112 C         -3.7326  -21.7451  -57.8569 C.2       20 UNK         0.5000 
    113 O         -4.8308  -22.0634  -58.3139 O.2       20 UNK        -0.5000 
    114 N         -3.3603  -20.4768  -57.6397 N.am      21 UNK        -0.5000 
    115 CA        -4.2302  -19.3106  -57.7880 C.3       21 UNK         0.1400 
    116 CB        -3.3593  -18.0447  -57.8020 C.3       21 UNK        -0.1800 
    117 C         -5.3120  -19.2057  -56.6921 C.2       21 UNK         0.5000 
    118 O         -6.3407  -18.5705  -56.9295 O.2       21 UNK        -0.5000 
    119 N         -5.0680  -19.8043  -55.5188 N.am      22 UNK        -0.5000 
    120 CA        -6.0079  -19.8395  -54.3908 C.3       22 UNK         0.1400 
    121 C         -7.1451  -20.8696  -54.6259 C.2       22 UNK         0.5000 
    122 N         -8.3817  -20.5259  -54.2923 N.am      22 UNK        -0.7600 
    123 O         -6.9120  -21.9938  -55.0620 O.2       22 UNK        -0.5000 
    124 C124       -5.2871  -20.1329  -53.0527 C.3       23 UNK        -0.0398 
    125 S125       -4.0670  -18.8514  -52.6103 S.3       23 UNK        -0.2404 
    126 C126       -3.7246  -19.3404  -50.8954 C.3       23 UNK        -0.0205 
    127 H127       -2.9496  -16.1750  -42.2379 H         1 UNK         0.0600 
    128 H128       -3.9383  -15.3388  -41.0362 H         1 UNK         0.0600 
    129 H129       -2.1793  -15.2044  -40.9865 H         1 UNK         0.0600 
    130 H130       -3.1211  -15.1795  -44.2083 H         1 UNK         0.3000 
    131 H131       -3.8667  -12.4133  -44.5590 H         1 UNK         0.0600 
    132 H132       -4.8506  -13.8604  -46.1285 H         1 UNK         0.0800 
    133 H133       -3.6188  -13.0624  -47.0487 H         1 UNK         0.0800 
    134 H134       -3.2304  -14.6422  -48.9728 H         1 UNK         0.0800 
    135 H135       -1.6242  -14.4605  -48.2989 H         1 UNK         0.0800 
    136 H136       -4.0676  -16.9284  -49.6610 H         1 UNK         0.1150 
    137 H137       -1.0548  -19.7952  -50.6895 H         1 UNK         0.1150 
    138 H138        0.0026  -16.2785  -48.4788 H         1 UNK         0.1150 
    139 H139        1.3342  -19.0763  -50.4719 H         1 UNK         0.0800 
    140 H140        1.7340  -17.6605  -49.5406 H         1 UNK         0.0800 
    141 H141        0.5636  -21.1967  -49.6516 H         1 UNK         0.0800 
    142 H142        1.8450  -21.8247  -48.6725 H         1 UNK         0.0800 
    143 H143       -0.0221  -22.9898  -47.9831 H         1 UNK         0.0600 
    144 H144        0.8384  -21.1038  -45.9758 H         1 UNK         0.3000 
    145 H145       -0.3456  -23.2147  -43.2855 H         1 UNK         0.0600 
    146 H146        2.0129  -22.7670  -42.6502 H         1 UNK         0.0600 
    147 H147        1.9326  -23.9174  -43.9760 H         1 UNK         0.0600 
    148 H148        2.3825  -22.2475  -44.2933 H         1 UNK         0.0600 
    149 H149        0.7862  -20.5606  -43.3710 H         1 UNK         0.3000 
    150 H150       -2.3037  -18.8098  -43.2073 H         1 UNK         0.0600 
    151 H151       -2.0878  -19.7310  -40.8680 H         1 UNK         0.0600 
    152 H152       -1.5616  -18.0617  -40.9919 H         1 UNK         0.0600 
    153 H153       -0.3673  -19.3553  -40.8984 H         1 UNK         0.0600 
    154 H154        0.2319  -17.7774  -42.7351 H         1 UNK         0.3000 
    155 H155        1.5651  -17.6728  -46.0327 H         1 UNK         0.0600 
    156 H156        1.5357  -15.2352  -45.6611 H         1 UNK         0.0600 
    157 H157        0.3596  -15.4321  -44.3628 H         1 UNK         0.0600 
    158 H158       -0.0919  -15.7950  -46.0231 H         1 UNK         0.0600 
    159 H159        2.5342  -16.4336  -43.7351 H         1 UNK         0.3000 
    160 H160        4.3754  -19.1619  -42.3317 H         1 UNK         0.0600 
    161 H161        5.1079  -16.6183  -43.8803 H         1 UNK         0.0600 
    162 H162        5.6727  -18.2446  -44.2423 H         1 UNK         0.0600 
    163 H163        6.1465  -17.4691  -42.7384 H         1 UNK         0.0600 
    164 H164        3.7013  -16.3081  -41.8638 H         1 UNK         0.3000 
    165 H165        1.7056  -17.0198  -39.0416 H         1 UNK         0.0600 
    166 H166        4.5499  -15.8746  -39.0087 H         1 UNK         0.0600 
    167 H167        3.3044  -15.5984  -37.7899 H         1 UNK         0.0600 
    168 H168        3.9762  -17.2057  -38.0111 H         1 UNK         0.0600 
    169 H169        2.7139  -14.5563  -40.0411 H         1 UNK         0.3000 
    170 H170        0.1835  -14.0062  -42.4986 H         1 UNK         0.0600 
    171 H171       -0.7756  -13.4954  -40.2119 H         1 UNK         0.0600 
    172 H172        0.7395  -12.7167  -39.7803 H         1 UNK         0.0600 
    173 H173       -0.2541  -12.0668  -41.0854 H         1 UNK         0.0600 
    174 H174        2.0542  -12.1614  -41.8782 H         1 UNK         0.3000 
    175 H175        4.6755  -12.3259  -42.6015 H         1 UNK         0.0600 
    176 H176        5.5760  -12.3584  -44.9322 H         1 UNK         0.0600 
    177 H177        5.4347  -13.9790  -44.2744 H         1 UNK         0.0600 
    178 H178        4.2466  -13.4020  -45.4375 H         1 UNK         0.0600 
    179 H179        3.0685  -11.3058  -44.8499 H         1 UNK         0.3000 
    180 H180        1.7311   -8.5819  -43.0233 H         1 UNK         0.0600 
    181 H181        2.8494   -7.2526  -44.7928 H         1 UNK         0.0600 
    182 H182        4.0205   -7.7774  -43.5941 H         1 UNK         0.0600 
    183 H183        3.9389   -8.5928  -45.1510 H         1 UNK         0.0600 
    184 H184        1.7010   -9.3869  -45.7977 H         1 UNK         0.3000 
    185 H185       -0.9935   -9.5631  -46.3019 H         1 UNK         0.0600 
    186 H186       -0.3523  -11.4988  -47.8245 H         1 UNK         0.0600 
    187 H187        0.9981  -10.4744  -47.3866 H         1 UNK         0.0600 
    188 H188        0.7960  -12.0355  -46.6023 H         1 UNK         0.0600 
    189 H189       -2.6789  -10.8666  -45.7735 H         1 UNK         0.3000 
    190 H190       -1.5432  -20.1798  -46.4336 H         1 UNK         0.3000 
    191 H191       -3.8151  -20.0476  -48.1291 H         1 UNK         0.0600 
    192 H192       -4.8606  -18.8502  -46.2331 H         1 UNK         0.0600 
    193 H193       -3.2101  -18.2999  -46.4769 H         1 UNK         0.0600 
    194 H194       -3.5849  -19.3958  -45.1493 H         1 UNK         0.0600 
    195 H195       -3.1718  -22.0630  -45.2212 H         1 UNK         0.3000 
    196 H196       -5.7390  -23.3230  -45.1548 H         1 UNK         0.0600 
    197 H197       -4.5971  -24.9213  -43.6024 H         1 UNK         0.0600 
    198 H198       -4.2709  -23.2489  -43.1761 H         1 UNK         0.0600 
    199 H199       -3.0407  -24.2034  -44.0010 H         1 UNK         0.0600 
    200 H200       -2.6299  -24.2381  -46.6825 H         1 UNK         0.3000 
    201 H201       -3.5242  -26.7416  -47.7655 H         1 UNK         0.0600 
    202 H202       -1.1299  -26.2045  -47.4466 H         1 UNK         0.0600 
    203 H203       -1.2520  -24.8734  -48.5928 H         1 UNK         0.0600 
    204 H204       -1.4370  -26.5328  -49.1471 H         1 UNK         0.0600 
    205 H205       -3.5884  -23.4148  -48.9851 H         1 UNK         0.3000 
    206 H206       -4.5883  -22.3552  -50.6118 H         1 UNK         0.0600 
    207 H207       -6.6760  -23.3056  -49.6840 H         1 UNK         0.0600 
    208 H208       -6.8122  -23.1143  -51.4208 H         1 UNK         0.0600 
    209 H209       -6.5462  -24.7155  -50.7258 H         1 UNK         0.0600 
    210 H210       -5.8800  -24.5566  -52.7223 H         1 UNK         0.3000 
    211 H211       -4.2560  -23.9542  -54.8733 H         1 UNK         0.0600 
    212 H212       -6.0928  -26.3673  -54.4664 H         1 UNK         0.0600 
    213 H213       -5.5097  -25.7813  -56.0206 H         1 UNK         0.0600 
    214 H214       -6.5770  -24.7763  -55.0563 H         1 UNK         0.0600 
    215 H215       -3.6997  -26.4606  -52.4828 H         1 UNK         0.3000 
    216 H216       -1.8775  -28.0731  -54.0441 H         1 UNK         0.0600 
    217 H217       -1.4141  -29.1454  -51.8491 H         1 UNK         0.0600 
    218 H218       -3.1445  -28.9828  -52.1050 H         1 UNK         0.0600 
    219 H219       -2.3056  -27.8796  -51.0159 H         1 UNK         0.0600 
    220 H220       -1.5368  -25.0652  -52.2626 H         1 UNK         0.3000 
    221 H221        1.4564  -25.2666  -52.3128 H         1 UNK         0.0600 
    222 H222       -0.4056  -23.5627  -50.5856 H         1 UNK         0.0600 
    223 H223        0.5851  -24.9271  -50.0544 H         1 UNK         0.0600 
    224 H224        1.3538  -23.4506  -50.6044 H         1 UNK         0.0600 
    225 H225       -1.3720  -23.1780  -53.1013 H         1 UNK         0.3000 
    226 H226        0.2623  -21.7197  -55.1193 H         1 UNK         0.0600 
    227 H227        0.2314  -20.2861  -53.0905 H         1 UNK         0.0600 
    228 H228       -0.8268  -19.6008  -54.3171 H         1 UNK         0.0600 
    229 H229       -1.5145  -20.4710  -52.9517 H         1 UNK         0.0600 
    230 H230       -0.7124  -22.6278  -56.8585 H         1 UNK         0.3000 
    231 H231       -3.2774  -23.6619  -57.0418 H         1 UNK         0.0600 
    232 H232       -2.7987  -23.7282  -59.4956 H         1 UNK         0.0600 
    233 H233       -1.4156  -24.2540  -58.5520 H         1 UNK         0.0600 
    234 H234       -1.4359  -22.6393  -59.2646 H         1 UNK         0.0600 
    235 H235       -2.4374  -20.3102  -57.2678 H         1 UNK         0.3000 
    236 H236       -4.7416  -19.3843  -58.7501 H         1 UNK         0.0600 
    237 H237       -2.8118  -17.9233  -56.8663 H         1 UNK         0.0600 
    238 H238       -2.6344  -18.0723  -58.6158 H         1 UNK         0.0600 
    239 H239       -3.9701  -17.1519  -57.9427 H         1 UNK         0.0600 
    240 H240       -4.2300  -20.3663  -55.4054 H         1 UNK         0.3000 
    241 H241       -6.4627  -18.8501  -54.3066 H         1 UNK         0.0600 
    242 H242       -9.1259  -21.1927  -54.4266 H         1 UNK         0.3800 
    243 H243       -8.5991  -19.6108  -53.9287 H         1 UNK         0.3800 
    244 H244       -4.7822  -21.0984  -53.0917 H         1 UNK         0.0800 
    245 H245       -6.0148  -20.1993  -52.2417 H         1 UNK         0.0800 
    246 H246       -4.6476  -19.3018  -50.3152 H         1 UNK         0.0800 
    247 H247       -3.3887  -20.3781  -50.8800 H         1 UNK         0.0800 
@<TRIPOS>BOND
     1    1    2 1    
     2    1  127 1    
     3    1  128 1    
     4    1  129 1    
     5    2    3 2    
     6    2    4 am   BACKBONE|DICT|INTERRES
     7    4    5 1    
     8    4  130 1    
     9    5    6 1    
    10    5   65 1    
    11    5  131 1    
    12    6    7 1    
    13    6  132 1    
    14    6  133 1    
    15    7    8 1    
    16    8    9 1    
    17    8  134 1    
    18    8  135 1    
    19    9   10 ar   
    20    9   14 ar   
    21   10   11 ar   
    22   10  136 1    
    23   11   12 ar   
    24   11  126 1    
    25   12   13 ar   
    26   12  137 1    
    27   13   14 ar   
    28   13   15 1    
    29   14  138 1    
    30   15   16 1    
    31   15  139 1    
    32   15  140 1    
    33   16   17 1    
    34   17   18 1    
    35   17  141 1    
    36   17  142 1    
    37   18   19 1    
    38   18   67 1    
    39   18  143 1    
    40   19   20 am   BACKBONE|DICT|INTERRES
    41   19  144 1    
    42   20   21 2    
    43   20   22 1    
    44   22   23 1    
    45   22   24 1    
    46   22  145 1    
    47   23  146 1    
    48   23  147 1    
    49   23  148 1    
    50   24   25 am   BACKBONE|DICT|INTERRES
    51   24  149 1    
    52   25   26 2    
    53   25   27 1    
    54   27   28 1    
    55   27   29 1    
    56   27  150 1    
    57   28  151 1    
    58   28  152 1    
    59   28  153 1    
    60   29   30 am   BACKBONE|DICT|INTERRES
    61   29  154 1    
    62   30   31 2    
    63   30   32 1    
    64   32   33 1    
    65   32   34 1    
    66   32  155 1    
    67   33  156 1    
    68   33  157 1    
    69   33  158 1    
    70   34   35 am   BACKBONE|DICT|INTERRES
    71   34  159 1    
    72   35   36 2    
    73   35   37 1    
    74   37   38 1    
    75   37   39 1    
    76   37  160 1    
    77   38  161 1    
    78   38  162 1    
    79   38  163 1    
    80   39   40 am   BACKBONE|DICT|INTERRES
    81   39  164 1    
    82   40   41 2    
    83   40   42 1    
    84   42   43 1    
    85   42   44 1    
    86   42  165 1    
    87   43  166 1    
    88   43  167 1    
    89   43  168 1    
    90   44   45 am   BACKBONE|DICT|INTERRES
    91   44  169 1    
    92   45   46 2    
    93   45   47 1    
    94   47   48 1    
    95   47   49 1    
    96   47  170 1    
    97   48  171 1    
    98   48  172 1    
    99   48  173 1    
   100   49   50 am   BACKBONE|DICT|INTERRES
   101   49  174 1    
   102   50   51 2    
   103   50   52 1    
   104   52   53 1    
   105   52   54 1    
   106   52  175 1    
   107   53  176 1    
   108   53  177 1    
   109   53  178 1    
   110   54   55 am   BACKBONE|DICT|INTERRES
   111   54  179 1    
   112   55   56 2    
   113   55   57 1    
   114   57   58 1    
   115   57   59 1    
   116   57  180 1    
   117   58  181 1    
   118   58  182 1    
   119   58  183 1    
   120   59   60 am   BACKBONE|DICT|INTERRES
   121   59  184 1    
   122   60   61 2    
   123   60   62 1    
   124   62   63 1    
   125   62   64 1    
   126   62  185 1    
   127   63  186 1    
   128   63  187 1    
   129   63  188 1    
   130   64   65 am   BACKBONE|DICT|INTERRES
   131   64  189 1    
   132   65   66 2    
   133   67   68 2    
   134   67   69 am   BACKBONE|DICT|INTERRES
   135   69   70 1    
   136   69  190 1    
   137   70   71 1    
   138   70   72 1    
   139   70  191 1    
   140   71  192 1    
   141   71  193 1    
   142   71  194 1    
   143   72   73 2    
   144   72   74 am   BACKBONE|DICT|INTERRES
   145   74   75 1    
   146   74  195 1    
   147   75   76 1    
   148   75   77 1    
   149   75  196 1    
   150   76  197 1    
   151   76  198 1    
   152   76  199 1    
   153   77   78 2    
   154   77   79 am   BACKBONE|DICT|INTERRES
   155   79   80 1    
   156   79  200 1    
   157   80   81 1    
   158   80   82 1    
   159   80  201 1    
   160   81  202 1    
   161   81  203 1    
   162   81  204 1    
   163   82   83 2    
   164   82   84 am   BACKBONE|DICT|INTERRES
   165   84   85 1    
   166   84  205 1    
   167   85   86 1    
   168   85   87 1    
   169   85  206 1    
   170   86  207 1    
   171   86  208 1    
   172   86  209 1    
   173   87   88 2    
   174   87   89 am   BACKBONE|DICT|INTERRES
   175   89   90 1    
   176   89  210 1    
   177   90   91 1    
   178   90   92 1    
   179   90  211 1    
   180   91  212 1    
   181   91  213 1    
   182   91  214 1    
   183   92   93 2    
   184   92   94 am   BACKBONE|DICT|INTERRES
   185   94   95 1    
   186   94  215 1    
   187   95   96 1    
   188   95   97 1    
   189   95  216 1    
   190   96  217 1    
   191   96  218 1    
   192   96  219 1    
   193   97   98 2    
   194   97   99 am   BACKBONE|DICT|INTERRES
   195   99  100 1    
   196   99  220 1    
   197  100  101 1    
   198  100  102 1    
   199  100  221 1    
   200  101  222 1    
   201  101  223 1    
   202  101  224 1    
   203  102  103 2    
   204  102  104 am   BACKBONE|DICT|INTERRES
   205  104  105 1    
   206  104  225 1    
   207  105  106 1    
   208  105  107 1    
   209  105  226 1    
   210  106  227 1    
   211  106  228 1    
   212  106  229 1    
   213  107  108 2    
   214  107  109 am   BACKBONE|DICT|INTERRES
   215  109  110 1    
   216  109  230 1    
   217  110  111 1    
   218  110  112 1    
   219  110  231 1    
   220  111  232 1    
   221  111  233 1    
   222  111  234 1    
   223  112  113 2    
   224  112  114 am   BACKBONE|DICT|INTERRES
   225  114  115 1    
   226  114  235 1    
   227  115  116 1    
   228  115  117 1    
   229  115  236 1    
   230  116  237 1    
   231  116  238 1    
   232  116  239 1    
   233  117  118 2    
   234  117  119 am   BACKBONE|DICT|INTERRES
   235  119  120 1    
   236  119  240 1    
   237  120  121 1    
   238  120  124 1    
   239  120  241 1    
   240  121  122 am   BACKBONE|DICT|INTERRES
   241  121  123 2    
   242  122  242 1    
   243  122  243 1    
   244  124  125 1    
   245  124  244 1    
   246  124  245 1    
   247  125  126 1    
   248  126  246 1    
   249  126  247 1    
@<TRIPOS>SUBSTRUCTURE
     1 UNK         1 GROUP             0       ****    0 ROOT    
