@<TRIPOS>MOLECULE
3R540
247   249    1
SMALL
USER_CHARGES


@<TRIPOS>ATOM
      1 CA          0.0377  -12.8092  -49.3414 C.3       0 UNK        -0.1800 
      2 C           1.2720  -13.6981  -49.2979 C.2       0 UNK         0.5000 
      3 O           1.1999  -14.8125  -48.7825 O.2       0 UNK        -0.5000 
      4 N           2.4018  -13.2005  -49.8205 N.am      1 UNK        -0.5000 
      5 CA          3.7209  -13.8487  -49.9486 C.3       1 UNK         0.1400 
      6 C6          3.7160  -15.1567  -50.7844 C.3       23 UNK        -0.0398 
      7 S7          3.0230  -14.9198  -52.4573 S.3       23 UNK        -0.2404 
      8 C8          2.5676  -16.6263  -52.9217 C.3       23 UNK        -0.0205 
      9 C9          1.5655  -17.2786  -51.9733 C.ar      23 UNK        -0.0193 
     10 C10         0.4116  -16.6013  -51.5700 C.ar      23 UNK        -0.1150 
     11 C11        -0.4967  -17.1841  -50.6817 C.ar      23 UNK        -0.0193 
     12 C12        -0.2488  -18.4844  -50.2145 C.ar      23 UNK        -0.1150 
     13 C13         0.8896  -19.1859  -50.6312 C.ar      23 UNK        -0.0193 
     14 C14         1.7931  -18.5740  -51.5034 C.ar      23 UNK        -0.1150 
     15 C15         1.1263  -20.6259  -50.1962 C.3       23 UNK        -0.0205 
     16 S16         2.2870  -20.7883  -48.7965 S.3       23 UNK        -0.2404 
     17 C17         1.2219  -20.4383  -47.3565 C.3       23 UNK        -0.0398 
     18 CA          0.5989  -21.7057  -46.7078 C.3       11 UNK         0.1400 
     19 N           0.0750  -21.4393  -45.3628 N.am      11 UNK        -0.5000 
     20 C          -0.4866  -22.3457  -44.5466 C.2       10 UNK         0.5000 
     21 O          -0.5539  -23.5471  -44.7997 O.2       10 UNK        -0.5000 
     22 CA         -1.1416  -21.8202  -43.2558 C.3       10 UNK         0.1400 
     23 CB         -0.0982  -21.6165  -42.1480 C.3       10 UNK        -0.1800 
     24 N          -1.8968  -20.5853  -43.4736 N.am      10 UNK        -0.5000 
     25 C          -2.9822  -20.4945  -44.2569 C.2       9 UNK         0.5000 
     26 O          -3.4998  -21.4605  -44.8176 O.2       9 UNK        -0.5000 
     27 CA         -3.5544  -19.0849  -44.4991 C.3       9 UNK         0.1400 
     28 CB         -4.4643  -18.6527  -43.3401 C.3       9 UNK        -0.1800 
     29 N          -2.5085  -18.0828  -44.7099 N.am      9 UNK        -0.5000 
     30 C          -1.6426  -18.0990  -45.7336 C.2       8 UNK         0.5000 
     31 O          -1.6792  -18.9326  -46.6382 O.2       8 UNK        -0.5000 
     32 CA         -0.5051  -17.0594  -45.6989 C.3       8 UNK         0.1400 
     33 CB         -0.9888  -15.6878  -46.1892 C.3       8 UNK        -0.1800 
     34 N           0.0775  -16.9268  -44.3616 N.am      8 UNK        -0.5000 
     35 C           0.7487  -17.8981  -43.7272 C.2       7 UNK         0.5000 
     36 O           1.0173  -18.9821  -44.2413 O.2       7 UNK        -0.5000 
     37 CA          1.1342  -17.6452  -42.2577 C.3       7 UNK         0.1400 
     38 CB          2.4868  -16.9294  -42.1344 C.3       7 UNK        -0.1800 
     39 N           0.1098  -16.8822  -41.5479 N.am      7 UNK        -0.5000 
     40 C          -1.0789  -17.3800  -41.1813 C.2       6 UNK         0.5000 
     41 O          -1.4154  -18.5489  -41.3671 O.2       6 UNK        -0.5000 
     42 CA         -2.0700  -16.3921  -40.5390 C.3       6 UNK         0.1400 
     43 CB         -1.8047  -16.2619  -39.0319 C.3       6 UNK        -0.1800 
     44 N          -2.0140  -15.0665  -41.1580 N.am      6 UNK        -0.5000 
     45 C          -2.3917  -14.8058  -42.4177 C.2       5 UNK         0.5000 
     46 O          -2.8814  -15.6480  -43.1687 O.2       5 UNK        -0.5000 
     47 CA         -2.1301  -13.3806  -42.9408 C.3       5 UNK         0.1400 
     48 CB         -3.3224  -12.4645  -42.6284 C.3       5 UNK        -0.1800 
     49 N          -0.9034  -12.7840  -42.4030 N.am      5 UNK        -0.5000 
     50 C           0.3310  -13.2558  -42.6199 C.2       4 UNK         0.5000 
     51 O           0.5742  -14.2566  -43.2990 O.2       4 UNK        -0.5000 
     52 CA          1.4735  -12.5223  -41.9090 C.3       4 UNK         0.1400 
     53 CB          1.5600  -12.9558  -40.4342 C.3       4 UNK        -0.1800 
     54 N           2.7342  -12.8227  -42.5793 N.am      4 UNK        -0.5000 
     55 C           3.8082  -12.0252  -42.5932 C.2       3 UNK         0.5000 
     56 O           3.8444  -10.9301  -42.0295 O.2       3 UNK        -0.5000 
     57 CA          5.0656  -12.5214  -43.3381 C.3       3 UNK         0.1400 
     58 CB          6.1537  -12.9283  -42.3312 C.3       3 UNK        -0.1800 
     59 N           4.8393  -13.6434  -44.2538 N.am      3 UNK        -0.5000 
     60 C           4.1908  -13.5647  -45.4220 C.2       2 UNK         0.5000 
     61 O           3.6380  -12.5395  -45.8288 O.2       2 UNK        -0.5000 
     62 CA          4.1503  -14.8645  -46.2500 C.3       2 UNK         0.1400 
     63 CB          3.1957  -15.8854  -45.6165 C.3       2 UNK        -0.1800 
     64 N           3.7135  -14.6296  -47.6203 N.am      2 UNK        -0.5000 
     65 C           4.4345  -14.0714  -48.5965 C.2       1 UNK         0.5000 
     66 O           5.6136  -13.7374  -48.4675 O.2       1 UNK        -0.5000 
     67 C          -0.4850  -22.3273  -47.6104 C.2       11 UNK         0.5000 
     68 O          -0.2658  -23.3996  -48.1760 O.2       11 UNK        -0.5000 
     69 N          -1.6414  -21.6534  -47.6981 N.am      12 UNK        -0.5000 
     70 CA         -2.8091  -22.0845  -48.4654 C.3       12 UNK         0.1400 
     71 CB         -3.9133  -21.0243  -48.3550 C.3       12 UNK        -0.1800 
     72 C          -3.3345  -23.4655  -48.0402 C.2       12 UNK         0.5000 
     73 O          -3.5980  -24.3012  -48.9035 O.2       12 UNK        -0.5000 
     74 N          -3.4408  -23.6896  -46.7238 N.am      13 UNK        -0.5000 
     75 CA         -3.8637  -24.9573  -46.1313 C.3       13 UNK         0.1400 
     76 CB         -4.0919  -24.7655  -44.6243 C.3       13 UNK        -0.1800 
     77 C          -2.8737  -26.1084  -46.3903 C.2       13 UNK         0.5000 
     78 O          -3.3081  -27.2138  -46.7159 O.2       13 UNK        -0.5000 
     79 N          -1.5702  -25.8342  -46.2421 N.am      14 UNK        -0.5000 
     80 CA         -0.4948  -26.8091  -46.4225 C.3       14 UNK         0.1400 
     81 CB          0.8142  -26.2501  -45.8436 C.3       14 UNK        -0.1800 
     82 C          -0.3014  -27.2243  -47.8899 C.2       14 UNK         0.5000 
     83 O          -0.1781  -28.4176  -48.1703 O.2       14 UNK        -0.5000 
     84 N          -0.2700  -26.2388  -48.7967 N.am      15 UNK        -0.5000 
     85 CA         -0.0642  -26.4589  -50.2287 C.3       15 UNK         0.1400 
     86 CB          0.4457  -25.1602  -50.8654 C.3       15 UNK        -0.1800 
     87 C          -1.3292  -26.9526  -50.9531 C.2       15 UNK         0.5000 
     88 O          -1.2075  -27.6093  -51.9882 O.2       15 UNK        -0.5000 
     89 N          -2.5107  -26.6125  -50.4166 N.am      16 UNK        -0.5000 
     90 CA         -3.8675  -26.9107  -50.8924 C.3       16 UNK         0.1400 
     91 CB         -4.1244  -28.4272  -50.9783 C.3       16 UNK        -0.1800 
     92 C          -4.2349  -26.1944  -52.2055 C.2       16 UNK         0.5000 
     93 O          -5.2364  -25.4810  -52.2494 O.2       16 UNK        -0.5000 
     94 N          -3.4112  -26.3671  -53.2462 N.am      17 UNK        -0.5000 
     95 CA         -3.5713  -25.7471  -54.5635 C.3       17 UNK         0.1400 
     96 CB         -2.5946  -26.4062  -55.5483 C.3       17 UNK        -0.1800 
     97 C          -3.3660  -24.2206  -54.5402 C.2       17 UNK         0.5000 
     98 O          -3.9834  -23.5089  -55.3331 O.2       17 UNK        -0.5000 
     99 N          -2.5288  -23.7413  -53.6091 N.am      18 UNK        -0.5000 
    100 CA        -2.2174  -22.3238  -53.4118 C.3       18 UNK         0.1400 
    101 CB        -0.9411  -22.1966  -52.5701 C.3       18 UNK        -0.1800 
    102 C         -3.3617  -21.5152  -52.7704 C.2       18 UNK         0.5000 
    103 O         -3.2471  -20.2946  -52.6888 O.2       18 UNK        -0.5000 
    104 N         -4.4403  -22.1845  -52.3325 N.am      19 UNK        -0.5000 
    105 CA        -5.6550  -21.5534  -51.8124 C.3       19 UNK         0.1400 
    106 CB        -6.5651  -22.6244  -51.1969 C.3       19 UNK        -0.1800 
    107 C         -6.4161  -20.7266  -52.8670 C.2       19 UNK         0.5000 
    108 O         -7.1456  -19.8052  -52.4941 O.2       19 UNK        -0.5000 
    109 N         -6.2103  -21.0325  -54.1565 N.am      20 UNK        -0.5000 
    110 CA        -6.6619  -20.2251  -55.2873 C.3       20 UNK         0.1400 
    111 CB        -6.3458  -20.9683  -56.5949 C.3       20 UNK        -0.1800 
    112 C         -5.9955  -18.8357  -55.2515 C.2       20 UNK         0.5000 
    113 O         -4.7786  -18.7414  -55.4197 O.2       20 UNK        -0.5000 
    114 N         -6.8077  -17.8032  -54.9862 N.am      21 UNK        -0.5000 
    115 CA        -6.4158  -16.4094  -54.7425 C.3       21 UNK         0.1400 
    116 CB        -5.7269  -15.7888  -55.9772 C.3       21 UNK        -0.1800 
    117 C         -5.6158  -16.2141  -53.4329 C.2       21 UNK         0.5000 
    118 O         -4.7958  -15.2983  -53.3458 O.2       21 UNK        -0.5000 
    119 N         -5.8938  -17.0512  -52.4255 N.am      22 UNK        -0.5000 
    120 CA        -5.3585  -16.9401  -51.0597 C.3       22 UNK         0.1400 
    121 C         -6.4221  -17.2858  -49.9781 C.2       22 UNK         0.5000 
    122 N         -7.3567  -18.1962  -50.2266 N.am      22 UNK        -0.7600 
    123 O         -6.4300  -16.6896  -48.9051 O.2       22 UNK        -0.5000 
    124 C124       -4.0494  -17.7538  -50.8840 C.3       23 UNK        -0.0398 
    125 S125       -3.0654  -17.2308  -49.4390 S.3       23 UNK        -0.2404 
    126 C126       -1.6863  -16.3354  -50.2262 C.3       23 UNK        -0.0205 
    127 H127        0.2802  -11.7938  -49.6556 H         1 UNK         0.0600 
    128 H128       -0.4227  -12.7587  -48.3545 H         1 UNK         0.0600 
    129 H129       -0.6927  -13.2175  -50.0395 H         1 UNK         0.0600 
    130 H130        2.3714  -12.2633  -50.1962 H         1 UNK         0.3000 
    131 H131        4.3336  -13.1275  -50.4922 H         1 UNK         0.0600 
    132 H132        4.7313  -15.5405  -50.8986 H         1 UNK         0.0800 
    133 H133        3.1556  -15.9336  -50.2628 H         1 UNK         0.0800 
    134 H134        3.4805  -17.2205  -52.9845 H         1 UNK         0.0800 
    135 H135        2.1388  -16.6137  -53.9243 H         1 UNK         0.0800 
    136 H136        0.2346  -15.5969  -51.9281 H         1 UNK         0.1150 
    137 H137       -0.9366  -18.9575  -49.5287 H         1 UNK         0.1150 
    138 H138        2.6729  -19.1152  -51.8225 H         1 UNK         0.1150 
    139 H139        0.1761  -21.1034  -49.9660 H         1 UNK         0.0800 
    140 H140        1.5357  -21.1871  -51.0374 H         1 UNK         0.0800 
    141 H141        0.4652  -19.7106  -47.6425 H         1 UNK         0.0800 
    142 H142        1.8519  -19.9311  -46.6251 H         1 UNK         0.0800 
    143 H143        1.3902  -22.4484  -46.5874 H         1 UNK         0.0600 
    144 H144        0.1451  -20.4795  -45.0364 H         1 UNK         0.3000 
    145 H145       -1.8478  -22.5788  -42.9120 H         1 UNK         0.0600 
    146 H146        0.6574  -20.8853  -42.4313 H         1 UNK         0.0600 
    147 H147       -0.5647  -21.2766  -41.2232 H         1 UNK         0.0600 
    148 H148        0.4194  -22.5507  -41.9273 H         1 UNK         0.0600 
    149 H149       -1.5689  -19.7553  -42.9912 H         1 UNK         0.3000 
    150 H150       -4.1601  -19.1250  -45.4068 H         1 UNK         0.0600 
    151 H151       -5.2703  -19.3717  -43.1887 H         1 UNK         0.0600 
    152 H152       -4.9243  -17.6850  -43.5409 H         1 UNK         0.0600 
    153 H153       -3.9150  -18.5729  -42.4023 H         1 UNK         0.0600 
    154 H154       -2.4561  -17.3259  -44.0343 H         1 UNK         0.3000 
    155 H155        0.2809  -17.3999  -46.3764 H         1 UNK         0.0600 
    156 H156       -1.7917  -15.2936  -45.5684 H         1 UNK         0.0600 
    157 H157       -0.1777  -14.9594  -46.1951 H         1 UNK         0.0600 
    158 H158       -1.3708  -15.7563  -47.2065 H         1 UNK         0.0600 
    159 H159       -0.0371  -16.0322  -43.8966 H         1 UNK         0.3000 
    160 H160        1.2317  -18.6177  -41.7712 H         1 UNK         0.0600 
    161 H161        3.2734  -17.4991  -42.6304 H         1 UNK         0.0600 
    162 H162        2.4642  -15.9352  -42.5781 H         1 UNK         0.0600 
    163 H163        2.7783  -16.8197  -41.0898 H         1 UNK         0.0600 
    164 H164        0.2896  -15.8997  -41.4089 H         1 UNK         0.3000 
    165 H165       -3.0769  -16.7920  -40.6766 H         1 UNK         0.0600 
    166 H166       -2.5462  -15.6205  -38.5553 H         1 UNK         0.0600 
    167 H167       -1.8554  -17.2352  -38.5419 H         1 UNK         0.0600 
    168 H168       -0.8180  -15.8432  -38.8294 H         1 UNK         0.0600 
    169 H169       -1.6300  -14.3161  -40.6034 H         1 UNK         0.3000 
    170 H170       -2.0231  -13.4409  -44.0255 H         1 UNK         0.0600 
    171 H171       -4.2470  -12.8749  -43.0368 H         1 UNK         0.0600 
    172 H172       -3.4650  -12.3391  -41.5544 H         1 UNK         0.0600 
    173 H173       -3.1860  -11.4760  -43.0674 H         1 UNK         0.0600 
    174 H174       -1.0201  -11.9626  -41.8269 H         1 UNK         0.3000 
    175 H175        1.2741  -11.4502  -41.9670 H         1 UNK         0.0600 
    176 H176        1.7655  -14.0230  -40.3408 H         1 UNK         0.0600 
    177 H177        2.3509  -12.4182  -39.9109 H         1 UNK         0.0600 
    178 H178        0.6286  -12.7510  -39.9052 H         1 UNK         0.0600 
    179 H179        2.7358  -13.6770  -43.1201 H         1 UNK         0.3000 
    180 H180        5.4433  -11.6802  -43.9232 H         1 UNK         0.0600 
    181 H181        5.8406  -13.7782  -41.7234 H         1 UNK         0.0600 
    182 H182        6.3868  -12.1075  -41.6515 H         1 UNK         0.0600 
    183 H183        7.0803  -13.1992  -42.8379 H         1 UNK         0.0600 
    184 H184        5.2540  -14.5239  -43.9847 H         1 UNK         0.3000 
    185 H185        5.1551  -15.2910  -46.2784 H         1 UNK         0.0600 
    186 H186        3.0768  -16.7686  -46.2448 H         1 UNK         0.0600 
    187 H187        3.5790  -16.2261  -44.6568 H         1 UNK         0.0600 
    188 H188        2.2070  -15.4563  -45.4511 H         1 UNK         0.0600 
    189 H189        2.7373  -14.8280  -47.8305 H         1 UNK         0.3000 
    190 H190       -1.7259  -20.7666  -47.2065 H         1 UNK         0.3000 
    191 H191       -2.5101  -22.1553  -49.5127 H         1 UNK         0.0600 
    192 H192       -4.1672  -20.8103  -47.3175 H         1 UNK         0.0600 
    193 H193       -4.8274  -21.3527  -48.8483 H         1 UNK         0.0600 
    194 H194       -3.6025  -20.0899  -48.8190 H         1 UNK         0.0600 
    195 H195       -3.2409  -22.9290  -46.0799 H         1 UNK         0.3000 
    196 H196       -4.8178  -25.2335  -46.5849 H         1 UNK         0.0600 
    197 H197       -4.4273  -25.6926  -44.1578 H         1 UNK         0.0600 
    198 H198       -4.8551  -24.0106  -44.4347 H         1 UNK         0.0600 
    199 H199       -3.1795  -24.4520  -44.1160 H         1 UNK         0.0600 
    200 H200       -1.2914  -24.9068  -45.9316 H         1 UNK         0.3000 
    201 H201       -0.7547  -27.7058  -45.8558 H         1 UNK         0.0600 
    202 H202        0.7183  -26.0511  -44.7761 H         1 UNK         0.0600 
    203 H203        1.1053  -25.3191  -46.3320 H         1 UNK         0.0600 
    204 H204        1.6335  -26.9590  -45.9695 H         1 UNK         0.0600 
    205 H205       -0.3546  -25.2725  -48.4877 H         1 UNK         0.3000 
    206 H206        0.7069  -27.2210  -50.3604 H         1 UNK         0.0600 
    207 H207        1.3961  -24.8528  -50.4286 H         1 UNK         0.0600 
    208 H208        0.6000  -25.2763  -51.9389 H         1 UNK         0.0600 
    209 H209       -0.2650  -24.3506  -50.7149 H         1 UNK         0.0600 
    210 H210       -2.4926  -26.0098  -49.6019 H         1 UNK         0.3000 
    211 H211       -4.5376  -26.5179  -50.1262 H         1 UNK         0.0600 
    212 H212       -3.5094  -28.9087  -51.7387 H         1 UNK         0.0600 
    213 H213       -5.1664  -28.6290  -51.2290 H         1 UNK         0.0600 
    214 H214       -3.9195  -28.9133  -50.0243 H         1 UNK         0.0600 
    215 H215       -2.5905  -26.9493  -53.0992 H         1 UNK         0.3000 
    216 H216       -4.5896  -25.9388  -54.9081 H         1 UNK         0.0600 
    217 H217       -2.6989  -25.9803  -56.5472 H         1 UNK         0.0600 
    218 H218       -2.7815  -27.4770  -55.6312 H         1 UNK         0.0600 
    219 H219       -1.5576  -26.2698  -55.2384 H         1 UNK         0.0600 
    220 H220       -2.0790  -24.3984  -52.9899 H         1 UNK         0.3000 
    221 H221       -2.0203  -21.8835  -54.3915 H         1 UNK         0.0600 
    222 H222       -1.1218  -22.4780  -51.5339 H         1 UNK         0.0600 
    223 H223       -0.1333  -22.8146  -52.9623 H         1 UNK         0.0600 
    224 H224       -0.5875  -21.1648  -52.5677 H         1 UNK         0.0600 
    225 H225       -4.4607  -23.1913  -52.4252 H         1 UNK         0.3000 
    226 H226       -5.3606  -20.8639  -51.0217 H         1 UNK         0.0600 
    227 H227       -6.0437  -23.1907  -50.4244 H         1 UNK         0.0600 
    228 H228       -7.4421  -22.1714  -50.7329 H         1 UNK         0.0600 
    229 H229       -6.9193  -23.3302  -51.9491 H         1 UNK         0.0600 
    230 H230       -5.5685  -21.7831  -54.3724 H         1 UNK         0.3000 
    231 H231       -7.7453  -20.1094  -55.2143 H         1 UNK         0.0600 
    232 H232       -6.6694  -20.3892  -57.4606 H         1 UNK         0.0600 
    233 H233       -6.8580  -21.9298  -56.6354 H         1 UNK         0.0600 
    234 H234       -5.2766  -21.1557  -56.7045 H         1 UNK         0.0600 
    235 H235       -7.7894  -18.0004  -54.8473 H         1 UNK         0.3000 
    236 H236       -7.3495  -15.8652  -54.5940 H         1 UNK         0.0600 
    237 H237       -5.6081  -14.7114  -55.8565 H         1 UNK         0.0600 
    238 H238       -6.3155  -15.9490  -56.8805 H         1 UNK         0.0600 
    239 H239       -4.7339  -16.2065  -56.1437 H         1 UNK         0.0600 
    240 H240       -6.5649  -17.7937  -52.5776 H         1 UNK         0.3000 
    241 H241       -5.1148  -15.8889  -50.8917 H         1 UNK         0.0600 
    242 H242       -7.3638  -18.7477  -51.0813 H         1 UNK         0.3800 
    243 H243       -8.0488  -18.3825  -49.5187 H         1 UNK         0.3800 
    244 H244       -4.2719  -18.8148  -50.7839 H         1 UNK         0.0800 
    245 H245       -3.4282  -17.6676  -51.7768 H         1 UNK         0.0800 
    246 H246       -2.0765  -15.7594  -51.0671 H         1 UNK         0.0800 
    247 H247       -1.3130  -15.6047  -49.5105 H         1 UNK         0.0800 
@<TRIPOS>BOND
     1    1    2 1    
     2    1  127 1    
     3    1  128 1    
     4    1  129 1    
     5    2    3 2    
     6    2    4 am   BACKBONE|DICT|INTERRES
     7    4    5 1    
     8    4  130 1    
     9    5    6 1    
    10    5   65 1    
    11    5  131 1    
    12    6    7 1    
    13    6  132 1    
    14    6  133 1    
    15    7    8 1    
    16    8    9 1    
    17    8  134 1    
    18    8  135 1    
    19    9   10 ar   
    20    9   14 ar   
    21   10   11 ar   
    22   10  136 1    
    23   11   12 ar   
    24   11  126 1    
    25   12   13 ar   
    26   12  137 1    
    27   13   14 ar   
    28   13   15 1    
    29   14  138 1    
    30   15   16 1    
    31   15  139 1    
    32   15  140 1    
    33   16   17 1    
    34   17   18 1    
    35   17  141 1    
    36   17  142 1    
    37   18   19 1    
    38   18   67 1    
    39   18  143 1    
    40   19   20 am   BACKBONE|DICT|INTERRES
    41   19  144 1    
    42   20   21 2    
    43   20   22 1    
    44   22   23 1    
    45   22   24 1    
    46   22  145 1    
    47   23  146 1    
    48   23  147 1    
    49   23  148 1    
    50   24   25 am   BACKBONE|DICT|INTERRES
    51   24  149 1    
    52   25   26 2    
    53   25   27 1    
    54   27   28 1    
    55   27   29 1    
    56   27  150 1    
    57   28  151 1    
    58   28  152 1    
    59   28  153 1    
    60   29   30 am   BACKBONE|DICT|INTERRES
    61   29  154 1    
    62   30   31 2    
    63   30   32 1    
    64   32   33 1    
    65   32   34 1    
    66   32  155 1    
    67   33  156 1    
    68   33  157 1    
    69   33  158 1    
    70   34   35 am   BACKBONE|DICT|INTERRES
    71   34  159 1    
    72   35   36 2    
    73   35   37 1    
    74   37   38 1    
    75   37   39 1    
    76   37  160 1    
    77   38  161 1    
    78   38  162 1    
    79   38  163 1    
    80   39   40 am   BACKBONE|DICT|INTERRES
    81   39  164 1    
    82   40   41 2    
    83   40   42 1    
    84   42   43 1    
    85   42   44 1    
    86   42  165 1    
    87   43  166 1    
    88   43  167 1    
    89   43  168 1    
    90   44   45 am   BACKBONE|DICT|INTERRES
    91   44  169 1    
    92   45   46 2    
    93   45   47 1    
    94   47   48 1    
    95   47   49 1    
    96   47  170 1    
    97   48  171 1    
    98   48  172 1    
    99   48  173 1    
   100   49   50 am   BACKBONE|DICT|INTERRES
   101   49  174 1    
   102   50   51 2    
   103   50   52 1    
   104   52   53 1    
   105   52   54 1    
   106   52  175 1    
   107   53  176 1    
   108   53  177 1    
   109   53  178 1    
   110   54   55 am   BACKBONE|DICT|INTERRES
   111   54  179 1    
   112   55   56 2    
   113   55   57 1    
   114   57   58 1    
   115   57   59 1    
   116   57  180 1    
   117   58  181 1    
   118   58  182 1    
   119   58  183 1    
   120   59   60 am   BACKBONE|DICT|INTERRES
   121   59  184 1    
   122   60   61 2    
   123   60   62 1    
   124   62   63 1    
   125   62   64 1    
   126   62  185 1    
   127   63  186 1    
   128   63  187 1    
   129   63  188 1    
   130   64   65 am   BACKBONE|DICT|INTERRES
   131   64  189 1    
   132   65   66 2    
   133   67   68 2    
   134   67   69 am   BACKBONE|DICT|INTERRES
   135   69   70 1    
   136   69  190 1    
   137   70   71 1    
   138   70   72 1    
   139   70  191 1    
   140   71  192 1    
   141   71  193 1    
   142   71  194 1    
   143   72   73 2    
   144   72   74 am   BACKBONE|DICT|INTERRES
   145   74   75 1    
   146   74  195 1    
   147   75   76 1    
   148   75   77 1    
   149   75  196 1    
   150   76  197 1    
   151   76  198 1    
   152   76  199 1    
   153   77   78 2    
   154   77   79 am   BACKBONE|DICT|INTERRES
   155   79   80 1    
   156   79  200 1    
   157   80   81 1    
   158   80   82 1    
   159   80  201 1    
   160   81  202 1    
   161   81  203 1    
   162   81  204 1    
   163   82   83 2    
   164   82   84 am   BACKBONE|DICT|INTERRES
   165   84   85 1    
   166   84  205 1    
   167   85   86 1    
   168   85   87 1    
   169   85  206 1    
   170   86  207 1    
   171   86  208 1    
   172   86  209 1    
   173   87   88 2    
   174   87   89 am   BACKBONE|DICT|INTERRES
   175   89   90 1    
   176   89  210 1    
   177   90   91 1    
   178   90   92 1    
   179   90  211 1    
   180   91  212 1    
   181   91  213 1    
   182   91  214 1    
   183   92   93 2    
   184   92   94 am   BACKBONE|DICT|INTERRES
   185   94   95 1    
   186   94  215 1    
   187   95   96 1    
   188   95   97 1    
   189   95  216 1    
   190   96  217 1    
   191   96  218 1    
   192   96  219 1    
   193   97   98 2    
   194   97   99 am   BACKBONE|DICT|INTERRES
   195   99  100 1    
   196   99  220 1    
   197  100  101 1    
   198  100  102 1    
   199  100  221 1    
   200  101  222 1    
   201  101  223 1    
   202  101  224 1    
   203  102  103 2    
   204  102  104 am   BACKBONE|DICT|INTERRES
   205  104  105 1    
   206  104  225 1    
   207  105  106 1    
   208  105  107 1    
   209  105  226 1    
   210  106  227 1    
   211  106  228 1    
   212  106  229 1    
   213  107  108 2    
   214  107  109 am   BACKBONE|DICT|INTERRES
   215  109  110 1    
   216  109  230 1    
   217  110  111 1    
   218  110  112 1    
   219  110  231 1    
   220  111  232 1    
   221  111  233 1    
   222  111  234 1    
   223  112  113 2    
   224  112  114 am   BACKBONE|DICT|INTERRES
   225  114  115 1    
   226  114  235 1    
   227  115  116 1    
   228  115  117 1    
   229  115  236 1    
   230  116  237 1    
   231  116  238 1    
   232  116  239 1    
   233  117  118 2    
   234  117  119 am   BACKBONE|DICT|INTERRES
   235  119  120 1    
   236  119  240 1    
   237  120  121 1    
   238  120  124 1    
   239  120  241 1    
   240  121  122 am   BACKBONE|DICT|INTERRES
   241  121  123 2    
   242  122  242 1    
   243  122  243 1    
   244  124  125 1    
   245  124  244 1    
   246  124  245 1    
   247  125  126 1    
   248  126  246 1    
   249  126  247 1    
@<TRIPOS>SUBSTRUCTURE
     1 UNK         1 GROUP             0       ****    0 ROOT    
