@<TRIPOS>MOLECULE
3R540
247   249    1
SMALL
USER_CHARGES


@<TRIPOS>ATOM
      1 CA         -1.7607   -9.0392  -45.9281 C.3       0 UNK        -0.1800 
      2 C          -0.8976  -10.2874  -45.8201 C.2       0 UNK         0.5000 
      3 O           0.2666  -10.1966  -45.4310 O.2       0 UNK        -0.5000 
      4 N          -1.4664  -11.4575  -46.1422 N.am      1 UNK        -0.5000 
      5 CA         -0.7871  -12.7646  -46.1615 C.3       1 UNK         0.1400 
      6 C6         -1.6707  -13.8811  -46.7747 C.3       23 UNK        -0.0398 
      7 S7         -2.3342  -13.4249  -48.4163 S.3       23 UNK        -0.2404 
      8 C8         -3.9147  -14.3297  -48.4617 C.3       23 UNK        -0.0205 
      9 C9         -3.7881  -15.6320  -49.2370 C.ar      23 UNK        -0.0193 
     10 C10        -4.1766  -15.6881  -50.5788 C.ar      23 UNK        -0.1150 
     11 C11        -4.0704  -16.8805  -51.2995 C.ar      23 UNK        -0.0193 
     12 C12        -3.5540  -18.0178  -50.6740 C.ar      23 UNK        -0.1150 
     13 C13        -3.1612  -17.9763  -49.3322 C.ar      23 UNK        -0.0193 
     14 C14        -3.2905  -16.7816  -48.6171 C.ar      23 UNK        -0.1150 
     15 C15        -2.5682  -19.2131  -48.6733 C.3       23 UNK        -0.0205 
     16 S16        -3.7713  -20.5755  -48.5526 S.3       23 UNK        -0.2404 
     17 C17        -4.3490  -20.3748  -46.8347 C.3       23 UNK        -0.0398 
     18 CA         -3.4857  -21.1971  -45.8433 C.3       11 UNK         0.1400 
     19 N          -3.3563  -20.5247  -44.5402 N.am      11 UNK        -0.5000 
     20 C          -2.5341  -20.9115  -43.5547 C.2       10 UNK         0.5000 
     21 O          -1.8298  -21.9191  -43.6154 O.2       10 UNK        -0.5000 
     22 CA         -2.4886  -20.0176  -42.3106 C.3       10 UNK         0.1400 
     23 CB         -2.1030  -20.7990  -41.0418 C.3       10 UNK        -0.1800 
     24 N          -1.4903  -18.9901  -42.5614 N.am      10 UNK        -0.5000 
     25 C          -1.7088  -17.6717  -42.5421 C.2       9 UNK         0.5000 
     26 O          -2.7793  -17.1557  -42.2190 O.2       9 UNK        -0.5000 
     27 CA         -0.5397  -16.7758  -42.9876 C.3       9 UNK         0.1400 
     28 CB          0.4412  -16.5396  -41.8296 C.3       9 UNK        -0.1800 
     29 N           0.1917  -17.3082  -44.1363 N.am      9 UNK        -0.5000 
     30 C          -0.3218  -17.4739  -45.3627 C.2       8 UNK         0.5000 
     31 O          -1.4877  -17.2149  -45.6554 O.2       8 UNK        -0.5000 
     32 CA          0.6220  -18.0376  -46.4369 C.3       8 UNK         0.1400 
     33 CB          1.5468  -16.9432  -46.9887 C.3       8 UNK        -0.1800 
     34 N           1.4257  -19.1285  -45.8917 N.am      8 UNK        -0.5000 
     35 C           1.0598  -20.4167  -45.9151 C.2       7 UNK         0.5000 
     36 O           0.0615  -20.8275  -46.5041 O.2       7 UNK        -0.5000 
     37 CA          1.9533  -21.4223  -45.1605 C.3       7 UNK         0.1400 
     38 CB          2.9014  -22.1386  -46.1342 C.3       7 UNK        -0.1800 
     39 N           2.7484  -20.8197  -44.0878 N.am      7 UNK        -0.5000 
     40 C           2.2444  -20.3291  -42.9474 C.2       6 UNK         0.5000 
     41 O           1.0472  -20.3380  -42.6686 O.2       6 UNK        -0.5000 
     42 CA          3.2415  -19.6637  -41.9784 C.3       6 UNK         0.1400 
     43 CB          3.8711  -20.7161  -41.0537 C.3       6 UNK        -0.1800 
     44 N           4.3064  -18.8915  -42.6314 N.am      6 UNK        -0.5000 
     45 C           4.1199  -17.9037  -43.5180 C.2       5 UNK         0.5000 
     46 O           3.0146  -17.5900  -43.9631 O.2       5 UNK        -0.5000 
     47 CA          5.3878  -17.1931  -44.0303 C.3       5 UNK         0.1400 
     48 CB          6.0932  -18.0664  -45.0804 C.3       5 UNK        -0.1800 
     49 N           5.1117  -15.8846  -44.6296 N.am      5 UNK        -0.5000 
     50 C           4.6067  -14.8209  -43.9896 C.2       4 UNK         0.5000 
     51 O           4.3611  -14.8110  -42.7804 O.2       4 UNK        -0.5000 
     52 CA          4.3834  -13.5524  -44.8428 C.3       4 UNK         0.1400 
     53 CB          3.7996  -13.8523  -46.2366 C.3       4 UNK        -0.1800 
     54 N           3.4972  -12.6071  -44.1665 N.am      4 UNK        -0.5000 
     55 C           3.8983  -11.6176  -43.3569 C.2       3 UNK         0.5000 
     56 O           5.0823  -11.3655  -43.1260 O.2       3 UNK        -0.5000 
     57 CA          2.8081  -10.7408  -42.7063 C.3       3 UNK         0.1400 
     58 CB          2.8035   -9.3361  -43.3301 C.3       3 UNK        -0.1800 
     59 N           1.4654  -11.3145  -42.8203 N.am      3 UNK        -0.5000 
     60 C           0.9768  -12.2580  -42.0016 C.2       2 UNK         0.5000 
     61 O           1.5904  -12.6961  -41.0284 O.2       2 UNK        -0.5000 
     62 CA         -0.4292  -12.8143  -42.3099 C.3       2 UNK         0.1400 
     63 CB         -1.4776  -12.1616  -41.3966 C.3       2 UNK        -0.1800 
     64 N          -0.8520  -12.6516  -43.7021 N.am      2 UNK        -0.5000 
     65 C          -0.2540  -13.1912  -44.7747 C.2       1 UNK         0.5000 
     66 O           0.7091  -13.9520  -44.7012 O.2       1 UNK        -0.5000 
     67 C          -3.9450  -22.6734  -45.7515 C.2       11 UNK         0.5000 
     68 O          -3.6812  -23.4559  -46.6657 O.2       11 UNK        -0.5000 
     69 N          -4.5597  -23.0527  -44.6219 N.am      12 UNK        -0.5000 
     70 CA         -4.8736  -24.4335  -44.2542 C.3       12 UNK         0.1400 
     71 CB         -5.6792  -24.4330  -42.9469 C.3       12 UNK        -0.1800 
     72 C          -3.6279  -25.3348  -44.1192 C.2       12 UNK         0.5000 
     73 O          -3.7247  -26.5284  -44.4026 O.2       12 UNK        -0.5000 
     74 N          -2.4717  -24.7603  -43.7481 N.am      13 UNK        -0.5000 
     75 CA         -1.1858  -25.4647  -43.6861 C.3       13 UNK         0.1400 
     76 CB         -0.1818  -24.6396  -42.8662 C.3       13 UNK        -0.1800 
     77 C          -0.6171  -25.7838  -45.0833 C.2       13 UNK         0.5000 
     78 O           0.1350  -26.7478  -45.2259 O.2       13 UNK        -0.5000 
     79 N          -1.0188  -24.9975  -46.0912 N.am      14 UNK        -0.5000 
     80 CA         -0.7531  -25.2370  -47.5102 C.3       14 UNK         0.1400 
     81 CB         -0.5778  -23.8795  -48.2141 C.3       14 UNK        -0.1800 
     82 C          -1.8785  -26.0540  -48.1792 C.2       14 UNK         0.5000 
     83 O          -1.8432  -26.2354  -49.3961 O.2       14 UNK        -0.5000 
     84 N          -2.8842  -26.4868  -47.3995 N.am      15 UNK        -0.5000 
     85 CA         -4.1040  -27.1908  -47.8175 C.3       15 UNK         0.1400 
     86 CB         -3.7616  -28.6163  -48.2971 C.3       15 UNK        -0.1800 
     87 C          -4.9452  -26.4031  -48.8474 C.2       15 UNK         0.5000 
     88 O          -5.6550  -27.0087  -49.6518 O.2       15 UNK        -0.5000 
     89 N          -4.8181  -25.0667  -48.8228 N.am      16 UNK        -0.5000 
     90 CA         -5.3659  -24.0914  -49.7700 C.3       16 UNK         0.1400 
     91 CB         -6.9056  -24.0560  -49.6942 C.3       16 UNK        -0.1800 
     92 C          -4.8495  -24.2430  -51.2205 C.2       16 UNK         0.5000 
     93 O          -5.4176  -23.6310  -52.1261 O.2       16 UNK        -0.5000 
     94 N          -3.7691  -25.0134  -51.4352 N.am      17 UNK        -0.5000 
     95 CA         -3.1892  -25.2884  -52.7563 C.3       17 UNK         0.1400 
     96 CB         -2.1383  -26.4008  -52.6337 C.3       17 UNK        -0.1800 
     97 C          -2.5800  -24.0439  -53.4283 C.2       17 UNK         0.5000 
     98 O          -2.5108  -23.9826  -54.6563 O.2       17 UNK        -0.5000 
     99 N          -2.2034  -23.0505  -52.6115 N.am      18 UNK        -0.5000 
    100 CA        -1.7187  -21.7327  -53.0221 C.3       18 UNK         0.1400 
    101 CB        -1.2942  -20.9583  -51.7697 C.3       18 UNK        -0.1800 
    102 C         -2.7311  -20.9148  -53.8500 C.2       18 UNK         0.5000 
    103 O         -2.3173  -19.9990  -54.5592 O.2       18 UNK        -0.5000 
    104 N         -4.0219  -21.2822  -53.8138 N.am      19 UNK        -0.5000 
    105 CA        -5.0691  -20.7272  -54.6755 C.3       19 UNK         0.1400 
    106 CB        -6.4197  -21.3557  -54.3073 C.3       19 UNK        -0.1800 
    107 C         -4.7836  -20.8983  -56.1823 C.2       19 UNK         0.5000 
    108 O         -5.1860  -20.0433  -56.9719 O.2       19 UNK        -0.5000 
    109 N         -4.0491  -21.9593  -56.5506 N.am      20 UNK        -0.5000 
    110 CA        -3.5736  -22.2011  -57.9137 C.3       20 UNK         0.1400 
    111 CB        -3.0570  -23.6437  -58.0200 C.3       20 UNK        -0.1800 
    112 C         -2.4865  -21.2038  -58.3640 C.2       20 UNK         0.5000 
    113 O         -2.3656  -20.9528  -59.5636 O.2       20 UNK        -0.5000 
    114 N         -1.7253  -20.6488  -57.4092 N.am      21 UNK        -0.5000 
    115 CA        -0.7421  -19.5935  -57.6517 C.3       21 UNK         0.1400 
    116 CB         0.3705  -19.6610  -56.5932 C.3       21 UNK        -0.1800 
    117 C         -1.4089  -18.2070  -57.6690 C.2       21 UNK         0.5000 
    118 O         -1.0330  -17.3709  -58.4920 O.2       21 UNK        -0.5000 
    119 N         -2.3919  -17.9928  -56.7818 N.am      22 UNK        -0.5000 
    120 CA        -3.2266  -16.7800  -56.7420 C.3       22 UNK         0.1400 
    121 C         -4.1093  -16.5980  -58.0093 C.2       22 UNK         0.5000 
    122 N         -4.7506  -17.6472  -58.5095 N.am      22 UNK        -0.7600 
    123 O         -4.2133  -15.4961  -58.5411 O.2       22 UNK        -0.5000 
    124 C124       -4.1143  -16.7085  -55.4752 C.3       23 UNK        -0.0398 
    125 S125       -3.1718  -16.7013  -53.9153 S.3       23 UNK        -0.2404 
    126 C126       -4.5396  -16.9482  -52.7430 C.3       23 UNK        -0.0205 
    127 H127       -1.8381   -8.5519  -44.9562 H         1 UNK         0.0600 
    128 H128       -2.7680   -9.2714  -46.2745 H         1 UNK         0.0600 
    129 H129       -1.3134   -8.3348  -46.6293 H         1 UNK         0.0600 
    130 H130       -2.4228  -11.4657  -46.4679 H         1 UNK         0.3000 
    131 H131        0.0892  -12.6510  -46.8035 H         1 UNK         0.0600 
    132 H132       -1.0957  -14.8005  -46.8915 H         1 UNK         0.0800 
    133 H133       -2.4951  -14.1194  -46.1007 H         1 UNK         0.0800 
    134 H134       -4.6633  -13.6904  -48.9323 H         1 UNK         0.0800 
    135 H135       -4.2846  -14.5264  -47.4548 H         1 UNK         0.0800 
    136 H136       -4.5677  -14.8037  -51.0621 H         1 UNK         0.1150 
    137 H137       -3.4651  -18.9382  -51.2326 H         1 UNK         0.1150 
    138 H138       -2.9934  -16.7371  -47.5805 H         1 UNK         0.1150 
    139 H139       -2.1872  -18.9793  -47.6792 H         1 UNK         0.0800 
    140 H140       -1.7029  -19.5425  -49.2476 H         1 UNK         0.0800 
    141 H141       -5.4031  -20.6516  -46.7749 H         1 UNK         0.0800 
    142 H142       -4.3127  -19.3112  -46.5934 H         1 UNK         0.0800 
    143 H143       -2.4696  -21.2360  -46.2381 H         1 UNK         0.0600 
    144 H144       -3.8887  -19.6751  -44.4191 H         1 UNK         0.3000 
    145 H145       -3.4799  -19.5851  -42.1607 H         1 UNK         0.0600 
    146 H146       -2.1052  -20.1494  -40.1666 H         1 UNK         0.0600 
    147 H147       -2.8099  -21.6073  -40.8515 H         1 UNK         0.0600 
    148 H148       -1.1097  -21.2427  -41.1233 H         1 UNK         0.0600 
    149 H149       -0.5701  -19.3401  -42.8203 H         1 UNK         0.3000 
    150 H150       -0.9613  -15.8153  -43.2870 H         1 UNK         0.0600 
    151 H151        0.8914  -17.4722  -41.4917 H         1 UNK         0.0600 
    152 H152       -0.0636  -16.0910  -40.9733 H         1 UNK         0.0600 
    153 H153        1.2468  -15.8662  -42.1258 H         1 UNK         0.0600 
    154 H154        1.1831  -17.4896  -43.9991 H         1 UNK         0.3000 
    155 H155        0.0165  -18.4020  -47.2678 H         1 UNK         0.0600 
    156 H156        2.2039  -16.5476  -46.2158 H         1 UNK         0.0600 
    157 H157        0.9716  -16.1085  -47.3906 H         1 UNK         0.0600 
    158 H158        2.1727  -17.3266  -47.7944 H         1 UNK         0.0600 
    159 H159        2.2275  -18.8556  -45.3356 H         1 UNK         0.3000 
    160 H160        1.2922  -22.1684  -44.7159 H         1 UNK         0.0600 
    161 H161        3.6070  -21.4440  -46.5917 H         1 UNK         0.0600 
    162 H162        2.3476  -22.6203  -46.9402 H         1 UNK         0.0600 
    163 H163        3.4737  -22.9157  -45.6272 H         1 UNK         0.0600 
    164 H164        3.7443  -20.7565  -44.2389 H         1 UNK         0.3000 
    165 H165        2.6758  -18.9685  -41.3566 H         1 UNK         0.0600 
    166 H166        4.4907  -20.2492  -40.2878 H         1 UNK         0.0600 
    167 H167        4.4940  -21.4189  -41.6084 H         1 UNK         0.0600 
    168 H168        3.1023  -21.2941  -40.5389 H         1 UNK         0.0600 
    169 H169        5.2487  -19.1025  -42.3359 H         1 UNK         0.3000 
    170 H170        6.0606  -17.0406  -43.1841 H         1 UNK         0.0600 
    171 H171        6.3638  -19.0399  -44.6695 H         1 UNK         0.0600 
    172 H172        5.4570  -18.2428  -45.9490 H         1 UNK         0.0600 
    173 H173        7.0143  -17.5986  -45.4287 H         1 UNK         0.0600 
    174 H174        5.2687  -15.8135  -45.6235 H         1 UNK         0.3000 
    175 H175        5.3631  -13.0931  -44.9889 H         1 UNK         0.0600 
    176 H176        2.8384  -14.3581  -46.1688 H         1 UNK         0.0600 
    177 H177        3.6453  -12.9316  -46.7997 H         1 UNK         0.0600 
    178 H178        4.4651  -14.4776  -46.8320 H         1 UNK         0.0600 
    179 H179        2.5065  -12.8020  -44.2432 H         1 UNK         0.3000 
    180 H180        3.0607  -10.6359  -41.6491 H         1 UNK         0.0600 
    181 H181        2.6146   -9.3729  -44.4034 H         1 UNK         0.0600 
    182 H182        3.7648   -8.8416  -43.1851 H         1 UNK         0.0600 
    183 H183        2.0411   -8.7031  -42.8758 H         1 UNK         0.0600 
    184 H184        0.9118  -11.0057  -43.6127 H         1 UNK         0.3000 
    185 H185       -0.4078  -13.8803  -42.0890 H         1 UNK         0.0600 
    186 H186       -2.4604  -12.6116  -41.5387 H         1 UNK         0.0600 
    187 H187       -1.2139  -12.2876  -40.3455 H         1 UNK         0.0600 
    188 H188       -1.5656  -11.0912  -41.5869 H         1 UNK         0.0600 
    189 H189       -1.6244  -12.0219  -43.8641 H         1 UNK         0.3000 
    190 H190       -4.7381  -22.3494  -43.9208 H         1 UNK         0.3000 
    191 H191       -5.4993  -24.8540  -45.0444 H         1 UNK         0.0600 
    192 H192       -5.9527  -25.4482  -42.6562 H         1 UNK         0.0600 
    193 H193       -6.6047  -23.8669  -43.0535 H         1 UNK         0.0600 
    194 H194       -5.1106  -23.9976  -42.1241 H         1 UNK         0.0600 
    195 H195       -2.4382  -23.7586  -43.5777 H         1 UNK         0.3000 
    196 H196       -1.3422  -26.4135  -43.1685 H         1 UNK         0.0600 
    197 H197        0.0657  -23.6990  -43.3573 H         1 UNK         0.0600 
    198 H198       -0.5748  -24.4065  -41.8765 H         1 UNK         0.0600 
    199 H199        0.7503  -25.1883  -42.7265 H         1 UNK         0.0600 
    200 H200       -1.6580  -24.2407  -45.8870 H         1 UNK         0.3000 
    201 H201        0.1740  -25.8019  -47.6246 H         1 UNK         0.0600 
    202 H202       -1.4884  -23.2806  -48.1791 H         1 UNK         0.0600 
    203 H203       -0.3129  -24.0102  -49.2640 H         1 UNK         0.0600 
    204 H204        0.2182  -23.2976  -47.7522 H         1 UNK         0.0600 
    205 H205       -2.8310  -26.2844  -46.4100 H         1 UNK         0.3000 
    206 H206       -4.7262  -27.2812  -46.9263 H         1 UNK         0.0600 
    207 H207       -3.1730  -29.1514  -47.5519 H         1 UNK         0.0600 
    208 H208       -4.6661  -29.1995  -48.4729 H         1 UNK         0.0600 
    209 H209       -3.1939  -28.6045  -49.2281 H         1 UNK         0.0600 
    210 H210       -4.2349  -24.6623  -48.0943 H         1 UNK         0.3000 
    211 H211       -5.0035  -23.1215  -49.4305 H         1 UNK         0.0600 
    212 H212       -7.3072  -23.2243  -50.2741 H         1 UNK         0.0600 
    213 H213       -7.2460  -23.9263  -48.6669 H         1 UNK         0.0600 
    214 H214       -7.3525  -24.9706  -50.0845 H         1 UNK         0.0600 
    215 H215       -3.3228  -25.4697  -50.6463 H         1 UNK         0.3000 
    216 H216       -3.9920  -25.6488  -53.4026 H         1 UNK         0.0600 
    217 H217       -1.2861  -26.0838  -52.0314 H         1 UNK         0.0600 
    218 H218       -1.7570  -26.6866  -53.6148 H         1 UNK         0.0600 
    219 H219       -2.5600  -27.2951  -52.1743 H         1 UNK         0.0600 
    220 H220       -2.3072  -23.2016  -51.6192 H         1 UNK         0.3000 
    221 H221       -0.8383  -21.8811  -53.6505 H         1 UNK         0.0600 
    222 H222       -0.4659  -21.4508  -51.2602 H         1 UNK         0.0600 
    223 H223       -2.1220  -20.8828  -51.0669 H         1 UNK         0.0600 
    224 H224       -0.9713  -19.9457  -52.0165 H         1 UNK         0.0600 
    225 H225       -4.2957  -22.0531  -53.2162 H         1 UNK         0.3000 
    226 H226       -5.1266  -19.6580  -54.4743 H         1 UNK         0.0600 
    227 H227       -6.4196  -22.4334  -54.4754 H         1 UNK         0.0600 
    228 H228       -6.6641  -21.1806  -53.2593 H         1 UNK         0.0600 
    229 H229       -7.2260  -20.9291  -54.9053 H         1 UNK         0.0600 
    230 H230       -3.7295  -22.6078  -55.8401 H         1 UNK         0.3000 
    231 H231       -4.4223  -22.0933  -58.5924 H         1 UNK         0.0600 
    232 H232       -2.1916  -23.8091  -57.3772 H         1 UNK         0.0600 
    233 H233       -2.7548  -23.8754  -59.0421 H         1 UNK         0.0600 
    234 H234       -3.8271  -24.3618  -57.7377 H         1 UNK         0.0600 
    235 H235       -1.9240  -20.8594  -56.4396 H         1 UNK         0.3000 
    236 H236       -0.2782  -19.7552  -58.6271 H         1 UNK         0.0600 
    237 H237        0.8404  -20.6444  -56.5769 H         1 UNK         0.0600 
    238 H238        1.1517  -18.9309  -56.8082 H         1 UNK         0.0600 
    239 H239       -0.0018  -19.4500  -55.5910 H         1 UNK         0.0600 
    240 H240       -2.5836  -18.7022  -56.0831 H         1 UNK         0.3000 
    241 H241       -2.5450  -15.9276  -56.7092 H         1 UNK         0.0600 
    242 H242       -5.3194  -17.5321  -59.3329 H         1 UNK         0.3800 
    243 H243       -4.7438  -18.5432  -58.0285 H         1 UNK         0.3800 
    244 H244       -4.8160  -17.5431  -55.4626 H         1 UNK         0.0800 
    245 H245       -4.7215  -15.8013  -55.4908 H         1 UNK         0.0800 
    246 H246       -5.0090  -17.9148  -52.9269 H         1 UNK         0.0800 
    247 H247       -5.3087  -16.1949  -52.9209 H         1 UNK         0.0800 
@<TRIPOS>BOND
     1    1    2 1    
     2    1  127 1    
     3    1  128 1    
     4    1  129 1    
     5    2    3 2    
     6    2    4 am   BACKBONE|DICT|INTERRES
     7    4    5 1    
     8    4  130 1    
     9    5    6 1    
    10    5   65 1    
    11    5  131 1    
    12    6    7 1    
    13    6  132 1    
    14    6  133 1    
    15    7    8 1    
    16    8    9 1    
    17    8  134 1    
    18    8  135 1    
    19    9   10 ar   
    20    9   14 ar   
    21   10   11 ar   
    22   10  136 1    
    23   11   12 ar   
    24   11  126 1    
    25   12   13 ar   
    26   12  137 1    
    27   13   14 ar   
    28   13   15 1    
    29   14  138 1    
    30   15   16 1    
    31   15  139 1    
    32   15  140 1    
    33   16   17 1    
    34   17   18 1    
    35   17  141 1    
    36   17  142 1    
    37   18   19 1    
    38   18   67 1    
    39   18  143 1    
    40   19   20 am   BACKBONE|DICT|INTERRES
    41   19  144 1    
    42   20   21 2    
    43   20   22 1    
    44   22   23 1    
    45   22   24 1    
    46   22  145 1    
    47   23  146 1    
    48   23  147 1    
    49   23  148 1    
    50   24   25 am   BACKBONE|DICT|INTERRES
    51   24  149 1    
    52   25   26 2    
    53   25   27 1    
    54   27   28 1    
    55   27   29 1    
    56   27  150 1    
    57   28  151 1    
    58   28  152 1    
    59   28  153 1    
    60   29   30 am   BACKBONE|DICT|INTERRES
    61   29  154 1    
    62   30   31 2    
    63   30   32 1    
    64   32   33 1    
    65   32   34 1    
    66   32  155 1    
    67   33  156 1    
    68   33  157 1    
    69   33  158 1    
    70   34   35 am   BACKBONE|DICT|INTERRES
    71   34  159 1    
    72   35   36 2    
    73   35   37 1    
    74   37   38 1    
    75   37   39 1    
    76   37  160 1    
    77   38  161 1    
    78   38  162 1    
    79   38  163 1    
    80   39   40 am   BACKBONE|DICT|INTERRES
    81   39  164 1    
    82   40   41 2    
    83   40   42 1    
    84   42   43 1    
    85   42   44 1    
    86   42  165 1    
    87   43  166 1    
    88   43  167 1    
    89   43  168 1    
    90   44   45 am   BACKBONE|DICT|INTERRES
    91   44  169 1    
    92   45   46 2    
    93   45   47 1    
    94   47   48 1    
    95   47   49 1    
    96   47  170 1    
    97   48  171 1    
    98   48  172 1    
    99   48  173 1    
   100   49   50 am   BACKBONE|DICT|INTERRES
   101   49  174 1    
   102   50   51 2    
   103   50   52 1    
   104   52   53 1    
   105   52   54 1    
   106   52  175 1    
   107   53  176 1    
   108   53  177 1    
   109   53  178 1    
   110   54   55 am   BACKBONE|DICT|INTERRES
   111   54  179 1    
   112   55   56 2    
   113   55   57 1    
   114   57   58 1    
   115   57   59 1    
   116   57  180 1    
   117   58  181 1    
   118   58  182 1    
   119   58  183 1    
   120   59   60 am   BACKBONE|DICT|INTERRES
   121   59  184 1    
   122   60   61 2    
   123   60   62 1    
   124   62   63 1    
   125   62   64 1    
   126   62  185 1    
   127   63  186 1    
   128   63  187 1    
   129   63  188 1    
   130   64   65 am   BACKBONE|DICT|INTERRES
   131   64  189 1    
   132   65   66 2    
   133   67   68 2    
   134   67   69 am   BACKBONE|DICT|INTERRES
   135   69   70 1    
   136   69  190 1    
   137   70   71 1    
   138   70   72 1    
   139   70  191 1    
   140   71  192 1    
   141   71  193 1    
   142   71  194 1    
   143   72   73 2    
   144   72   74 am   BACKBONE|DICT|INTERRES
   145   74   75 1    
   146   74  195 1    
   147   75   76 1    
   148   75   77 1    
   149   75  196 1    
   150   76  197 1    
   151   76  198 1    
   152   76  199 1    
   153   77   78 2    
   154   77   79 am   BACKBONE|DICT|INTERRES
   155   79   80 1    
   156   79  200 1    
   157   80   81 1    
   158   80   82 1    
   159   80  201 1    
   160   81  202 1    
   161   81  203 1    
   162   81  204 1    
   163   82   83 2    
   164   82   84 am   BACKBONE|DICT|INTERRES
   165   84   85 1    
   166   84  205 1    
   167   85   86 1    
   168   85   87 1    
   169   85  206 1    
   170   86  207 1    
   171   86  208 1    
   172   86  209 1    
   173   87   88 2    
   174   87   89 am   BACKBONE|DICT|INTERRES
   175   89   90 1    
   176   89  210 1    
   177   90   91 1    
   178   90   92 1    
   179   90  211 1    
   180   91  212 1    
   181   91  213 1    
   182   91  214 1    
   183   92   93 2    
   184   92   94 am   BACKBONE|DICT|INTERRES
   185   94   95 1    
   186   94  215 1    
   187   95   96 1    
   188   95   97 1    
   189   95  216 1    
   190   96  217 1    
   191   96  218 1    
   192   96  219 1    
   193   97   98 2    
   194   97   99 am   BACKBONE|DICT|INTERRES
   195   99  100 1    
   196   99  220 1    
   197  100  101 1    
   198  100  102 1    
   199  100  221 1    
   200  101  222 1    
   201  101  223 1    
   202  101  224 1    
   203  102  103 2    
   204  102  104 am   BACKBONE|DICT|INTERRES
   205  104  105 1    
   206  104  225 1    
   207  105  106 1    
   208  105  107 1    
   209  105  226 1    
   210  106  227 1    
   211  106  228 1    
   212  106  229 1    
   213  107  108 2    
   214  107  109 am   BACKBONE|DICT|INTERRES
   215  109  110 1    
   216  109  230 1    
   217  110  111 1    
   218  110  112 1    
   219  110  231 1    
   220  111  232 1    
   221  111  233 1    
   222  111  234 1    
   223  112  113 2    
   224  112  114 am   BACKBONE|DICT|INTERRES
   225  114  115 1    
   226  114  235 1    
   227  115  116 1    
   228  115  117 1    
   229  115  236 1    
   230  116  237 1    
   231  116  238 1    
   232  116  239 1    
   233  117  118 2    
   234  117  119 am   BACKBONE|DICT|INTERRES
   235  119  120 1    
   236  119  240 1    
   237  120  121 1    
   238  120  124 1    
   239  120  241 1    
   240  121  122 am   BACKBONE|DICT|INTERRES
   241  121  123 2    
   242  122  242 1    
   243  122  243 1    
   244  124  125 1    
   245  124  244 1    
   246  124  245 1    
   247  125  126 1    
   248  126  246 1    
   249  126  247 1    
@<TRIPOS>SUBSTRUCTURE
     1 UNK         1 GROUP             0       ****    0 ROOT    
