@<TRIPOS>MOLECULE
3R540
247   249    1
SMALL
USER_CHARGES


@<TRIPOS>ATOM
      1 CA         -4.9994  -14.5948  -47.5765 C.3       0 UNK        -0.1800 
      2 C          -4.0040  -14.2820  -46.4705 C.2       0 UNK         0.5000 
      3 O          -4.0419  -13.1833  -45.9188 O.2       0 UNK        -0.5000 
      4 N          -3.1252  -15.2499  -46.1646 N.am      1 UNK        -0.5000 
      5 CA         -2.1117  -15.2655  -45.0931 C.3       1 UNK         0.1400 
      6 C6         -2.6391  -15.7792  -43.7227 C.3       23 UNK        -0.0398 
      7 S7         -4.0393  -14.8339  -43.0261 S.3       23 UNK        -0.2404 
      8 C8         -4.9565  -16.1197  -42.1133 C.3       23 UNK        -0.0205 
      9 C9         -5.4366  -17.3113  -42.9429 C.ar      23 UNK        -0.0193 
     10 C10        -5.7697  -17.2037  -44.3008 C.ar      23 UNK        -0.1150 
     11 C11        -6.2122  -18.3214  -45.0162 C.ar      23 UNK        -0.0193 
     12 C12        -6.3464  -19.5483  -44.3609 C.ar      23 UNK        -0.1150 
     13 C13        -6.0258  -19.6685  -43.0063 C.ar      23 UNK        -0.0193 
     14 C14        -5.5700  -18.5490  -42.3081 C.ar      23 UNK        -0.1150 
     15 C15        -6.1865  -20.9968  -42.2828 C.3       23 UNK        -0.0205 
     16 S16        -4.6255  -21.9323  -42.2259 S.3       23 UNK        -0.2404 
     17 C17        -4.4719  -22.4880  -43.9576 C.3       23 UNK        -0.0398 
     18 CA         -3.3173  -21.7759  -44.7283 C.3       11 UNK         0.1400 
     19 N          -2.0161  -21.9766  -44.0743 N.am      11 UNK        -0.5000 
     20 C          -1.4001  -23.1535  -43.9064 C.2       10 UNK         0.5000 
     21 O          -1.7348  -24.1875  -44.4905 O.2       10 UNK        -0.5000 
     22 CA         -0.2357  -23.1744  -42.9002 C.3       10 UNK         0.1400 
     23 CB          0.3347  -24.5959  -42.6811 C.3       10 UNK        -0.1800 
     24 N           0.8137  -22.2242  -43.2781 N.am      10 UNK        -0.5000 
     25 C           1.8134  -21.8380  -42.4716 C.2       9 UNK         0.5000 
     26 O           1.9284  -22.2015  -41.3002 O.2       9 UNK        -0.5000 
     27 CA          2.8631  -20.8794  -43.0611 C.3       9 UNK         0.1400 
     28 CB          3.7938  -21.6058  -44.0435 C.3       9 UNK        -0.1800 
     29 N           2.2575  -19.7185  -43.7112 N.am      9 UNK        -0.5000 
     30 C           1.7269  -18.6848  -43.0388 C.2       8 UNK         0.5000 
     31 O           1.7033  -18.6160  -41.8094 O.2       8 UNK        -0.5000 
     32 CA          1.1296  -17.5211  -43.8556 C.3       8 UNK         0.1400 
     33 CB          2.0970  -16.3289  -43.8914 C.3       8 UNK        -0.1800 
     34 N           0.7694  -17.8823  -45.2253 N.am      8 UNK        -0.5000 
     35 C          -0.2239  -18.7209  -45.5496 C.2       7 UNK         0.5000 
     36 O          -0.9760  -19.2319  -44.7202 O.2       7 UNK        -0.5000 
     37 CA         -0.4145  -19.0369  -47.0456 C.3       7 UNK         0.1400 
     38 CB         -1.4907  -18.1064  -47.6179 C.3       7 UNK        -0.1800 
     39 N           0.7935  -18.9185  -47.8670 N.am      7 UNK        -0.5000 
     40 C           1.9623  -19.5411  -47.6491 C.2       6 UNK         0.5000 
     41 O           2.1597  -20.3080  -46.7068 O.2       6 UNK        -0.5000 
     42 CA          3.1224  -19.2109  -48.6093 C.3       6 UNK         0.1400 
     43 CB          3.2937  -20.3105  -49.6644 C.3       6 UNK        -0.1800 
     44 N           2.9653  -17.9181  -49.2815 N.am      6 UNK        -0.5000 
     45 C           3.0881  -16.7348  -48.6672 C.2       5 UNK         0.5000 
     46 O           3.3572  -16.6167  -47.4696 O.2       5 UNK        -0.5000 
     47 CA          2.8254  -15.4951  -49.5366 C.3       5 UNK         0.1400 
     48 CB          1.3148  -15.2433  -49.6657 C.3       5 UNK        -0.1800 
     49 N           3.4413  -14.3121  -48.9433 N.am      5 UNK        -0.5000 
     50 C           4.5843  -13.7495  -49.3571 C.2       4 UNK         0.5000 
     51 O           5.2507  -14.1824  -50.2987 O.2       4 UNK        -0.5000 
     52 CA          5.0649  -12.4752  -48.6307 C.3       4 UNK         0.1400 
     53 CB          4.8850  -11.2448  -49.5346 C.3       4 UNK        -0.1800 
     54 N           4.3649  -12.2281  -47.3706 N.am      4 UNK        -0.5000 
     55 C           4.6582  -12.8145  -46.2032 C.2       3 UNK         0.5000 
     56 O           5.6113  -13.5771  -46.0412 O.2       3 UNK        -0.5000 
     57 CA          3.7218  -12.5033  -45.0166 C.3       3 UNK         0.1400 
     58 CB          4.3306  -11.4103  -44.1248 C.3       3 UNK        -0.1800 
     59 N           2.3607  -12.1031  -45.3994 N.am      3 UNK        -0.5000 
     60 C           1.5002  -12.8828  -46.0658 C.2       2 UNK         0.5000 
     61 O           1.7962  -13.9869  -46.5221 O.2       2 UNK        -0.5000 
     62 CA          0.0819  -12.3353  -46.2958 C.3       2 UNK         0.1400 
     63 CB         -0.0349  -11.7268  -47.7017 C.3       2 UNK        -0.1800 
     64 N          -0.9029  -13.4070  -46.1583 N.am      2 UNK        -0.5000 
     65 C          -1.2094  -14.0111  -45.0014 C.2       1 UNK         0.5000 
     66 O          -0.7767  -13.6352  -43.9101 O.2       1 UNK        -0.5000 
     67 C          -3.2935  -22.1290  -46.2377 C.2       11 UNK         0.5000 
     68 O          -2.2333  -22.1017  -46.8674 O.2       11 UNK        -0.5000 
     69 N          -4.4658  -22.4634  -46.7999 N.am      12 UNK        -0.5000 
     70 CA         -4.6752  -22.8283  -48.2020 C.3       12 UNK         0.1400 
     71 CB         -6.1745  -23.0516  -48.4433 C.3       12 UNK        -0.1800 
     72 C          -3.8694  -24.0581  -48.6680 C.2       12 UNK         0.5000 
     73 O          -3.5694  -24.1628  -49.8584 O.2       12 UNK        -0.5000 
     74 N          -3.5222  -24.9499  -47.7286 N.am      13 UNK        -0.5000 
     75 CA         -2.6672  -26.1132  -47.9552 C.3       13 UNK         0.1400 
     76 CB         -2.7146  -27.0369  -46.7285 C.3       13 UNK        -0.1800 
     77 C          -1.2229  -25.7026  -48.2876 C.2       13 UNK         0.5000 
     78 O          -0.6920  -26.1351  -49.3116 O.2       13 UNK        -0.5000 
     79 N          -0.6347  -24.8280  -47.4561 N.am      14 UNK        -0.5000 
     80 CA          0.6906  -24.2429  -47.6899 C.3       14 UNK         0.1400 
     81 CB          1.1528  -23.4716  -46.4524 C.3       14 UNK        -0.1800 
     82 C           0.7239  -23.3230  -48.9203 C.2       14 UNK         0.5000 
     83 O           1.7403  -23.2663  -49.6105 O.2       14 UNK        -0.5000 
     84 N          -0.4126  -22.6756  -49.2066 N.am      15 UNK        -0.5000 
     85 CA         -0.6578  -21.8794  -50.4072 C.3       15 UNK         0.1400 
     86 CB         -1.9419  -21.0692  -50.2071 C.3       15 UNK        -0.1800 
     87 C          -0.7553  -22.7015  -51.7122 C.2       15 UNK         0.5000 
     88 O          -1.0028  -22.1042  -52.7590 O.2       15 UNK        -0.5000 
     89 N          -0.5928  -24.0320  -51.6418 N.am      16 UNK        -0.5000 
     90 CA         -0.6293  -24.9939  -52.7461 C.3       16 UNK         0.1400 
     91 CB          0.5057  -24.7236  -53.7570 C.3       16 UNK        -0.1800 
     92 C          -2.0241  -25.0671  -53.3933 C.2       16 UNK         0.5000 
     93 O          -2.1624  -24.8806  -54.6031 O.2       16 UNK        -0.5000 
     94 N          -3.0313  -25.3221  -52.5459 N.am      17 UNK        -0.5000 
     95 CA         -4.4637  -25.3614  -52.8541 C.3       17 UNK         0.1400 
     96 CB         -4.7983  -26.4653  -53.8801 C.3       17 UNK        -0.1800 
     97 C          -4.9938  -23.9683  -53.2436 C.2       17 UNK         0.5000 
     98 O          -5.6881  -23.8218  -54.2511 O.2       17 UNK        -0.5000 
     99 N          -4.6441  -22.9761  -52.4117 N.am      18 UNK        -0.5000 
    100 CA        -5.0286  -21.5639  -52.5068 C.3       18 UNK         0.1400 
    101 CB        -6.5402  -21.3986  -52.2462 C.3       18 UNK        -0.1800 
    102 C         -4.5594  -20.8752  -53.8087 C.2       18 UNK         0.5000 
    103 O         -5.3127  -20.1024  -54.4050 O.2       18 UNK        -0.5000 
    104 N         -3.3249  -21.1723  -54.2349 N.am      19 UNK        -0.5000 
    105 CA        -2.6759  -20.5356  -55.3786 C.3       19 UNK         0.1400 
    106 CB        -1.7898  -21.5619  -56.1037 C.3       19 UNK        -0.1800 
    107 C         -1.8592  -19.3172  -54.9180 C.2       19 UNK         0.5000 
    108 O         -2.0592  -18.2139  -55.4284 O.2       19 UNK        -0.5000 
    109 N         -0.9670  -19.5315  -53.9433 N.am      20 UNK        -0.5000 
    110 CA        -0.1180  -18.5113  -53.3323 C.3       20 UNK         0.1400 
    111 CB         1.2172  -19.1552  -52.9205 C.3       20 UNK        -0.1800 
    112 C         -0.8572  -17.8532  -52.1538 C.2       20 UNK         0.5000 
    113 O         -0.5247  -18.1131  -50.9955 O.2       20 UNK        -0.5000 
    114 N         -1.8599  -17.0348  -52.5021 N.am      21 UNK        -0.5000 
    115 CA        -2.8632  -16.3940  -51.6434 C.3       21 UNK         0.1400 
    116 CB        -2.2221  -15.5805  -50.4981 C.3       21 UNK        -0.1800 
    117 C         -3.9511  -17.3807  -51.1660 C.2       21 UNK         0.5000 
    118 O         -3.9480  -18.5451  -51.5635 O.2       21 UNK        -0.5000 
    119 N         -4.9124  -16.8653  -50.3875 N.am      22 UNK        -0.5000 
    120 CA        -6.1685  -17.5283  -49.9732 C.3       22 UNK         0.1400 
    121 C         -7.2227  -17.6927  -51.1126 C.2       22 UNK         0.5000 
    122 N         -7.0321  -17.1153  -52.2923 N.am      22 UNK        -0.7600 
    123 O         -8.2597  -18.3190  -50.9130 O.2       22 UNK        -0.5000 
    124 C124       -5.9715  -18.8439  -49.1607 C.3       23 UNK        -0.0398 
    125 S125       -5.1427  -18.5910  -47.5560 S.3       23 UNK        -0.2404 
    126 C126       -6.5697  -18.2101  -46.4902 C.3       23 UNK        -0.0205 
    127 H127       -4.8950  -15.6207  -47.9233 H         1 UNK         0.0600 
    128 H128       -4.8478  -13.9247  -48.4225 H         1 UNK         0.0600 
    129 H129       -6.0185  -14.4643  -47.2122 H         1 UNK         0.0600 
    130 H130       -3.1918  -16.1131  -46.6835 H         1 UNK         0.3000 
    131 H131       -1.4078  -16.0279  -45.4232 H         1 UNK         0.0600 
    132 H132       -1.8407  -15.8067  -42.9798 H         1 UNK         0.0800 
    133 H133       -2.9393  -16.8200  -43.8447 H         1 UNK         0.0800 
    134 H134       -5.8260  -15.6558  -41.6465 H         1 UNK         0.0800 
    135 H135       -4.3192  -16.4671  -41.2984 H         1 UNK         0.0800 
    136 H136       -5.6847  -16.2526  -44.8056 H         1 UNK         0.1150 
    137 H137       -6.7074  -20.4067  -44.9086 H         1 UNK         0.1150 
    138 H138       -5.3242  -18.6434  -41.2593 H         1 UNK         0.1150 
    139 H139       -6.5210  -20.8153  -41.2602 H         1 UNK         0.0800 
    140 H140       -6.9674  -21.5994  -42.7493 H         1 UNK         0.0800 
    141 H141       -5.4363  -22.3335  -44.4388 H         1 UNK         0.0800 
    142 H142       -4.3196  -23.5684  -43.9508 H         1 UNK         0.0800 
    143 H143       -3.5053  -20.7016  -44.6910 H         1 UNK         0.0600 
    144 H144       -1.6174  -21.1445  -43.6590 H         1 UNK         0.3000 
    145 H145       -0.6597  -22.8417  -41.9504 H         1 UNK         0.0600 
    146 H146        1.0516  -24.6241  -41.8614 H         1 UNK         0.0600 
    147 H147       -0.4592  -25.2982  -42.4236 H         1 UNK         0.0600 
    148 H148        0.8326  -24.9814  -43.5689 H         1 UNK         0.0600 
    149 H149        0.7670  -21.8527  -44.2167 H         1 UNK         0.3000 
    150 H150        3.4830  -20.5226  -42.2354 H         1 UNK         0.0600 
    151 H151        4.2816  -22.4548  -43.5632 H         1 UNK         0.0600 
    152 H152        4.5781  -20.9419  -44.4071 H         1 UNK         0.0600 
    153 H153        3.2531  -21.9861  -44.9080 H         1 UNK         0.0600 
    154 H154        2.2258  -19.7256  -44.7253 H         1 UNK         0.3000 
    155 H155        0.2217  -17.2030  -43.3396 H         1 UNK         0.0600 
    156 H156        2.9882  -16.5485  -44.4810 H         1 UNK         0.0600 
    157 H157        2.4235  -16.0535  -42.8878 H         1 UNK         0.0600 
    158 H158        1.6168  -15.4519  -44.3225 H         1 UNK         0.0600 
    159 H159        1.3545  -17.5102  -45.9617 H         1 UNK         0.3000 
    160 H160       -0.7580  -20.0676  -47.1202 H         1 UNK         0.0600 
    161 H161       -1.7815  -18.3958  -48.6265 H         1 UNK         0.0600 
    162 H162       -1.1431  -17.0738  -47.6519 H         1 UNK         0.0600 
    163 H163       -2.3881  -18.1335  -47.0014 H         1 UNK         0.0600 
    164 H164        0.7150  -18.3327  -48.6868 H         1 UNK         0.3000 
    165 H165        4.0362  -19.1745  -48.0121 H         1 UNK         0.0600 
    166 H166        4.1332  -20.0986  -50.3265 H         1 UNK         0.0600 
    167 H167        3.4922  -21.2719  -49.1897 H         1 UNK         0.0600 
    168 H168        2.4010  -20.4243  -50.2779 H         1 UNK         0.0600 
    169 H169        2.7281  -17.9446  -50.2622 H         1 UNK         0.3000 
    170 H170        3.2309  -15.6749  -50.5344 H         1 UNK         0.0600 
    171 H171        0.8313  -16.0602  -50.1979 H         1 UNK         0.0600 
    172 H172        0.8292  -15.1556  -48.6935 H         1 UNK         0.0600 
    173 H173        1.1120  -14.3304  -50.2256 H         1 UNK         0.0600 
    174 H174        3.0051  -13.9876  -48.0858 H         1 UNK         0.3000 
    175 H175        6.1315  -12.5952  -48.4288 H         1 UNK         0.0600 
    176 H176        3.8353  -11.0738  -49.7771 H         1 UNK         0.0600 
    177 H177        5.2711  -10.3442  -49.0568 H         1 UNK         0.0600 
    178 H178        5.4233  -11.3673  -50.4754 H         1 UNK         0.0600 
    179 H179        3.5664  -11.6123  -47.4079 H         1 UNK         0.3000 
    180 H180        3.6401  -13.4184  -44.4259 H         1 UNK         0.0600 
    181 H181        4.4085  -10.4587  -44.6521 H         1 UNK         0.0600 
    182 H182        5.3335  -11.6865  -43.7964 H         1 UNK         0.0600 
    183 H183        3.7303  -11.2512  -43.2288 H         1 UNK         0.0600 
    184 H184        2.0508  -11.2004  -45.0692 H         1 UNK         0.3000 
    185 H185       -0.1340  -11.5629  -45.5547 H         1 UNK         0.0600 
    186 H186       -1.0346  -11.3286  -47.8767 H         1 UNK         0.0600 
    187 H187        0.6693  -10.9042  -47.8316 H         1 UNK         0.0600 
    188 H188        0.1736  -12.4632  -48.4792 H         1 UNK         0.0600 
    189 H189       -1.2856  -13.7818  -47.0126 H         1 UNK         0.3000 
    190 H190       -5.2965  -22.4562  -46.2286 H         1 UNK         0.3000 
    191 H191       -4.3700  -21.9729  -48.8026 H         1 UNK         0.0600 
    192 H192       -6.3660  -23.3425  -49.4769 H         1 UNK         0.0600 
    193 H193       -6.7445  -22.1420  -48.2519 H         1 UNK         0.0600 
    194 H194       -6.5721  -23.8407  -47.8041 H         1 UNK         0.0600 
    195 H195       -3.7987  -24.7718  -46.7747 H         1 UNK         0.3000 
    196 H196       -3.0642  -26.6645  -48.8104 H         1 UNK         0.0600 
    197 H197       -2.0872  -27.9164  -46.8785 H         1 UNK         0.0600 
    198 H198       -3.7288  -27.3902  -46.5414 H         1 UNK         0.0600 
    199 H199       -2.3641  -26.5338  -45.8266 H         1 UNK         0.0600 
    200 H200       -1.1434  -24.4989  -46.6434 H         1 UNK         0.3000 
    201 H201        1.3944  -25.0592  -47.8655 H         1 UNK         0.0600 
    202 H202        0.4813  -22.6442  -46.2211 H         1 UNK         0.0600 
    203 H203        2.1463  -23.0542  -46.6161 H         1 UNK         0.0600 
    204 H204        1.2157  -24.1242  -45.5854 H         1 UNK         0.0600 
    205 H205       -1.1737  -22.7360  -48.5385 H         1 UNK         0.3000 
    206 H206        0.1702  -21.1790  -50.5110 H         1 UNK         0.0600 
    207 H207       -1.9724  -20.5842  -49.2337 H         1 UNK         0.0600 
    208 H208       -2.0353  -20.2947  -50.9664 H         1 UNK         0.0600 
    209 H209       -2.8172  -21.7032  -50.2971 H         1 UNK         0.0600 
    210 H210       -0.4411  -24.4391  -50.7275 H         1 UNK         0.3000 
    211 H211       -0.4433  -25.9737  -52.3035 H         1 UNK         0.0600 
    212 H212        1.4758  -24.6975  -53.2608 H         1 UNK         0.0600 
    213 H213        0.3725  -23.7773  -54.2815 H         1 UNK         0.0600 
    214 H214        0.5475  -25.5094  -54.5119 H         1 UNK         0.0600 
    215 H215       -2.8123  -25.3702  -51.5580 H         1 UNK         0.3000 
    216 H216       -4.9657  -25.6259  -51.9221 H         1 UNK         0.0600 
    217 H217       -5.8775  -26.5767  -53.9897 H         1 UNK         0.0600 
    218 H218       -4.4030  -27.4304  -53.5637 H         1 UNK         0.0600 
    219 H219       -4.3946  -26.2441  -54.8683 H         1 UNK         0.0600 
    220 H220       -4.0797  -23.2322  -51.6085 H         1 UNK         0.3000 
    221 H221       -4.5105  -21.0546  -51.6967 H         1 UNK         0.0600 
    222 H222       -7.1416  -21.8823  -53.0161 H         1 UNK         0.0600 
    223 H223       -6.8257  -21.8173  -51.2822 H         1 UNK         0.0600 
    224 H224       -6.8187  -20.3459  -52.2333 H         1 UNK         0.0600 
    225 H225       -2.7404  -21.7877  -53.6793 H         1 UNK         0.3000 
    226 H226       -3.4273  -20.1891  -56.0912 H         1 UNK         0.0600 
    227 H227       -1.2999  -21.1123  -56.9681 H         1 UNK         0.0600 
    228 H228       -1.0101  -21.9623  -55.4555 H         1 UNK         0.0600 
    229 H229       -2.3816  -22.4034  -56.4645 H         1 UNK         0.0600 
    230 H230       -0.9112  -20.4645  -53.5400 H         1 UNK         0.3000 
    231 H231        0.1076  -17.7306  -54.0618 H         1 UNK         0.0600 
    232 H232        1.7561  -19.5276  -53.7917 H         1 UNK         0.0600 
    233 H233        1.0690  -19.9933  -52.2424 H         1 UNK         0.0600 
    234 H234        1.8644  -18.4331  -52.4220 H         1 UNK         0.0600 
    235 H235       -2.0571  -16.9743  -53.4933 H         1 UNK         0.3000 
    236 H236       -3.3754  -15.6825  -52.2924 H         1 UNK         0.0600 
    237 H237       -1.4461  -14.9163  -50.8780 H         1 UNK         0.0600 
    238 H238       -2.9561  -14.9532  -49.9930 H         1 UNK         0.0600 
    239 H239       -1.7719  -16.2221  -49.7443 H         1 UNK         0.0600 
    240 H240       -4.8489  -15.8894  -50.1414 H         1 UNK         0.3000 
    241 H241       -6.6451  -16.8168  -49.2986 H         1 UNK         0.0600 
    242 H242       -6.1971  -16.5877  -52.4827 H         1 UNK         0.3800 
    243 H243       -7.7298  -17.2236  -53.0114 H         1 UNK         0.3800 
    244 H244       -6.9270  -19.3321  -48.9646 H         1 UNK         0.0800 
    245 H245       -5.3953  -19.5707  -49.7325 H         1 UNK         0.0800 
    246 H246       -6.9319  -17.2062  -46.7164 H         1 UNK         0.0800 
    247 H247       -7.3922  -18.8910  -46.7137 H         1 UNK         0.0800 
@<TRIPOS>BOND
     1    1    2 1    
     2    1  127 1    
     3    1  128 1    
     4    1  129 1    
     5    2    3 2    
     6    2    4 am   BACKBONE|DICT|INTERRES
     7    4    5 1    
     8    4  130 1    
     9    5    6 1    
    10    5   65 1    
    11    5  131 1    
    12    6    7 1    
    13    6  132 1    
    14    6  133 1    
    15    7    8 1    
    16    8    9 1    
    17    8  134 1    
    18    8  135 1    
    19    9   10 ar   
    20    9   14 ar   
    21   10   11 ar   
    22   10  136 1    
    23   11   12 ar   
    24   11  126 1    
    25   12   13 ar   
    26   12  137 1    
    27   13   14 ar   
    28   13   15 1    
    29   14  138 1    
    30   15   16 1    
    31   15  139 1    
    32   15  140 1    
    33   16   17 1    
    34   17   18 1    
    35   17  141 1    
    36   17  142 1    
    37   18   19 1    
    38   18   67 1    
    39   18  143 1    
    40   19   20 am   BACKBONE|DICT|INTERRES
    41   19  144 1    
    42   20   21 2    
    43   20   22 1    
    44   22   23 1    
    45   22   24 1    
    46   22  145 1    
    47   23  146 1    
    48   23  147 1    
    49   23  148 1    
    50   24   25 am   BACKBONE|DICT|INTERRES
    51   24  149 1    
    52   25   26 2    
    53   25   27 1    
    54   27   28 1    
    55   27   29 1    
    56   27  150 1    
    57   28  151 1    
    58   28  152 1    
    59   28  153 1    
    60   29   30 am   BACKBONE|DICT|INTERRES
    61   29  154 1    
    62   30   31 2    
    63   30   32 1    
    64   32   33 1    
    65   32   34 1    
    66   32  155 1    
    67   33  156 1    
    68   33  157 1    
    69   33  158 1    
    70   34   35 am   BACKBONE|DICT|INTERRES
    71   34  159 1    
    72   35   36 2    
    73   35   37 1    
    74   37   38 1    
    75   37   39 1    
    76   37  160 1    
    77   38  161 1    
    78   38  162 1    
    79   38  163 1    
    80   39   40 am   BACKBONE|DICT|INTERRES
    81   39  164 1    
    82   40   41 2    
    83   40   42 1    
    84   42   43 1    
    85   42   44 1    
    86   42  165 1    
    87   43  166 1    
    88   43  167 1    
    89   43  168 1    
    90   44   45 am   BACKBONE|DICT|INTERRES
    91   44  169 1    
    92   45   46 2    
    93   45   47 1    
    94   47   48 1    
    95   47   49 1    
    96   47  170 1    
    97   48  171 1    
    98   48  172 1    
    99   48  173 1    
   100   49   50 am   BACKBONE|DICT|INTERRES
   101   49  174 1    
   102   50   51 2    
   103   50   52 1    
   104   52   53 1    
   105   52   54 1    
   106   52  175 1    
   107   53  176 1    
   108   53  177 1    
   109   53  178 1    
   110   54   55 am   BACKBONE|DICT|INTERRES
   111   54  179 1    
   112   55   56 2    
   113   55   57 1    
   114   57   58 1    
   115   57   59 1    
   116   57  180 1    
   117   58  181 1    
   118   58  182 1    
   119   58  183 1    
   120   59   60 am   BACKBONE|DICT|INTERRES
   121   59  184 1    
   122   60   61 2    
   123   60   62 1    
   124   62   63 1    
   125   62   64 1    
   126   62  185 1    
   127   63  186 1    
   128   63  187 1    
   129   63  188 1    
   130   64   65 am   BACKBONE|DICT|INTERRES
   131   64  189 1    
   132   65   66 2    
   133   67   68 2    
   134   67   69 am   BACKBONE|DICT|INTERRES
   135   69   70 1    
   136   69  190 1    
   137   70   71 1    
   138   70   72 1    
   139   70  191 1    
   140   71  192 1    
   141   71  193 1    
   142   71  194 1    
   143   72   73 2    
   144   72   74 am   BACKBONE|DICT|INTERRES
   145   74   75 1    
   146   74  195 1    
   147   75   76 1    
   148   75   77 1    
   149   75  196 1    
   150   76  197 1    
   151   76  198 1    
   152   76  199 1    
   153   77   78 2    
   154   77   79 am   BACKBONE|DICT|INTERRES
   155   79   80 1    
   156   79  200 1    
   157   80   81 1    
   158   80   82 1    
   159   80  201 1    
   160   81  202 1    
   161   81  203 1    
   162   81  204 1    
   163   82   83 2    
   164   82   84 am   BACKBONE|DICT|INTERRES
   165   84   85 1    
   166   84  205 1    
   167   85   86 1    
   168   85   87 1    
   169   85  206 1    
   170   86  207 1    
   171   86  208 1    
   172   86  209 1    
   173   87   88 2    
   174   87   89 am   BACKBONE|DICT|INTERRES
   175   89   90 1    
   176   89  210 1    
   177   90   91 1    
   178   90   92 1    
   179   90  211 1    
   180   91  212 1    
   181   91  213 1    
   182   91  214 1    
   183   92   93 2    
   184   92   94 am   BACKBONE|DICT|INTERRES
   185   94   95 1    
   186   94  215 1    
   187   95   96 1    
   188   95   97 1    
   189   95  216 1    
   190   96  217 1    
   191   96  218 1    
   192   96  219 1    
   193   97   98 2    
   194   97   99 am   BACKBONE|DICT|INTERRES
   195   99  100 1    
   196   99  220 1    
   197  100  101 1    
   198  100  102 1    
   199  100  221 1    
   200  101  222 1    
   201  101  223 1    
   202  101  224 1    
   203  102  103 2    
   204  102  104 am   BACKBONE|DICT|INTERRES
   205  104  105 1    
   206  104  225 1    
   207  105  106 1    
   208  105  107 1    
   209  105  226 1    
   210  106  227 1    
   211  106  228 1    
   212  106  229 1    
   213  107  108 2    
   214  107  109 am   BACKBONE|DICT|INTERRES
   215  109  110 1    
   216  109  230 1    
   217  110  111 1    
   218  110  112 1    
   219  110  231 1    
   220  111  232 1    
   221  111  233 1    
   222  111  234 1    
   223  112  113 2    
   224  112  114 am   BACKBONE|DICT|INTERRES
   225  114  115 1    
   226  114  235 1    
   227  115  116 1    
   228  115  117 1    
   229  115  236 1    
   230  116  237 1    
   231  116  238 1    
   232  116  239 1    
   233  117  118 2    
   234  117  119 am   BACKBONE|DICT|INTERRES
   235  119  120 1    
   236  119  240 1    
   237  120  121 1    
   238  120  124 1    
   239  120  241 1    
   240  121  122 am   BACKBONE|DICT|INTERRES
   241  121  123 2    
   242  122  242 1    
   243  122  243 1    
   244  124  125 1    
   245  124  244 1    
   246  124  245 1    
   247  125  126 1    
   248  126  246 1    
   249  126  247 1    
@<TRIPOS>SUBSTRUCTURE
     1 UNK         1 GROUP             0       ****    0 ROOT    
