@<TRIPOS>MOLECULE
3R540
247   249    1
SMALL
USER_CHARGES


@<TRIPOS>ATOM
      1 CA          6.6221  -14.6677  -47.8332 C.3       0 UNK        -0.1800 
      2 C           5.7726  -14.0577  -46.7280 C.2       0 UNK         0.5000 
      3 O           6.0867  -14.2199  -45.5481 O.2       0 UNK        -0.5000 
      4 N           4.6944  -13.3574  -47.1002 N.am      1 UNK        -0.5000 
      5 CA          3.7599  -12.6870  -46.1905 C.3       1 UNK         0.1400 
      6 C6          2.3581  -12.4971  -46.8252 C.3       23 UNK        -0.0398 
      7 S7          1.5198  -14.0819  -47.1729 S.3       23 UNK        -0.2404 
      8 C8          1.8040  -14.2393  -48.9658 C.3       23 UNK        -0.0205 
      9 C9          1.1532  -15.4870  -49.5470 C.ar      23 UNK        -0.0193 
     10 C10        -0.2012  -15.4717  -49.8915 C.ar      23 UNK        -0.1150 
     11 C11        -0.8144  -16.5974  -50.4515 C.ar      23 UNK        -0.0193 
     12 C12        -0.0446  -17.7440  -50.6803 C.ar      23 UNK        -0.1150 
     13 C13         1.3135  -17.7721  -50.3528 C.ar      23 UNK        -0.0193 
     14 C14         1.9056  -16.6431  -49.7774 C.ar      23 UNK        -0.1150 
     15 C15         2.1461  -19.0089  -50.6621 C.3       23 UNK        -0.0205 
     16 S16         2.1968  -20.1849  -49.2749 S.3       23 UNK        -0.2404 
     17 C17         0.4977  -20.8519  -49.2815 C.3       23 UNK        -0.0398 
     18 CA          0.3598  -22.1232  -48.4099 C.3       11 UNK         0.1400 
     19 N           0.6492  -21.8731  -46.9941 N.am      11 UNK        -0.5000 
     20 C           0.7340  -22.8156  -46.0453 C.2       10 UNK         0.5000 
     21 O           0.6130  -24.0194  -46.2652 O.2       10 UNK        -0.5000 
     22 CA          0.9394  -22.3328  -44.6001 C.3       10 UNK         0.1400 
     23 CB          2.4194  -22.0303  -44.3199 C.3       10 UNK        -0.1800 
     24 N           0.1241  -21.1566  -44.3007 N.am      10 UNK        -0.5000 
     25 C          -1.2053  -21.1848  -44.1331 C.2       9 UNK         0.5000 
     26 O          -1.8769  -22.2160  -44.1773 O.2       9 UNK        -0.5000 
     27 CA         -1.9057  -19.8286  -43.9170 C.3       9 UNK         0.1400 
     28 CB         -1.8066  -19.3929  -42.4477 C.3       9 UNK        -0.1800 
     29 N          -1.3722  -18.7650  -44.7680 N.am      9 UNK        -0.5000 
     30 C          -1.4152  -18.7734  -46.1075 C.2       8 UNK         0.5000 
     31 O          -1.9428  -19.6612  -46.7741 O.2       8 UNK        -0.5000 
     32 CA         -0.7055  -17.6181  -46.8288 C.3       8 UNK         0.1400 
     33 CB         -1.6349  -16.3981  -46.8875 C.3       8 UNK        -0.1800 
     34 N           0.5788  -17.2459  -46.2283 N.am      8 UNK        -0.5000 
     35 C           1.6042  -18.0836  -46.0072 C.2       7 UNK         0.5000 
     36 O           1.5509  -19.2946  -46.2044 O.2       7 UNK        -0.5000 
     37 CA          2.8969  -17.4859  -45.4343 C.3       7 UNK         0.1400 
     38 CB          3.8513  -17.0619  -46.5581 C.3       7 UNK        -0.1800 
     39 N           2.6213  -16.3581  -44.5442 N.am      7 UNK        -0.5000 
     40 C           2.3038  -16.5103  -43.2516 C.2       6 UNK         0.5000 
     41 O           2.3072  -17.5942  -42.6664 O.2       6 UNK        -0.5000 
     42 CA          1.8751  -15.2434  -42.4916 C.3       6 UNK         0.1400 
     43 CB          3.0944  -14.3780  -42.1417 C.3       6 UNK        -0.1800 
     44 N           0.8741  -14.4364  -43.1976 N.am      6 UNK        -0.5000 
     45 C          -0.3486  -14.8714  -43.5461 C.2       5 UNK         0.5000 
     46 O          -0.7151  -16.0410  -43.4111 O.2       5 UNK        -0.5000 
     47 CA         -1.3259  -13.8464  -44.1665 C.3       5 UNK         0.1400 
     48 CB         -2.7982  -14.1421  -43.8043 C.3       5 UNK        -0.1800 
     49 N          -1.0037  -12.4422  -43.8915 N.am      5 UNK        -0.5000 
     50 C          -0.9845  -11.8237  -42.7023 C.2       4 UNK         0.5000 
     51 O          -1.2127  -12.3716  -41.6221 O.2       4 UNK        -0.5000 
     52 CA         -0.6197  -10.3269  -42.7390 C.3       4 UNK         0.1400 
     53 CB         -1.6896   -9.4795  -42.0314 C.3       4 UNK        -0.1800 
     54 N           0.6888  -10.0353  -42.1498 N.am      4 UNK        -0.5000 
     55 C           1.8480  -10.6201  -42.4764 C.2       3 UNK         0.5000 
     56 O           1.9527  -11.5493  -43.2866 O.2       3 UNK        -0.5000 
     57 CA          3.1047  -10.0565  -41.7925 C.3       3 UNK         0.1400 
     58 CB          3.2406  -10.5642  -40.3482 C.3       3 UNK        -0.1800 
     59 N           4.2557  -10.4935  -42.5689 N.am      3 UNK        -0.5000 
     60 C           5.1968   -9.7080  -43.1006 C.2       2 UNK         0.5000 
     61 O           5.3558   -8.5226  -42.8064 O.2       2 UNK        -0.5000 
     62 CA          6.0881  -10.3585  -44.1784 C.3       2 UNK         0.1400 
     63 CB          7.4001  -10.8662  -43.5617 C.3       2 UNK        -0.1800 
     64 N           5.4237  -11.4704  -44.8676 N.am      2 UNK        -0.5000 
     65 C           4.3664  -11.3596  -45.6844 C.2       1 UNK         0.5000 
     66 O           3.8907  -10.2797  -46.0394 O.2       1 UNK        -0.5000 
     67 C          -1.0265  -22.7728  -48.5988 C.2       11 UNK         0.5000 
     68 O          -1.1379  -23.7514  -49.3367 O.2       11 UNK        -0.5000 
     69 N          -2.0414  -22.2570  -47.8902 N.am      12 UNK        -0.5000 
     70 CA         -3.3985  -22.8018  -47.8512 C.3       12 UNK         0.1400 
     71 CB         -4.3061  -21.8663  -47.0387 C.3       12 UNK        -0.1800 
     72 C          -3.4475  -24.2264  -47.2743 C.2       12 UNK         0.5000 
     73 O          -4.1171  -25.0864  -47.8456 O.2       12 UNK        -0.5000 
     74 N          -2.7158  -24.4604  -46.1750 N.am      13 UNK        -0.5000 
     75 CA         -2.5885  -25.7695  -45.5328 C.3       13 UNK         0.1400 
     76 CB         -1.8802  -25.6143  -44.1788 C.3       13 UNK        -0.1800 
     77 C          -1.8641  -26.8024  -46.4164 C.2       13 UNK         0.5000 
     78 O          -2.2856  -27.9583  -46.4621 O.2       13 UNK        -0.5000 
     79 N          -0.8064  -26.3648  -47.1140 N.am      14 UNK        -0.5000 
     80 CA         -0.0424  -27.1720  -48.0651 C.3       14 UNK         0.1400 
     81 CB          1.2479  -26.4317  -48.4494 C.3       14 UNK        -0.1800 
     82 C          -0.8562  -27.5390  -49.3189 C.2       14 UNK         0.5000 
     83 O          -0.7866  -28.6829  -49.7707 O.2       14 UNK        -0.5000 
     84 N          -1.6194  -26.5725  -49.8486 N.am      15 UNK        -0.5000 
     85 CA         -2.5278  -26.7632  -50.9794 C.3       15 UNK         0.1400 
     86 CB         -3.0073  -25.3948  -51.4885 C.3       15 UNK        -0.1800 
     87 C          -3.7343  -27.6514  -50.6283 C.2       15 UNK         0.5000 
     88 O          -4.1378  -28.4759  -51.4492 O.2       15 UNK        -0.5000 
     89 N          -4.2886  -27.4465  -49.4232 N.am      16 UNK        -0.5000 
     90 CA         -5.4939  -28.0753  -48.8697 C.3       16 UNK         0.1400 
     91 CB         -5.2828  -29.5896  -48.6651 C.3       16 UNK        -0.1800 
     92 C          -6.7736  -27.7453  -49.6714 C.2       16 UNK         0.5000 
     93 O          -7.7456  -28.5017  -49.6268 O.2       16 UNK        -0.5000 
     94 N          -6.7486  -26.6159  -50.3866 N.am      17 UNK        -0.5000 
     95 CA         -7.7747  -26.1109  -51.2884 C.3       17 UNK         0.1400 
     96 CB         -7.8618  -26.9980  -52.5466 C.3       17 UNK        -0.1800 
     97 C          -7.3965  -24.6734  -51.6717 C.2       17 UNK         0.5000 
     98 O          -6.2551  -24.2553  -51.4487 O.2       17 UNK        -0.5000 
     99 N          -8.3402  -23.9525  -52.2883 N.am      18 UNK        -0.5000 
    100 CA        -8.1894  -22.5756  -52.7709 C.3       18 UNK         0.1400 
    101 CB        -9.5836  -21.9315  -52.8735 C.3       18 UNK        -0.1800 
    102 C         -7.3927  -22.4722  -54.0936 C.2       18 UNK         0.5000 
    103 O         -7.7740  -21.7130  -54.9875 O.2       18 UNK        -0.5000 
    104 N         -6.2930  -23.2301  -54.2018 N.am      19 UNK        -0.5000 
    105 CA        -5.3410  -23.2002  -55.3120 C.3       19 UNK         0.1400 
    106 CB        -4.2755  -24.2839  -55.0928 C.3       19 UNK        -0.1800 
    107 C         -4.6900  -21.8114  -55.4230 C.2       19 UNK         0.5000 
    108 O         -4.1586  -21.3160  -54.4252 O.2       19 UNK        -0.5000 
    109 N         -4.8104  -21.1869  -56.6030 N.am      20 UNK        -0.5000 
    110 CA        -4.4087  -19.8055  -56.9104 C.3       20 UNK         0.1400 
    111 CB        -2.8720  -19.6676  -56.8701 C.3       20 UNK        -0.1800 
    112 C         -5.1212  -18.7465  -56.0343 C.2       20 UNK         0.5000 
    113 O         -4.5770  -17.6627  -55.8221 O.2       20 UNK        -0.5000 
    114 N         -6.3133  -19.0978  -55.5237 N.am      21 UNK        -0.5000 
    115 CA        -7.1295  -18.3797  -54.5368 C.3       21 UNK         0.1400 
    116 CB        -7.5201  -16.9727  -55.0354 C.3       21 UNK        -0.1800 
    117 C         -6.5259  -18.3561  -53.1135 C.2       21 UNK         0.5000 
    118 O         -7.0823  -17.6881  -52.2405 O.2       21 UNK        -0.5000 
    119 N         -5.4325  -19.0952  -52.8893 N.am      22 UNK        -0.5000 
    120 CA        -4.7589  -19.2531  -51.5938 C.3       22 UNK         0.1400 
    121 C         -5.1029  -20.6324  -50.9799 C.2       22 UNK         0.5000 
    122 N         -4.8623  -21.7252  -51.6928 N.am      22 UNK        -0.7600 
    123 O         -5.6218  -20.7100  -49.8718 O.2       22 UNK        -0.5000 
    124 C124       -3.2249  -19.0622  -51.7087 C.3       23 UNK        -0.0398 
    125 S125       -2.7772  -17.3975  -52.3164 S.3       23 UNK        -0.2404 
    126 C126       -2.3085  -16.5510  -50.7693 C.3       23 UNK        -0.0205 
    127 H127        7.6305  -14.2555  -47.8016 H         1 UNK         0.0600 
    128 H128        6.2037  -14.4722  -48.8208 H         1 UNK         0.0600 
    129 H129        6.6894  -15.7476  -47.7013 H         1 UNK         0.0600 
    130 H130        4.5129  -13.2242  -48.0839 H         1 UNK         0.3000 
    131 H131        3.6236  -13.3186  -45.3109 H         1 UNK         0.0600 
    132 H132        1.7119  -11.9409  -46.1435 H         1 UNK         0.0800 
    133 H133        2.4195  -11.8990  -47.7359 H         1 UNK         0.0800 
    134 H134        1.4101  -13.3570  -49.4727 H         1 UNK         0.0800 
    135 H135        2.8760  -14.2543  -49.1639 H         1 UNK         0.0800 
    136 H136       -0.7819  -14.5780  -49.7104 H         1 UNK         0.1150 
    137 H137       -0.4945  -18.6199  -51.1221 H         1 UNK         0.1150 
    138 H138        2.9567  -16.6602  -49.5268 H         1 UNK         0.1150 
    139 H139        1.7662  -19.5098  -51.5538 H         1 UNK         0.0800 
    140 H140        3.1679  -18.7094  -50.8996 H         1 UNK         0.0800 
    141 H141        0.2239  -21.0702  -50.3153 H         1 UNK         0.0800 
    142 H142       -0.1855  -20.0759  -48.9351 H         1 UNK         0.0800 
    143 H143        1.0971  -22.8482  -48.7612 H         1 UNK         0.0600 
    144 H144        0.8285  -20.9055  -46.7330 H         1 UNK         0.3000 
    145 H145        0.6320  -23.1401  -43.9319 H         1 UNK         0.0600 
    146 H146        2.5693  -21.7190  -43.2860 H         1 UNK         0.0600 
    147 H147        3.0332  -22.9166  -44.4852 H         1 UNK         0.0600 
    148 H148        2.8057  -21.2423  -44.9662 H         1 UNK         0.0600 
    149 H149        0.5904  -20.2607  -44.3399 H         1 UNK         0.3000 
    150 H150       -2.9610  -19.9578  -44.1661 H         1 UNK         0.0600 
    151 H151       -2.2091  -20.1591  -41.7839 H         1 UNK         0.0600 
    152 H152       -2.3718  -18.4776  -42.2701 H         1 UNK         0.0600 
    153 H153       -0.7729  -19.2084  -42.1519 H         1 UNK         0.0600 
    154 H154       -0.9423  -17.9733  -44.3014 H         1 UNK         0.3000 
    155 H155       -0.4942  -17.9394  -47.8488 H         1 UNK         0.0600 
    156 H156       -2.0019  -16.1315  -45.8990 H         1 UNK         0.0600 
    157 H157       -1.1385  -15.5254  -47.3074 H         1 UNK         0.0600 
    158 H158       -2.5074  -16.6079  -47.5065 H         1 UNK         0.0600 
    159 H159        0.7180  -16.2648  -46.0425 H         1 UNK         0.3000 
    160 H160        3.3966  -18.2780  -44.8719 H         1 UNK         0.0600 
    161 H161        3.4694  -16.2140  -47.1234 H         1 UNK         0.0600 
    162 H162        4.0121  -17.8789  -47.2631 H         1 UNK         0.0600 
    163 H163        4.8252  -16.7899  -46.1530 H         1 UNK         0.0600 
    164 H164        2.5872  -15.4381  -44.9566 H         1 UNK         0.3000 
    165 H165        1.4197  -15.5687  -41.5539 H         1 UNK         0.0600 
    166 H166        2.8078  -13.5559  -41.4885 H         1 UNK         0.0600 
    167 H167        3.8510  -14.9605  -41.6146 H         1 UNK         0.0600 
    168 H168        3.5643  -13.9559  -43.0295 H         1 UNK         0.0600 
    169 H169        1.0969  -13.4559  -43.3324 H         1 UNK         0.3000 
    170 H170       -1.2235  -13.9597  -45.2459 H         1 UNK         0.0600 
    171 H171       -3.0970  -15.1425  -44.1171 H         1 UNK         0.0600 
    172 H172       -2.9707  -14.0796  -42.7297 H         1 UNK         0.0600 
    173 H173       -3.4724  -13.4388  -44.2931 H         1 UNK         0.0600 
    174 H174       -0.7566  -11.8968  -44.7054 H         1 UNK         0.3000 
    175 H175       -0.5805  -10.0047  -43.7816 H         1 UNK         0.0600 
    176 H176       -1.7377   -9.7002  -40.9642 H         1 UNK         0.0600 
    177 H177       -1.4896   -8.4139  -42.1452 H         1 UNK         0.0600 
    178 H178       -2.6786   -9.6698  -42.4505 H         1 UNK         0.0600 
    179 H179        0.7010   -9.3028  -41.4553 H         1 UNK         0.3000 
    180 H180        3.0332   -8.9668  -41.7899 H         1 UNK         0.0600 
    181 H181        3.3185  -11.6498  -40.3025 H         1 UNK         0.0600 
    182 H182        2.3814  -10.2699  -39.7445 H         1 UNK         0.0600 
    183 H183        4.1286  -10.1486  -39.8717 H         1 UNK         0.0600 
    184 H184        4.1646  -11.4281  -42.9421 H         1 UNK         0.3000 
    185 H185        6.3275   -9.5924  -44.9187 H         1 UNK         0.0600 
    186 H186        7.9351  -10.0579  -43.0614 H         1 UNK         0.0600 
    187 H187        7.2210  -11.6488  -42.8233 H         1 UNK         0.0600 
    188 H188        8.0641  -11.2710  -44.3256 H         1 UNK         0.0600 
    189 H189        5.7948  -12.4013  -44.7046 H         1 UNK         0.3000 
    190 H190       -1.8826  -21.4144  -47.3417 H         1 UNK         0.3000 
    191 H191       -3.7732  -22.8399  -48.8762 H         1 UNK         0.0600 
    192 H192       -3.9728  -21.7753  -46.0045 H         1 UNK         0.0600 
    193 H193       -5.3328  -22.2338  -47.0258 H         1 UNK         0.0600 
    194 H194       -4.3266  -20.8657  -47.4701 H         1 UNK         0.0600 
    195 H195       -2.2164  -23.6911  -45.7441 H         1 UNK         0.3000 
    196 H196       -3.5960  -26.1462  -45.3445 H         1 UNK         0.0600 
    197 H197       -1.7954  -26.5753  -43.6699 H         1 UNK         0.0600 
    198 H198       -2.4331  -24.9449  -43.5196 H         1 UNK         0.0600 
    199 H199       -0.8730  -25.2134  -44.2933 H         1 UNK         0.0600 
    200 H200       -0.4815  -25.4134  -46.9629 H         1 UNK         0.3000 
    201 H201        0.2378  -28.1021  -47.5663 H         1 UNK         0.0600 
    202 H202        1.8681  -26.2414  -47.5733 H         1 UNK         0.0600 
    203 H203        1.0365  -25.4726  -48.9230 H         1 UNK         0.0600 
    204 H204        1.8433  -27.0202  -49.1484 H         1 UNK         0.0600 
    205 H205       -1.5679  -25.6350  -49.4593 H         1 UNK         0.3000 
    206 H206       -1.9753  -27.2520  -51.7845 H         1 UNK         0.0600 
    207 H207       -2.1758  -24.7987  -51.8646 H         1 UNK         0.0600 
    208 H208       -3.7228  -25.5117  -52.3027 H         1 UNK         0.0600 
    209 H209       -3.4995  -24.8208  -50.7023 H         1 UNK         0.0600 
    210 H210       -3.9151  -26.6912  -48.8539 H         1 UNK         0.3000 
    211 H211       -5.6347  -27.6287  -47.8845 H         1 UNK         0.0600 
    212 H212       -5.2101  -30.1216  -49.6138 H         1 UNK         0.0600 
    213 H213       -6.1110  -30.0282  -48.1076 H         1 UNK         0.0600 
    214 H214       -4.3720  -29.7853  -48.0987 H         1 UNK         0.0600 
    215 H215       -5.9305  -26.0202  -50.3354 H         1 UNK         0.3000 
    216 H216       -8.7343  -26.0969  -50.7682 H         1 UNK         0.0600 
    217 H217       -6.9046  -27.0450  -53.0682 H         1 UNK         0.0600 
    218 H218       -8.6018  -26.6171  -53.2512 H         1 UNK         0.0600 
    219 H219       -8.1552  -28.0179  -52.2987 H         1 UNK         0.0600 
    220 H220       -9.2346  -24.3847  -52.4701 H         1 UNK         0.3000 
    221 H221       -7.6303  -22.0108  -52.0234 H         1 UNK         0.0600 
    222 H222      -10.1108  -21.9785  -51.9205 H         1 UNK         0.0600 
    223 H223      -10.2007  -22.4262  -53.6244 H         1 UNK         0.0600 
    224 H224       -9.5113  -20.8780  -53.1473 H         1 UNK         0.0600 
    225 H225       -6.0336  -23.7834  -53.3937 H         1 UNK         0.3000 
    226 H226       -5.8854  -23.4256  -56.2312 H         1 UNK         0.0600 
    227 H227       -4.7280  -25.2689  -54.9768 H         1 UNK         0.0600 
    228 H228       -3.5937  -24.3356  -55.9424 H         1 UNK         0.0600 
    229 H229       -3.6753  -24.0816  -54.2051 H         1 UNK         0.0600 
    230 H230       -5.2863  -21.6713  -57.3519 H         1 UNK         0.3000 
    231 H231       -4.7305  -19.6138  -57.9350 H         1 UNK         0.0600 
    232 H232       -2.4829  -19.7635  -55.8558 H         1 UNK         0.0600 
    233 H233       -2.5556  -18.6953  -57.2492 H         1 UNK         0.0600 
    234 H234       -2.3911  -20.4263  -57.4873 H         1 UNK         0.0600 
    235 H235       -6.6606  -20.0247  -55.7443 H         1 UNK         0.3000 
    236 H236       -8.0517  -18.9561  -54.4519 H         1 UNK         0.0600 
    237 H237       -8.2796  -16.5286  -54.3911 H         1 UNK         0.0600 
    238 H238       -6.6686  -16.2921  -55.0450 H         1 UNK         0.0600 
    239 H239       -7.9337  -17.0107  -56.0431 H         1 UNK         0.0600 
    240 H240       -5.0491  -19.6471  -53.6473 H         1 UNK         0.3000 
    241 H241       -5.1235  -18.4967  -50.8960 H         1 UNK         0.0600 
    242 H242       -5.1495  -22.6284  -51.3334 H         1 UNK         0.3800 
    243 H243       -4.4713  -21.6561  -52.6284 H         1 UNK         0.3800 
    244 H244       -2.7983  -19.7949  -52.3960 H         1 UNK         0.0800 
    245 H245       -2.7476  -19.2389  -50.7432 H         1 UNK         0.0800 
    246 H246       -2.8684  -16.9675  -49.9316 H         1 UNK         0.0800 
    247 H247       -2.6306  -15.5126  -50.8602 H         1 UNK         0.0800 
@<TRIPOS>BOND
     1    1    2 1    
     2    1  127 1    
     3    1  128 1    
     4    1  129 1    
     5    2    3 2    
     6    2    4 am   BACKBONE|DICT|INTERRES
     7    4    5 1    
     8    4  130 1    
     9    5    6 1    
    10    5   65 1    
    11    5  131 1    
    12    6    7 1    
    13    6  132 1    
    14    6  133 1    
    15    7    8 1    
    16    8    9 1    
    17    8  134 1    
    18    8  135 1    
    19    9   10 ar   
    20    9   14 ar   
    21   10   11 ar   
    22   10  136 1    
    23   11   12 ar   
    24   11  126 1    
    25   12   13 ar   
    26   12  137 1    
    27   13   14 ar   
    28   13   15 1    
    29   14  138 1    
    30   15   16 1    
    31   15  139 1    
    32   15  140 1    
    33   16   17 1    
    34   17   18 1    
    35   17  141 1    
    36   17  142 1    
    37   18   19 1    
    38   18   67 1    
    39   18  143 1    
    40   19   20 am   BACKBONE|DICT|INTERRES
    41   19  144 1    
    42   20   21 2    
    43   20   22 1    
    44   22   23 1    
    45   22   24 1    
    46   22  145 1    
    47   23  146 1    
    48   23  147 1    
    49   23  148 1    
    50   24   25 am   BACKBONE|DICT|INTERRES
    51   24  149 1    
    52   25   26 2    
    53   25   27 1    
    54   27   28 1    
    55   27   29 1    
    56   27  150 1    
    57   28  151 1    
    58   28  152 1    
    59   28  153 1    
    60   29   30 am   BACKBONE|DICT|INTERRES
    61   29  154 1    
    62   30   31 2    
    63   30   32 1    
    64   32   33 1    
    65   32   34 1    
    66   32  155 1    
    67   33  156 1    
    68   33  157 1    
    69   33  158 1    
    70   34   35 am   BACKBONE|DICT|INTERRES
    71   34  159 1    
    72   35   36 2    
    73   35   37 1    
    74   37   38 1    
    75   37   39 1    
    76   37  160 1    
    77   38  161 1    
    78   38  162 1    
    79   38  163 1    
    80   39   40 am   BACKBONE|DICT|INTERRES
    81   39  164 1    
    82   40   41 2    
    83   40   42 1    
    84   42   43 1    
    85   42   44 1    
    86   42  165 1    
    87   43  166 1    
    88   43  167 1    
    89   43  168 1    
    90   44   45 am   BACKBONE|DICT|INTERRES
    91   44  169 1    
    92   45   46 2    
    93   45   47 1    
    94   47   48 1    
    95   47   49 1    
    96   47  170 1    
    97   48  171 1    
    98   48  172 1    
    99   48  173 1    
   100   49   50 am   BACKBONE|DICT|INTERRES
   101   49  174 1    
   102   50   51 2    
   103   50   52 1    
   104   52   53 1    
   105   52   54 1    
   106   52  175 1    
   107   53  176 1    
   108   53  177 1    
   109   53  178 1    
   110   54   55 am   BACKBONE|DICT|INTERRES
   111   54  179 1    
   112   55   56 2    
   113   55   57 1    
   114   57   58 1    
   115   57   59 1    
   116   57  180 1    
   117   58  181 1    
   118   58  182 1    
   119   58  183 1    
   120   59   60 am   BACKBONE|DICT|INTERRES
   121   59  184 1    
   122   60   61 2    
   123   60   62 1    
   124   62   63 1    
   125   62   64 1    
   126   62  185 1    
   127   63  186 1    
   128   63  187 1    
   129   63  188 1    
   130   64   65 am   BACKBONE|DICT|INTERRES
   131   64  189 1    
   132   65   66 2    
   133   67   68 2    
   134   67   69 am   BACKBONE|DICT|INTERRES
   135   69   70 1    
   136   69  190 1    
   137   70   71 1    
   138   70   72 1    
   139   70  191 1    
   140   71  192 1    
   141   71  193 1    
   142   71  194 1    
   143   72   73 2    
   144   72   74 am   BACKBONE|DICT|INTERRES
   145   74   75 1    
   146   74  195 1    
   147   75   76 1    
   148   75   77 1    
   149   75  196 1    
   150   76  197 1    
   151   76  198 1    
   152   76  199 1    
   153   77   78 2    
   154   77   79 am   BACKBONE|DICT|INTERRES
   155   79   80 1    
   156   79  200 1    
   157   80   81 1    
   158   80   82 1    
   159   80  201 1    
   160   81  202 1    
   161   81  203 1    
   162   81  204 1    
   163   82   83 2    
   164   82   84 am   BACKBONE|DICT|INTERRES
   165   84   85 1    
   166   84  205 1    
   167   85   86 1    
   168   85   87 1    
   169   85  206 1    
   170   86  207 1    
   171   86  208 1    
   172   86  209 1    
   173   87   88 2    
   174   87   89 am   BACKBONE|DICT|INTERRES
   175   89   90 1    
   176   89  210 1    
   177   90   91 1    
   178   90   92 1    
   179   90  211 1    
   180   91  212 1    
   181   91  213 1    
   182   91  214 1    
   183   92   93 2    
   184   92   94 am   BACKBONE|DICT|INTERRES
   185   94   95 1    
   186   94  215 1    
   187   95   96 1    
   188   95   97 1    
   189   95  216 1    
   190   96  217 1    
   191   96  218 1    
   192   96  219 1    
   193   97   98 2    
   194   97   99 am   BACKBONE|DICT|INTERRES
   195   99  100 1    
   196   99  220 1    
   197  100  101 1    
   198  100  102 1    
   199  100  221 1    
   200  101  222 1    
   201  101  223 1    
   202  101  224 1    
   203  102  103 2    
   204  102  104 am   BACKBONE|DICT|INTERRES
   205  104  105 1    
   206  104  225 1    
   207  105  106 1    
   208  105  107 1    
   209  105  226 1    
   210  106  227 1    
   211  106  228 1    
   212  106  229 1    
   213  107  108 2    
   214  107  109 am   BACKBONE|DICT|INTERRES
   215  109  110 1    
   216  109  230 1    
   217  110  111 1    
   218  110  112 1    
   219  110  231 1    
   220  111  232 1    
   221  111  233 1    
   222  111  234 1    
   223  112  113 2    
   224  112  114 am   BACKBONE|DICT|INTERRES
   225  114  115 1    
   226  114  235 1    
   227  115  116 1    
   228  115  117 1    
   229  115  236 1    
   230  116  237 1    
   231  116  238 1    
   232  116  239 1    
   233  117  118 2    
   234  117  119 am   BACKBONE|DICT|INTERRES
   235  119  120 1    
   236  119  240 1    
   237  120  121 1    
   238  120  124 1    
   239  120  241 1    
   240  121  122 am   BACKBONE|DICT|INTERRES
   241  121  123 2    
   242  122  242 1    
   243  122  243 1    
   244  124  125 1    
   245  124  244 1    
   246  124  245 1    
   247  125  126 1    
   248  126  246 1    
   249  126  247 1    
@<TRIPOS>SUBSTRUCTURE
     1 UNK         1 GROUP             0       ****    0 ROOT    
