@<TRIPOS>MOLECULE
3R540
247   249    1
SMALL
USER_CHARGES


@<TRIPOS>ATOM
      1 CA          2.1651  -13.1645  -52.8173 C.3       0 UNK        -0.1800 
      2 C           1.9451  -13.3478  -51.3221 C.2       0 UNK         0.5000 
      3 O           2.1099  -12.3967  -50.5577 O.2       0 UNK        -0.5000 
      4 N           1.5657  -14.5638  -50.9110 N.am      1 UNK        -0.5000 
      5 CA          1.3348  -14.9771  -49.5229 C.3       1 UNK         0.1400 
      6 C6          0.1877  -14.1768  -48.8318 C.3       23 UNK        -0.0398 
      7 S7         -0.7527  -15.1719  -47.6203 S.3       23 UNK        -0.2404 
      8 C8         -2.1368  -15.8011  -48.6288 C.3       23 UNK        -0.0205 
      9 C9         -1.6299  -16.6978  -49.7458 C.ar      23 UNK        -0.0193 
     10 C10        -1.4683  -16.1908  -51.0374 C.ar      23 UNK        -0.1150 
     11 C11        -0.8927  -16.9755  -52.0392 C.ar      23 UNK        -0.0193 
     12 C12        -0.4841  -18.2783  -51.7424 C.ar      23 UNK        -0.1150 
     13 C13        -0.6724  -18.8080  -50.4622 C.ar      23 UNK        -0.0193 
     14 C14        -1.2637  -18.0175  -49.4726 C.ar      23 UNK        -0.1150 
     15 C15        -0.2804  -20.2473  -50.1717 C.3       23 UNK        -0.0205 
     16 S16         1.2869  -20.4121  -49.2449 S.3       23 UNK        -0.2404 
     17 C17         0.8119  -20.2394  -47.4837 C.3       23 UNK        -0.0398 
     18 CA          0.3336  -21.5660  -46.8354 C.3       11 UNK         0.1400 
     19 N           0.4939  -21.5754  -45.3769 N.am      11 UNK        -0.5000 
     20 C           0.2649  -22.6426  -44.5947 C.2       10 UNK         0.5000 
     21 O          -0.0373  -23.7548  -45.0250 O.2       10 UNK        -0.5000 
     22 CA          0.3093  -22.4224  -43.0731 C.3       10 UNK         0.1400 
     23 CB          1.7560  -22.4083  -42.5592 C.3       10 UNK        -0.1800 
     24 N          -0.3910  -21.2036  -42.6650 N.am      10 UNK        -0.5000 
     25 C          -1.7027  -20.9922  -42.8517 C.2       9 UNK         0.5000 
     26 O          -2.4651  -21.8266  -43.3371 O.2       9 UNK        -0.5000 
     27 CA         -2.2545  -19.6072  -42.4748 C.3       9 UNK         0.1400 
     28 CB         -2.5562  -19.5359  -40.9708 C.3       9 UNK        -0.1800 
     29 N          -1.3576  -18.5162  -42.8534 N.am      9 UNK        -0.5000 
     30 C          -1.0068  -18.2099  -44.1113 C.2       8 UNK         0.5000 
     31 O          -1.4303  -18.7986  -45.1070 O.2       8 UNK        -0.5000 
     32 CA          0.0493  -17.1009  -44.2751 C.3       8 UNK         0.1400 
     33 CB         -0.5636  -15.7134  -44.0333 C.3       8 UNK        -0.1800 
     34 N           1.1919  -17.2941  -43.3808 N.am      8 UNK        -0.5000 
     35 C           2.0041  -18.3612  -43.4064 C.2       7 UNK         0.5000 
     36 O           1.9219  -19.2640  -44.2397 O.2       7 UNK        -0.5000 
     37 CA          3.0578  -18.4528  -42.2896 C.3       7 UNK         0.1400 
     38 CB          4.3148  -17.6508  -42.6483 C.3       7 UNK        -0.1800 
     39 N           2.5317  -17.9909  -41.0055 N.am      7 UNK        -0.5000 
     40 C           1.6391  -18.6759  -40.2772 C.2       6 UNK         0.5000 
     41 O           1.1815  -19.7692  -40.6076 O.2       6 UNK        -0.5000 
     42 CA          1.1414  -18.0028  -38.9867 C.3       6 UNK         0.1400 
     43 CB          2.1550  -18.1885  -37.8476 C.3       6 UNK        -0.1800 
     44 N           0.8666  -16.5766  -39.1708 N.am      6 UNK        -0.5000 
     45 C          -0.1081  -16.0948  -39.9566 C.2       5 UNK         0.5000 
     46 O          -0.8661  -16.8144  -40.6046 O.2       5 UNK        -0.5000 
     47 CA         -0.2556  -14.5695  -40.0735 C.3       5 UNK         0.1400 
     48 CB         -1.6863  -14.1048  -39.7559 C.3       5 UNK        -0.1800 
     49 N           0.6904  -13.8606  -39.2067 N.am      5 UNK        -0.5000 
     50 C           1.4752  -12.8191  -39.5110 C.2       4 UNK         0.5000 
     51 O           2.3160  -12.4107  -38.7097 O.2       4 UNK        -0.5000 
     52 CA          1.3420  -12.0906  -40.8693 C.3       4 UNK         0.1400 
     53 CB          1.1519  -10.5792  -40.6550 C.3       4 UNK        -0.1800 
     54 N           2.5247  -12.2963  -41.7008 N.am      4 UNK        -0.5000 
     55 C           2.9506  -13.4587  -42.2122 C.2       3 UNK         0.5000 
     56 O           2.3878  -14.5474  -42.0564 O.2       3 UNK        -0.5000 
     57 CA          4.2618  -13.3720  -43.0183 C.3       3 UNK         0.1400 
     58 CB          5.4542  -13.7707  -42.1347 C.3       3 UNK        -0.1800 
     59 N           4.2787  -14.1855  -44.2361 N.am      3 UNK        -0.5000 
     60 C           3.3857  -14.1317  -45.2334 C.2       2 UNK         0.5000 
     61 O           2.3878  -13.4053  -45.2306 O.2       2 UNK        -0.5000 
     62 CA          3.6874  -15.0069  -46.4620 C.3       2 UNK         0.1400 
     63 CB          3.9445  -16.4822  -46.1056 C.3       2 UNK        -0.1800 
     64 N           2.5725  -14.9246  -47.3968 N.am      2 UNK        -0.5000 
     65 C           2.6554  -15.0588  -48.7223 C.2       1 UNK         0.5000 
     66 O           3.7163  -15.2829  -49.3124 O.2       1 UNK        -0.5000 
     67 C          -1.1191  -21.8905  -47.2340 C.2       11 UNK         0.5000 
     68 O          -1.3398  -22.7846  -48.0519 O.2       11 UNK        -0.5000 
     69 N          -2.0837  -21.1740  -46.6389 N.am      12 UNK        -0.5000 
     70 CA         -3.5160  -21.3408  -46.8909 C.3       12 UNK         0.1400 
     71 CB         -4.3044  -20.2858  -46.1026 C.3       12 UNK        -0.1800 
     72 C          -4.0332  -22.7589  -46.5839 C.2       12 UNK         0.5000 
     73 O          -4.8916  -23.2537  -47.3118 O.2       12 UNK        -0.5000 
     74 N          -3.4843  -23.3958  -45.5427 N.am      13 UNK        -0.5000 
     75 CA         -3.7627  -24.7818  -45.1825 C.3       13 UNK         0.1400 
     76 CB         -3.3294  -25.0286  -43.7284 C.3       13 UNK        -0.1800 
     77 C          -3.0872  -25.7860  -46.1347 C.2       13 UNK         0.5000 
     78 O          -3.7658  -26.6682  -46.6617 O.2       13 UNK        -0.5000 
     79 N          -1.7651  -25.6593  -46.3155 N.am      14 UNK        -0.5000 
     80 CA         -0.9384  -26.6492  -47.0087 C.3       14 UNK         0.1400 
     81 CB          0.5319  -26.4664  -46.6017 C.3       14 UNK        -0.1800 
     82 C          -1.0728  -26.6127  -48.5392 C.2       14 UNK         0.5000 
     83 O          -1.1390  -27.6731  -49.1624 O.2       14 UNK        -0.5000 
     84 N          -1.0880  -25.4064  -49.1186 N.am      15 UNK        -0.5000 
     85 CA         -1.0977  -25.1865  -50.5667 C.3       15 UNK         0.1400 
     86 CB         -0.0854  -24.0802  -50.9070 C.3       15 UNK        -0.1800 
     87 C          -2.4934  -24.8242  -51.1001 C.2       15 UNK         0.5000 
     88 O          -2.6384  -24.6462  -52.3104 O.2       15 UNK        -0.5000 
     89 N          -3.4867  -24.6888  -50.2075 N.am      16 UNK        -0.5000 
     90 CA         -4.8832  -24.3402  -50.4989 C.3       16 UNK         0.1400 
     91 CB         -5.5762  -25.4878  -51.2641 C.3       16 UNK        -0.1800 
     92 C          -5.0207  -22.9759  -51.2086 C.2       16 UNK         0.5000 
     93 O          -5.8264  -22.8450  -52.1290 O.2       16 UNK        -0.5000 
     94 N          -4.1905  -22.0006  -50.8032 N.am      17 UNK        -0.5000 
     95 CA         -4.0352  -20.6731  -51.4187 C.3       17 UNK         0.1400 
     96 CB         -5.3055  -19.8192  -51.2253 C.3       17 UNK        -0.1800 
     97 C          -3.5836  -20.7690  -52.8933 C.2       17 UNK         0.5000 
     98 O          -4.1550  -20.1130  -53.7673 O.2       17 UNK        -0.5000 
     99 N          -2.5836  -21.6342  -53.1259 N.am      18 UNK        -0.5000 
    100 CA        -2.0193  -22.0229  -54.4221 C.3       18 UNK         0.1400 
    101 CB        -1.3061  -20.8303  -55.0911 C.3       18 UNK        -0.1800 
    102 C         -3.0766  -22.6845  -55.3279 C.2       18 UNK         0.5000 
    103 O         -3.2661  -22.2646  -56.4689 O.2       18 UNK        -0.5000 
    104 N         -3.7794  -23.6860  -54.7775 N.am      19 UNK        -0.5000 
    105 CA        -4.9195  -24.3910  -55.3793 C.3       19 UNK         0.1400 
    106 CB        -4.4494  -25.2919  -56.5398 C.3       19 UNK        -0.1800 
    107 C         -6.0570  -23.4249  -55.7806 C.2       19 UNK         0.5000 
    108 O         -6.5801  -23.4958  -56.8938 O.2       19 UNK        -0.5000 
    109 N         -6.3773  -22.5112  -54.8553 N.am      20 UNK        -0.5000 
    110 CA        -7.3499  -21.4196  -54.9287 C.3       20 UNK         0.1400 
    111 CB        -8.7754  -21.9647  -55.1513 C.3       20 UNK        -0.1800 
    112 C         -7.0016  -20.2872  -55.9183 C.2       20 UNK         0.5000 
    113 O         -7.7997  -19.3569  -56.0491 O.2       20 UNK        -0.5000 
    114 N         -5.8305  -20.3329  -56.5733 N.am      21 UNK        -0.5000 
    115 CA        -5.3918  -19.3276  -57.5481 C.3       21 UNK         0.1400 
    116 CB        -4.1208  -19.8070  -58.2627 C.3       21 UNK        -0.1800 
    117 C         -5.1667  -17.9327  -56.9362 C.2       21 UNK         0.5000 
    118 O         -5.3733  -16.9334  -57.6265 O.2       21 UNK        -0.5000 
    119 N         -4.7790  -17.8880  -55.6561 N.am      22 UNK        -0.5000 
    120 CA        -4.6393  -16.6523  -54.8710 C.3       22 UNK         0.1400 
    121 C         -5.9655  -16.1914  -54.1939 C.2       22 UNK         0.5000 
    122 N         -7.0942  -16.8669  -54.3834 N.am      22 UNK        -0.7600 
    123 O         -5.9781  -15.1851  -53.4902 O.2       22 UNK        -0.5000 
    124 C124       -3.4826  -16.7507  -53.8457 C.3       23 UNK        -0.0398 
    125 S125       -1.8771  -17.1394  -54.6253 S.3       23 UNK        -0.2404 
    126 C126       -0.7067  -16.4105  -53.4391 C.3       23 UNK        -0.0205 
    127 H127        1.9616  -14.0802  -53.3731 H         1 UNK         0.0600 
    128 H128        3.1967  -12.8709  -53.0113 H         1 UNK         0.0600 
    129 H129        1.5089  -12.3827  -53.1999 H         1 UNK         0.0600 
    130 H130        1.4878  -15.3064  -51.5902 H         1 UNK         0.3000 
    131 H131        1.0180  -16.0162  -49.6088 H         1 UNK         0.0600 
    132 H132       -0.5193  -13.8106  -49.5768 H         1 UNK         0.0800 
    133 H133        0.5693  -13.2783  -48.3436 H         1 UNK         0.0800 
    134 H134       -2.8180  -16.3625  -47.9876 H         1 UNK         0.0800 
    135 H135       -2.7104  -14.9644  -49.0306 H         1 UNK         0.0800 
    136 H136       -1.7616  -15.1734  -51.2547 H         1 UNK         0.1150 
    137 H137       -0.0380  -18.8845  -52.5181 H         1 UNK         0.1150 
    138 H138       -1.4244  -18.4125  -48.4812 H         1 UNK         0.1150 
    139 H139       -1.1016  -20.7410  -49.6606 H         1 UNK         0.0800 
    140 H140       -0.1622  -20.7851  -51.1135 H         1 UNK         0.0800 
    141 H141        0.0940  -19.4336  -47.3452 H         1 UNK         0.0800 
    142 H142        1.7121  -19.8999  -46.9694 H         1 UNK         0.0800 
    143 H143        0.9627  -22.3739  -47.2157 H         1 UNK         0.0600 
    144 H144        0.7716  -20.7012  -44.9398 H         1 UNK         0.3000 
    145 H145       -0.2024  -23.2655  -42.6043 H         1 UNK         0.0600 
    146 H146        1.7881  -22.3231  -41.4730 H         1 UNK         0.0600 
    147 H147        2.2722  -23.3309  -42.8272 H         1 UNK         0.0600 
    148 H148        2.3277  -21.5814  -42.9783 H         1 UNK         0.0600 
    149 H149        0.1620  -20.4932  -42.1973 H         1 UNK         0.3000 
    150 H150       -3.1927  -19.4652  -43.0140 H         1 UNK         0.0600 
    151 H151       -3.0364  -18.5925  -40.7103 H         1 UNK         0.0600 
    152 H152       -3.2302  -20.3382  -40.6681 H         1 UNK         0.0600 
    153 H153       -1.6482  -19.6249  -40.3733 H         1 UNK         0.0600 
    154 H154       -0.9926  -17.9536  -42.0887 H         1 UNK         0.3000 
    155 H155        0.4172  -17.1381  -45.3027 H         1 UNK         0.0600 
    156 H156       -0.9378  -15.6055  -43.0164 H         1 UNK         0.0600 
    157 H157       -1.4040  -15.5370  -44.7050 H         1 UNK         0.0600 
    158 H158        0.1667  -14.9230  -44.2089 H         1 UNK         0.0600 
    159 H159        1.3544  -16.5785  -42.6846 H         1 UNK         0.3000 
    160 H160        3.3475  -19.5003  -42.1842 H         1 UNK         0.0600 
    161 H161        4.0819  -16.6017  -42.8241 H         1 UNK         0.0600 
    162 H162        4.7791  -18.0461  -43.5520 H         1 UNK         0.0600 
    163 H163        5.0590  -17.7025  -41.8534 H         1 UNK         0.0600 
    164 H164        2.8304  -17.0806  -40.6866 H         1 UNK         0.3000 
    165 H165        0.2094  -18.4924  -38.6957 H         1 UNK         0.0600 
    166 H166        1.7724  -17.7846  -36.9101 H         1 UNK         0.0600 
    167 H167        2.3658  -19.2460  -37.6824 H         1 UNK         0.0600 
    168 H168        3.1031  -17.6946  -38.0642 H         1 UNK         0.0600 
    169 H169        1.4897  -15.9307  -38.7108 H         1 UNK         0.3000 
    170 H170       -0.0566  -14.3816  -41.1255 H         1 UNK         0.0600 
    171 H171       -2.4153  -14.6054  -40.3946 H         1 UNK         0.0600 
    172 H172       -1.9552  -14.3168  -38.7205 H         1 UNK         0.0600 
    173 H173       -1.7978  -13.0328  -39.9184 H         1 UNK         0.0600 
    174 H174        0.7713  -14.2427  -38.2762 H         1 UNK         0.3000 
    175 H175        0.4699  -12.4178  -41.4298 H         1 UNK         0.0600 
    176 H176        2.0104  -10.1258  -40.1575 H         1 UNK         0.0600 
    177 H177        1.0040  -10.0617  -41.6032 H         1 UNK         0.0600 
    178 H178        0.2737  -10.3817  -40.0389 H         1 UNK         0.0600 
    179 H179        3.0841  -11.4721  -41.8642 H         1 UNK         0.3000 
    180 H180        4.4043  -12.3362  -43.3332 H         1 UNK         0.0600 
    181 H181        5.3883  -14.8100  -41.8116 H         1 UNK         0.0600 
    182 H182        5.4989  -13.1530  -41.2367 H         1 UNK         0.0600 
    183 H183        6.3995  -13.6415  -42.6621 H         1 UNK         0.0600 
    184 H184        5.0626  -14.8135  -44.3294 H         1 UNK         0.3000 
    185 H185        4.5819  -14.5924  -46.9315 H         1 UNK         0.0600 
    186 H186        4.8068  -16.5915  -45.4490 H         1 UNK         0.0600 
    187 H187        3.0817  -16.9247  -45.6114 H         1 UNK         0.0600 
    188 H188        4.1509  -17.0737  -46.9977 H         1 UNK         0.0600 
    189 H189        1.6849  -14.6838  -46.9720 H         1 UNK         0.3000 
    190 H190       -1.8222  -20.4400  -45.9846 H         1 UNK         0.3000 
    191 H191       -3.6807  -21.1554  -47.9538 H         1 UNK         0.0600 
    192 H192       -3.9853  -19.2767  -46.3645 H         1 UNK         0.0600 
    193 H193       -5.3716  -20.3560  -46.3162 H         1 UNK         0.0600 
    194 H194       -4.1758  -20.4101  -45.0277 H         1 UNK         0.0600 
    195 H195       -2.8391  -22.8877  -44.9451 H         1 UNK         0.3000 
    196 H196       -4.8415  -24.9421  -45.2391 H         1 UNK         0.0600 
    197 H197       -3.5233  -26.0599  -43.4312 H         1 UNK         0.0600 
    198 H198       -3.8772  -24.3832  -43.0415 H         1 UNK         0.0600 
    199 H199       -2.2653  -24.8380  -43.5844 H         1 UNK         0.0600 
    200 H200       -1.2670  -24.8995  -45.8568 H         1 UNK         0.3000 
    201 H201       -1.2500  -27.6416  -46.6754 H         1 UNK         0.0600 
    202 H202        0.6561  -26.5511  -45.5220 H         1 UNK         0.0600 
    203 H203        0.9161  -25.4924  -46.9076 H         1 UNK         0.0600 
    204 H204        1.1630  -27.2272  -47.0627 H         1 UNK         0.0600 
    205 H205       -1.0728  -24.5683  -48.5408 H         1 UNK         0.3000 
    206 H206       -0.7841  -26.0920  -51.0898 H         1 UNK         0.0600 
    207 H207        0.9120  -24.3358  -50.5495 H         1 UNK         0.0600 
    208 H208       -0.0134  -23.9283  -51.9847 H         1 UNK         0.0600 
    209 H209       -0.3646  -23.1280  -50.4596 H         1 UNK         0.0600 
    210 H210       -3.2631  -24.8388  -49.2335 H         1 UNK         0.3000 
    211 H211       -5.3978  -24.2428  -49.5452 H         1 UNK         0.0600 
    212 H212       -5.1468  -25.6360  -52.2545 H         1 UNK         0.0600 
    213 H213       -6.6399  -25.2858  -51.3954 H         1 UNK         0.0600 
    214 H214       -5.4916  -26.4283  -50.7198 H         1 UNK         0.0600 
    215 H215       -3.5554  -22.2209  -50.0495 H         1 UNK         0.3000 
    216 H216       -3.2278  -20.1733  -50.8838 H         1 UNK         0.0600 
    217 H217       -6.1557  -20.2200  -51.7772 H         1 UNK         0.0600 
    218 H218       -5.1459  -18.7981  -51.5725 H         1 UNK         0.0600 
    219 H219       -5.5847  -19.7631  -50.1732 H         1 UNK         0.0600 
    220 H220       -2.2509  -22.1771  -52.3433 H         1 UNK         0.3000 
    221 H221       -1.2667  -22.7857  -54.2176 H         1 UNK         0.0600 
    222 H222       -2.0089  -20.0481  -55.3777 H         1 UNK         0.0600 
    223 H223       -0.5654  -20.3877  -54.4258 H         1 UNK         0.0600 
    224 H224       -0.7853  -21.1456  -55.9957 H         1 UNK         0.0600 
    225 H225       -3.5224  -23.9796  -53.8374 H         1 UNK         0.3000 
    226 H226       -5.3282  -25.0389  -54.6033 H         1 UNK         0.0600 
    227 H227       -3.6654  -25.9754  -56.2140 H         1 UNK         0.0600 
    228 H228       -5.2717  -25.8991  -56.9198 H         1 UNK         0.0600 
    229 H229       -4.0604  -24.7088  -57.3750 H         1 UNK         0.0600 
    230 H230       -5.9111  -22.5795  -53.9526 H         1 UNK         0.3000 
    231 H231       -7.3308  -20.9566  -53.9413 H         1 UNK         0.0600 
    232 H232       -8.8977  -22.3877  -56.1486 H         1 UNK         0.0600 
    233 H233       -9.5187  -21.1744  -55.0411 H         1 UNK         0.0600 
    234 H234       -9.0189  -22.7394  -54.4242 H         1 UNK         0.0600 
    235 H235       -5.1949  -21.1011  -56.3950 H         1 UNK         0.3000 
    236 H236       -6.1815  -19.2337  -58.2963 H         1 UNK         0.0600 
    237 H237       -4.2616  -20.7930  -58.7061 H         1 UNK         0.0600 
    238 H238       -3.8458  -19.1237  -59.0670 H         1 UNK         0.0600 
    239 H239       -3.2733  -19.8610  -57.5787 H         1 UNK         0.0600 
    240 H240       -4.6212  -18.7552  -55.1498 H         1 UNK         0.3000 
    241 H241       -4.3766  -15.8429  -55.5546 H         1 UNK         0.0600 
    242 H242       -7.1282  -17.6782  -54.9884 H         1 UNK         0.3800 
    243 H243       -7.9396  -16.5432  -53.9412 H         1 UNK         0.3800 
    244 H244       -3.6960  -17.5119  -53.0947 H         1 UNK         0.0800 
    245 H245       -3.3805  -15.8076  -53.3066 H         1 UNK         0.0800 
    246 H246       -0.8233  -15.3255  -53.4401 H         1 UNK         0.0800 
    247 H247        0.3105  -16.6098  -53.7787 H         1 UNK         0.0800 
@<TRIPOS>BOND
     1    1    2 1    
     2    1  127 1    
     3    1  128 1    
     4    1  129 1    
     5    2    3 2    
     6    2    4 am   BACKBONE|DICT|INTERRES
     7    4    5 1    
     8    4  130 1    
     9    5    6 1    
    10    5   65 1    
    11    5  131 1    
    12    6    7 1    
    13    6  132 1    
    14    6  133 1    
    15    7    8 1    
    16    8    9 1    
    17    8  134 1    
    18    8  135 1    
    19    9   10 ar   
    20    9   14 ar   
    21   10   11 ar   
    22   10  136 1    
    23   11   12 ar   
    24   11  126 1    
    25   12   13 ar   
    26   12  137 1    
    27   13   14 ar   
    28   13   15 1    
    29   14  138 1    
    30   15   16 1    
    31   15  139 1    
    32   15  140 1    
    33   16   17 1    
    34   17   18 1    
    35   17  141 1    
    36   17  142 1    
    37   18   19 1    
    38   18   67 1    
    39   18  143 1    
    40   19   20 am   BACKBONE|DICT|INTERRES
    41   19  144 1    
    42   20   21 2    
    43   20   22 1    
    44   22   23 1    
    45   22   24 1    
    46   22  145 1    
    47   23  146 1    
    48   23  147 1    
    49   23  148 1    
    50   24   25 am   BACKBONE|DICT|INTERRES
    51   24  149 1    
    52   25   26 2    
    53   25   27 1    
    54   27   28 1    
    55   27   29 1    
    56   27  150 1    
    57   28  151 1    
    58   28  152 1    
    59   28  153 1    
    60   29   30 am   BACKBONE|DICT|INTERRES
    61   29  154 1    
    62   30   31 2    
    63   30   32 1    
    64   32   33 1    
    65   32   34 1    
    66   32  155 1    
    67   33  156 1    
    68   33  157 1    
    69   33  158 1    
    70   34   35 am   BACKBONE|DICT|INTERRES
    71   34  159 1    
    72   35   36 2    
    73   35   37 1    
    74   37   38 1    
    75   37   39 1    
    76   37  160 1    
    77   38  161 1    
    78   38  162 1    
    79   38  163 1    
    80   39   40 am   BACKBONE|DICT|INTERRES
    81   39  164 1    
    82   40   41 2    
    83   40   42 1    
    84   42   43 1    
    85   42   44 1    
    86   42  165 1    
    87   43  166 1    
    88   43  167 1    
    89   43  168 1    
    90   44   45 am   BACKBONE|DICT|INTERRES
    91   44  169 1    
    92   45   46 2    
    93   45   47 1    
    94   47   48 1    
    95   47   49 1    
    96   47  170 1    
    97   48  171 1    
    98   48  172 1    
    99   48  173 1    
   100   49   50 am   BACKBONE|DICT|INTERRES
   101   49  174 1    
   102   50   51 2    
   103   50   52 1    
   104   52   53 1    
   105   52   54 1    
   106   52  175 1    
   107   53  176 1    
   108   53  177 1    
   109   53  178 1    
   110   54   55 am   BACKBONE|DICT|INTERRES
   111   54  179 1    
   112   55   56 2    
   113   55   57 1    
   114   57   58 1    
   115   57   59 1    
   116   57  180 1    
   117   58  181 1    
   118   58  182 1    
   119   58  183 1    
   120   59   60 am   BACKBONE|DICT|INTERRES
   121   59  184 1    
   122   60   61 2    
   123   60   62 1    
   124   62   63 1    
   125   62   64 1    
   126   62  185 1    
   127   63  186 1    
   128   63  187 1    
   129   63  188 1    
   130   64   65 am   BACKBONE|DICT|INTERRES
   131   64  189 1    
   132   65   66 2    
   133   67   68 2    
   134   67   69 am   BACKBONE|DICT|INTERRES
   135   69   70 1    
   136   69  190 1    
   137   70   71 1    
   138   70   72 1    
   139   70  191 1    
   140   71  192 1    
   141   71  193 1    
   142   71  194 1    
   143   72   73 2    
   144   72   74 am   BACKBONE|DICT|INTERRES
   145   74   75 1    
   146   74  195 1    
   147   75   76 1    
   148   75   77 1    
   149   75  196 1    
   150   76  197 1    
   151   76  198 1    
   152   76  199 1    
   153   77   78 2    
   154   77   79 am   BACKBONE|DICT|INTERRES
   155   79   80 1    
   156   79  200 1    
   157   80   81 1    
   158   80   82 1    
   159   80  201 1    
   160   81  202 1    
   161   81  203 1    
   162   81  204 1    
   163   82   83 2    
   164   82   84 am   BACKBONE|DICT|INTERRES
   165   84   85 1    
   166   84  205 1    
   167   85   86 1    
   168   85   87 1    
   169   85  206 1    
   170   86  207 1    
   171   86  208 1    
   172   86  209 1    
   173   87   88 2    
   174   87   89 am   BACKBONE|DICT|INTERRES
   175   89   90 1    
   176   89  210 1    
   177   90   91 1    
   178   90   92 1    
   179   90  211 1    
   180   91  212 1    
   181   91  213 1    
   182   91  214 1    
   183   92   93 2    
   184   92   94 am   BACKBONE|DICT|INTERRES
   185   94   95 1    
   186   94  215 1    
   187   95   96 1    
   188   95   97 1    
   189   95  216 1    
   190   96  217 1    
   191   96  218 1    
   192   96  219 1    
   193   97   98 2    
   194   97   99 am   BACKBONE|DICT|INTERRES
   195   99  100 1    
   196   99  220 1    
   197  100  101 1    
   198  100  102 1    
   199  100  221 1    
   200  101  222 1    
   201  101  223 1    
   202  101  224 1    
   203  102  103 2    
   204  102  104 am   BACKBONE|DICT|INTERRES
   205  104  105 1    
   206  104  225 1    
   207  105  106 1    
   208  105  107 1    
   209  105  226 1    
   210  106  227 1    
   211  106  228 1    
   212  106  229 1    
   213  107  108 2    
   214  107  109 am   BACKBONE|DICT|INTERRES
   215  109  110 1    
   216  109  230 1    
   217  110  111 1    
   218  110  112 1    
   219  110  231 1    
   220  111  232 1    
   221  111  233 1    
   222  111  234 1    
   223  112  113 2    
   224  112  114 am   BACKBONE|DICT|INTERRES
   225  114  115 1    
   226  114  235 1    
   227  115  116 1    
   228  115  117 1    
   229  115  236 1    
   230  116  237 1    
   231  116  238 1    
   232  116  239 1    
   233  117  118 2    
   234  117  119 am   BACKBONE|DICT|INTERRES
   235  119  120 1    
   236  119  240 1    
   237  120  121 1    
   238  120  124 1    
   239  120  241 1    
   240  121  122 am   BACKBONE|DICT|INTERRES
   241  121  123 2    
   242  122  242 1    
   243  122  243 1    
   244  124  125 1    
   245  124  244 1    
   246  124  245 1    
   247  125  126 1    
   248  126  246 1    
   249  126  247 1    
@<TRIPOS>SUBSTRUCTURE
     1 UNK         1 GROUP             0       ****    0 ROOT    
