@<TRIPOS>MOLECULE
3R540
247   249    1
SMALL
USER_CHARGES


@<TRIPOS>ATOM
      1 CA          1.5960  -14.0340  -48.0388 C.3       0 UNK        -0.1800 
      2 C           3.0349  -14.5092  -47.9045 C.2       0 UNK         0.5000 
      3 O           3.9576  -13.6943  -47.9184 O.2       0 UNK        -0.5000 
      4 N           3.2235  -15.8260  -47.7937 N.am      1 UNK        -0.5000 
      5 CA          4.5259  -16.4824  -47.6915 C.3       1 UNK         0.1400 
      6 C6          4.5024  -17.8935  -48.3311 C.3       23 UNK        -0.0398 
      7 S7          4.1530  -17.8443  -50.1224 S.3       23 UNK        -0.2404 
      8 C8          2.4094  -18.3628  -50.1482 C.3       23 UNK        -0.0205 
      9 C9          1.7969  -18.1768  -51.5240 C.ar      23 UNK        -0.0193 
     10 C10         1.8228  -19.2168  -52.4561 C.ar      23 UNK        -0.1150 
     11 C11         1.2628  -19.0462  -53.7258 C.ar      23 UNK        -0.0193 
     12 C12         0.6697  -17.8232  -54.0560 C.ar      23 UNK        -0.1150 
     13 C13         0.6414  -16.7738  -53.1306 C.ar      23 UNK        -0.0193 
     14 C14         1.2056  -16.9577  -51.8658 C.ar      23 UNK        -0.1150 
     15 C15         0.0380  -15.4304  -53.5123 C.3       23 UNK        -0.0205 
     16 S16        -1.7406  -15.3422  -53.1366 S.3       23 UNK        -0.2404 
     17 C17        -1.7673  -14.9308  -51.3534 C.3       23 UNK        -0.0398 
     18 CA         -2.1573  -16.1093  -50.4234 C.3       11 UNK         0.1400 
     19 N          -1.8403  -15.7913  -49.0196 N.am      11 UNK        -0.5000 
     20 C          -1.9823  -16.6172  -47.9736 C.2       10 UNK         0.5000 
     21 O          -2.5394  -17.7135  -48.0367 O.2       10 UNK        -0.5000 
     22 CA         -1.4484  -16.1342  -46.6144 C.3       10 UNK         0.1400 
     23 CB         -2.5865  -15.5185  -45.7900 C.3       10 UNK        -0.1800 
     24 N          -0.8596  -17.2500  -45.8734 N.am      10 UNK        -0.5000 
     25 C           0.2473  -17.9051  -46.2505 C.2       9 UNK         0.5000 
     26 O           1.0011  -17.4902  -47.1297 O.2       9 UNK        -0.5000 
     27 CA          0.5691  -19.2452  -45.5600 C.3       9 UNK         0.1400 
     28 CB          1.9363  -19.2201  -44.8667 C.3       9 UNK        -0.1800 
     29 N          -0.4305  -19.6598  -44.5807 N.am      9 UNK        -0.5000 
     30 C          -1.5857  -20.2736  -44.8620 C.2       8 UNK         0.5000 
     31 O          -1.9484  -20.5149  -46.0122 O.2       8 UNK        -0.5000 
     32 CA         -2.4594  -20.7238  -43.6692 C.3       8 UNK         0.1400 
     33 CB         -2.8476  -22.2056  -43.8075 C.3       8 UNK        -0.1800 
     34 N          -1.7913  -20.5295  -42.3757 N.am      8 UNK        -0.5000 
     35 C          -1.7330  -19.3691  -41.7097 C.2       7 UNK         0.5000 
     36 O          -2.3593  -18.3645  -42.0543 O.2       7 UNK        -0.5000 
     37 CA         -0.7906  -19.3214  -40.4902 C.3       7 UNK         0.1400 
     38 CB          0.5672  -20.0013  -40.7608 C.3       7 UNK        -0.1800 
     39 N          -0.5450  -17.9305  -40.1298 N.am      7 UNK        -0.5000 
     40 C          -0.4902  -17.4331  -38.8883 C.2       6 UNK         0.5000 
     41 O          -0.5846  -18.1256  -37.8740 O.2       6 UNK        -0.5000 
     42 CA         -0.3013  -15.9061  -38.7426 C.3       6 UNK         0.1400 
     43 CB          1.0903  -15.5771  -38.1820 C.3       6 UNK        -0.1800 
     44 N          -0.4969  -15.1820  -40.0019 N.am      6 UNK        -0.5000 
     45 C          -1.6950  -14.9811  -40.5696 C.2       5 UNK         0.5000 
     46 O          -2.7580  -15.2594  -40.0129 O.2       5 UNK        -0.5000 
     47 CA         -1.7334  -14.3974  -41.9964 C.3       5 UNK         0.1400 
     48 CB         -2.3446  -12.9873  -41.9926 C.3       5 UNK        -0.1800 
     49 N          -0.4434  -14.3428  -42.6910 N.am      5 UNK        -0.5000 
     50 C           0.3003  -15.3898  -43.0738 C.2       4 UNK         0.5000 
     51 O           0.0140  -16.5606  -42.8204 O.2       4 UNK        -0.5000 
     52 CA          1.5942  -15.0854  -43.8596 C.3       4 UNK         0.1400 
     53 CB          1.8399  -13.5849  -44.1335 C.3       4 UNK        -0.1800 
     54 N           2.7704  -15.6782  -43.2244 N.am      4 UNK        -0.5000 
     55 C           3.1848  -15.5021  -41.9606 C.2       3 UNK         0.5000 
     56 O           2.6020  -14.7895  -41.1415 O.2       3 UNK        -0.5000 
     57 CA          4.4619  -16.2505  -41.5275 C.3       3 UNK         0.1400 
     58 CB          4.0897  -17.5197  -40.7439 C.3       3 UNK        -0.1800 
     59 N           5.3323  -16.6340  -42.6405 N.am      3 UNK        -0.5000 
     60 C           6.0334  -15.7969  -43.4184 C.2       2 UNK         0.5000 
     61 O           6.0636  -14.5758  -43.2606 O.2       2 UNK        -0.5000 
     62 CA          6.8318  -16.4323  -44.5801 C.3       2 UNK         0.1400 
     63 CB          7.1686  -17.9230  -44.3505 C.3       2 UNK        -0.1800 
     64 N           6.1850  -16.2708  -45.8894 N.am      2 UNK        -0.5000 
     65 C           4.9198  -16.5813  -46.2081 C.2       1 UNK         0.5000 
     66 O           4.0847  -16.9773  -45.3945 O.2       1 UNK        -0.5000 
     67 C          -3.6159  -16.5770  -50.6574 C.2       11 UNK         0.5000 
     68 O          -3.8581  -17.3550  -51.5765 O.2       11 UNK        -0.5000 
     69 N          -4.5527  -16.1459  -49.7990 N.am      12 UNK        -0.5000 
     70 CA         -5.9560  -16.5734  -49.8037 C.3       12 UNK         0.1400 
     71 CB         -6.7311  -15.7329  -48.7775 C.3       12 UNK        -0.1800 
     72 C          -6.1631  -18.0805  -49.5310 C.2       12 UNK         0.5000 
     73 O          -7.1856  -18.6294  -49.9419 O.2       12 UNK        -0.5000 
     74 N          -5.1995  -18.7149  -48.8533 N.am      13 UNK        -0.5000 
     75 CA         -5.1429  -20.1553  -48.6134 C.3       13 UNK         0.1400 
     76 CB         -5.0277  -20.4055  -47.1021 C.3       13 UNK        -0.1800 
     77 C          -3.9644  -20.7746  -49.3824 C.2       13 UNK         0.5000 
     78 O          -4.1513  -21.7786  -50.0685 O.2       13 UNK        -0.5000 
     79 N          -2.7963  -20.1239  -49.2905 N.am      14 UNK        -0.5000 
     80 CA         -1.5236  -20.4333  -49.9395 C.3       14 UNK         0.1400 
     81 CB         -1.6152  -20.2511  -51.4652 C.3       14 UNK        -0.1800 
     82 C          -0.9223  -21.7817  -49.4977 C.2       14 UNK         0.5000 
     83 O          -0.4825  -22.5753  -50.3325 O.2       14 UNK        -0.5000 
     84 N          -0.8855  -21.9933  -48.1736 N.am      15 UNK        -0.5000 
     85 CA         -0.2301  -23.0928  -47.4613 C.3       15 UNK         0.1400 
     86 CB          1.3057  -22.9258  -47.5226 C.3       15 UNK        -0.1800 
     87 C          -0.7242  -24.4735  -47.9329 C.2       15 UNK         0.5000 
     88 O          -1.8503  -24.8514  -47.6096 O.2       15 UNK        -0.5000 
     89 N           0.1076  -25.1877  -48.7040 N.am      16 UNK        -0.5000 
     90 CA         -0.1657  -26.5098  -49.2724 C.3       16 UNK         0.1400 
     91 CB          1.1069  -27.0244  -49.9623 C.3       16 UNK        -0.1800 
     92 C          -1.3609  -26.5496  -50.2460 C.2       16 UNK         0.5000 
     93 O          -1.9381  -27.6200  -50.4411 O.2       16 UNK        -0.5000 
     94 N          -1.7310  -25.3948  -50.8191 N.am      17 UNK        -0.5000 
     95 CA         -2.9315  -25.2310  -51.6410 C.3       17 UNK         0.1400 
     96 CB         -2.8028  -23.9373  -52.4553 C.3       17 UNK        -0.1800 
     97 C          -4.2399  -25.2425  -50.8197 C.2       17 UNK         0.5000 
     98 O          -5.3073  -25.4219  -51.4099 O.2       17 UNK        -0.5000 
     99 N          -4.1388  -25.0656  -49.4916 N.am      18 UNK        -0.5000 
    100 CA        -5.1702  -25.1253  -48.4472 C.3       18 UNK         0.1400 
    101 CB        -5.7586  -26.5448  -48.3409 C.3       18 UNK        -0.1800 
    102 C         -6.2861  -24.0688  -48.5562 C.2       18 UNK         0.5000 
    103 O         -6.5360  -23.3446  -47.5930 O.2       18 UNK        -0.5000 
    104 N         -6.9437  -24.0149  -49.7144 N.am      19 UNK        -0.5000 
    105 CA        -8.0268  -23.0965  -50.0523 C.3       19 UNK         0.1400 
    106 CB        -9.3675  -23.6948  -49.5903 C.3       19 UNK        -0.1800 
    107 C         -8.0531  -22.7579  -51.5545 C.2       19 UNK         0.5000 
    108 O         -8.8363  -21.8953  -51.9530 O.2       19 UNK        -0.5000 
    109 N         -7.2202  -23.4233  -52.3729 N.am      20 UNK        -0.5000 
    110 CA        -7.1479  -23.2098  -53.8206 C.3       20 UNK         0.1400 
    111 CB        -6.5108  -24.4407  -54.4848 C.3       20 UNK        -0.1800 
    112 C         -6.4049  -21.9186  -54.2159 C.2       20 UNK         0.5000 
    113 O         -6.5134  -21.5011  -55.3700 O.2       20 UNK        -0.5000 
    114 N         -5.6647  -21.3126  -53.2712 N.am      21 UNK        -0.5000 
    115 CA        -5.0058  -20.0011  -53.3753 C.3       21 UNK         0.1400 
    116 CB        -6.0763  -18.8920  -53.4753 C.3       21 UNK        -0.1800 
    117 C         -3.9613  -19.9060  -54.5124 C.2       21 UNK         0.5000 
    118 O         -3.7201  -18.8172  -55.0360 O.2       21 UNK        -0.5000 
    119 N         -3.3971  -21.0581  -54.9044 N.am      22 UNK        -0.5000 
    120 CA        -2.5433  -21.2475  -56.0917 C.3       22 UNK         0.1400 
    121 C         -3.2627  -20.9787  -57.4533 C.2       22 UNK         0.5000 
    122 N         -4.5897  -20.9786  -57.5195 N.am      22 UNK        -0.7600 
    123 O         -2.6136  -20.8040  -58.4813 O.2       22 UNK        -0.5000 
    124 C124       -1.1680  -20.5292  -55.9758 C.3       23 UNK        -0.0398 
    125 S125       -0.1241  -21.2597  -54.6725 S.3       23 UNK        -0.2404 
    126 C126        1.3360  -20.1755  -54.7435 C.3       23 UNK        -0.0205 
    127 H127        1.2136  -13.7030  -47.0744 H         1 UNK         0.0600 
    128 H128        0.9562  -14.8312  -48.4163 H         1 UNK         0.0600 
    129 H129        1.5363  -13.1990  -48.7369 H         1 UNK         0.0600 
    130 H130        2.4208  -16.4413  -47.6788 H         1 UNK         0.3000 
    131 H131        5.2754  -15.8851  -48.2154 H         1 UNK         0.0600 
    132 H132        3.7716  -18.5343  -47.8339 H         1 UNK         0.0800 
    133 H133        5.4696  -18.3828  -48.2027 H         1 UNK         0.0800 
    134 H134        1.8452  -17.7693  -49.4328 H         1 UNK         0.0800 
    135 H135        2.3263  -19.4026  -49.8281 H         1 UNK         0.0800 
    136 H136        2.2845  -20.1588  -52.1950 H         1 UNK         0.1150 
    137 H137        0.2410  -17.6827  -55.0380 H         1 UNK         0.1150 
    138 H138        1.1964  -16.1486  -51.1492 H         1 UNK         0.1150 
    139 H139        0.5694  -14.6154  -53.0187 H         1 UNK         0.0800 
    140 H140        0.1715  -15.2655  -54.5825 H         1 UNK         0.0800 
    141 H141       -2.4530  -14.0941  -51.2092 H         1 UNK         0.0800 
    142 H142       -0.7834  -14.5512  -51.0759 H         1 UNK         0.0800 
    143 H143       -1.5219  -16.9582  -50.6843 H         1 UNK         0.0600 
    144 H144       -1.4204  -14.8869  -48.8629 H         1 UNK         0.3000 
    145 H145       -0.6810  -15.3762  -46.7728 H         1 UNK         0.0600 
    146 H146       -2.2090  -15.0923  -44.8635 H         1 UNK         0.0600 
    147 H147       -3.3485  -16.2571  -45.5370 H         1 UNK         0.0600 
    148 H148       -3.0775  -14.7119  -46.3359 H         1 UNK         0.0600 
    149 H149       -1.4218  -17.6575  -45.1412 H         1 UNK         0.3000 
    150 H150        0.6098  -19.9974  -46.3490 H         1 UNK         0.0600 
    151 H151        2.7326  -19.1068  -45.6009 H         1 UNK         0.0600 
    152 H152        2.1299  -20.1505  -44.3327 H         1 UNK         0.0600 
    153 H153        2.0127  -18.3995  -44.1524 H         1 UNK         0.0600 
    154 H154       -0.2208  -19.4558  -43.6156 H         1 UNK         0.3000 
    155 H155       -3.3749  -20.1293  -43.6970 H         1 UNK         0.0600 
    156 H156       -3.4005  -22.3836  -44.7311 H         1 UNK         0.0600 
    157 H157       -3.4870  -22.5241  -42.9841 H         1 UNK         0.0600 
    158 H158       -1.9696  -22.8525  -43.8219 H         1 UNK         0.0600 
    159 H159       -1.2571  -21.3146  -42.0312 H         1 UNK         0.3000 
    160 H160       -1.2975  -19.8379  -39.6728 H         1 UNK         0.0600 
    161 H161        1.2330  -19.8985  -39.9035 H         1 UNK         0.0600 
    162 H162        0.4556  -21.0698  -40.9461 H         1 UNK         0.0600 
    163 H163        1.0716  -19.5620  -41.6226 H         1 UNK         0.0600 
    164 H164       -0.5097  -17.2927  -40.9195 H         1 UNK         0.3000 
    165 H165       -1.0430  -15.5545  -38.0224 H         1 UNK         0.0600 
    166 H166        1.2224  -14.5025  -38.0550 H         1 UNK         0.0600 
    167 H167        1.2382  -16.0407  -37.2059 H         1 UNK         0.0600 
    168 H168        1.8817  -15.9371  -38.8373 H         1 UNK         0.0600 
    169 H169        0.3384  -14.9324  -40.5171 H         1 UNK         0.3000 
    170 H170       -2.3915  -15.0518  -42.5704 H         1 UNK         0.0600 
    171 H171       -1.7182  -12.2805  -41.4471 H         1 UNK         0.0600 
    172 H172       -2.4739  -12.6103  -43.0074 H         1 UNK         0.0600 
    173 H173       -3.3284  -12.9856  -41.5214 H         1 UNK         0.0600 
    174 H174       -0.1003  -13.4184  -42.9076 H         1 UNK         0.3000 
    175 H175        1.4880  -15.5808  -44.8250 H         1 UNK         0.0600 
    176 H176        1.9826  -13.0166  -43.2137 H         1 UNK         0.0600 
    177 H177        2.7329  -13.4471  -44.7438 H         1 UNK         0.0600 
    178 H178        1.0093  -13.1374  -44.6803 H         1 UNK         0.0600 
    179 H179        3.3211  -16.2824  -43.8305 H         1 UNK         0.3000 
    180 H180        5.0254  -15.5876  -40.8679 H         1 UNK         0.0600 
    181 H181        4.9791  -18.0394  -40.3871 H         1 UNK         0.0600 
    182 H182        3.5155  -18.2163  -41.3565 H         1 UNK         0.0600 
    183 H183        3.4855  -17.2802  -39.8693 H         1 UNK         0.0600 
    184 H184        5.3479  -17.6155  -42.8758 H         1 UNK         0.3000 
    185 H185        7.7764  -15.8886  -44.6304 H         1 UNK         0.0600 
    186 H186        7.8551  -18.2864  -45.1153 H         1 UNK         0.0600 
    187 H187        7.6565  -18.0739  -43.3866 H         1 UNK         0.0600 
    188 H188        6.2822  -18.5577  -44.3806 H         1 UNK         0.0600 
    189 H189        6.7851  -15.9118  -46.6188 H         1 UNK         0.3000 
    190 H190       -4.2743  -15.5166  -49.0611 H         1 UNK         0.3000 
    191 H191       -6.3629  -16.3655  -50.7956 H         1 UNK         0.0600 
    192 H192       -6.6695  -14.6696  -49.0096 H         1 UNK         0.0600 
    193 H193       -7.7884  -16.0015  -48.7706 H         1 UNK         0.0600 
    194 H194       -6.3485  -15.8805  -47.7667 H         1 UNK         0.0600 
    195 H195       -4.3780  -18.1864  -48.5791 H         1 UNK         0.3000 
    196 H196       -6.0501  -20.6477  -48.9678 H         1 UNK         0.0600 
    197 H197       -5.9852  -20.2397  -46.6087 H         1 UNK         0.0600 
    198 H198       -4.3010  -19.7388  -46.6393 H         1 UNK         0.0600 
    199 H199       -4.7226  -21.4304  -46.8871 H         1 UNK         0.0600 
    200 H200       -2.7583  -19.3047  -48.6853 H         1 UNK         0.3000 
    201 H201       -0.8221  -19.6786  -49.5802 H         1 UNK         0.0600 
    202 H202       -1.8728  -19.2258  -51.7277 H         1 UNK         0.0600 
    203 H203       -2.3550  -20.9052  -51.9192 H         1 UNK         0.0600 
    204 H204       -0.6574  -20.4675  -51.9341 H         1 UNK         0.0600 
    205 H205       -1.3510  -21.3209  -47.5664 H         1 UNK         0.3000 
    206 H206       -0.5283  -23.0050  -46.4156 H         1 UNK         0.0600 
    207 H207        1.6817  -22.9130  -48.5462 H         1 UNK         0.0600 
    208 H208        1.6170  -21.9948  -47.0509 H         1 UNK         0.0600 
    209 H209        1.8109  -23.7331  -46.9908 H         1 UNK         0.0600 
    210 H210        0.9936  -24.7716  -48.9512 H         1 UNK         0.3000 
    211 H211       -0.4022  -27.1811  -48.4443 H         1 UNK         0.0600 
    212 H212        1.4081  -26.3743  -50.7847 H         1 UNK         0.0600 
    213 H213        0.9534  -28.0234  -50.3727 H         1 UNK         0.0600 
    214 H214        1.9390  -27.0880  -49.2608 H         1 UNK         0.0600 
    215 H215       -1.2029  -24.5523  -50.6141 H         1 UNK         0.3000 
    216 H216       -2.9859  -26.0648  -52.3438 H         1 UNK         0.0600 
    217 H217       -3.6713  -23.7755  -53.0908 H         1 UNK         0.0600 
    218 H218       -1.9232  -23.9567  -53.0990 H         1 UNK         0.0600 
    219 H219       -2.7154  -23.0765  -51.7984 H         1 UNK         0.0600 
    220 H220       -3.2086  -24.9000  -49.1226 H         1 UNK         0.3000 
    221 H221       -4.6461  -24.9221  -47.5121 H         1 UNK         0.0600 
    222 H222       -6.2810  -26.8409  -49.2510 H         1 UNK         0.0600 
    223 H223       -4.9761  -27.2796  -48.1511 H         1 UNK         0.0600 
    224 H224       -6.4725  -26.6100  -47.5189 H         1 UNK         0.0600 
    225 H225       -6.6275  -24.6523  -50.4393 H         1 UNK         0.3000 
    226 H226       -7.8687  -22.1519  -49.5284 H         1 UNK         0.0600 
    227 H227       -9.3763  -23.8600  -48.5128 H         1 UNK         0.0600 
    228 H228      -10.1977  -23.0260  -49.8208 H         1 UNK         0.0600 
    229 H229       -9.5675  -24.6497  -50.0777 H         1 UNK         0.0600 
    230 H230       -6.5848  -24.1210  -52.0017 H         1 UNK         0.3000 
    231 H231       -8.1658  -23.1189  -54.2056 H         1 UNK         0.0600 
    232 H232       -6.4659  -24.3226  -55.5683 H         1 UNK         0.0600 
    233 H233       -7.0927  -25.3399  -54.2820 H         1 UNK         0.0600 
    234 H234       -5.4960  -24.6173  -54.1327 H         1 UNK         0.0600 
    235 H235       -5.6116  -21.7532  -52.3629 H         1 UNK         0.3000 
    236 H236       -4.4623  -19.8541  -52.4418 H         1 UNK         0.0600 
    237 H237       -6.6335  -18.9495  -54.4106 H         1 UNK         0.0600 
    238 H238       -6.7909  -18.9602  -52.6556 H         1 UNK         0.0600 
    239 H239       -5.6268  -17.9002  -53.4298 H         1 UNK         0.0600 
    240 H240       -3.6654  -21.9004  -54.4200 H         1 UNK         0.3000 
    241 H241       -2.3387  -22.3182  -56.1242 H         1 UNK         0.0600 
    242 H242       -5.1642  -21.1317  -56.6953 H         1 UNK         0.3800 
    243 H243       -5.0362  -20.8162  -58.4079 H         1 UNK         0.3800 
    244 H244       -1.2960  -19.4631  -55.7888 H         1 UNK         0.0800 
    245 H245       -0.6070  -20.6101  -56.9079 H         1 UNK         0.0800 
    246 H246        1.4604  -19.7719  -55.7494 H         1 UNK         0.0800 
    247 H247        2.2238  -20.7807  -54.5541 H         1 UNK         0.0800 
@<TRIPOS>BOND
     1    1    2 1    
     2    1  127 1    
     3    1  128 1    
     4    1  129 1    
     5    2    3 2    
     6    2    4 am   BACKBONE|DICT|INTERRES
     7    4    5 1    
     8    4  130 1    
     9    5    6 1    
    10    5   65 1    
    11    5  131 1    
    12    6    7 1    
    13    6  132 1    
    14    6  133 1    
    15    7    8 1    
    16    8    9 1    
    17    8  134 1    
    18    8  135 1    
    19    9   10 ar   
    20    9   14 ar   
    21   10   11 ar   
    22   10  136 1    
    23   11   12 ar   
    24   11  126 1    
    25   12   13 ar   
    26   12  137 1    
    27   13   14 ar   
    28   13   15 1    
    29   14  138 1    
    30   15   16 1    
    31   15  139 1    
    32   15  140 1    
    33   16   17 1    
    34   17   18 1    
    35   17  141 1    
    36   17  142 1    
    37   18   19 1    
    38   18   67 1    
    39   18  143 1    
    40   19   20 am   BACKBONE|DICT|INTERRES
    41   19  144 1    
    42   20   21 2    
    43   20   22 1    
    44   22   23 1    
    45   22   24 1    
    46   22  145 1    
    47   23  146 1    
    48   23  147 1    
    49   23  148 1    
    50   24   25 am   BACKBONE|DICT|INTERRES
    51   24  149 1    
    52   25   26 2    
    53   25   27 1    
    54   27   28 1    
    55   27   29 1    
    56   27  150 1    
    57   28  151 1    
    58   28  152 1    
    59   28  153 1    
    60   29   30 am   BACKBONE|DICT|INTERRES
    61   29  154 1    
    62   30   31 2    
    63   30   32 1    
    64   32   33 1    
    65   32   34 1    
    66   32  155 1    
    67   33  156 1    
    68   33  157 1    
    69   33  158 1    
    70   34   35 am   BACKBONE|DICT|INTERRES
    71   34  159 1    
    72   35   36 2    
    73   35   37 1    
    74   37   38 1    
    75   37   39 1    
    76   37  160 1    
    77   38  161 1    
    78   38  162 1    
    79   38  163 1    
    80   39   40 am   BACKBONE|DICT|INTERRES
    81   39  164 1    
    82   40   41 2    
    83   40   42 1    
    84   42   43 1    
    85   42   44 1    
    86   42  165 1    
    87   43  166 1    
    88   43  167 1    
    89   43  168 1    
    90   44   45 am   BACKBONE|DICT|INTERRES
    91   44  169 1    
    92   45   46 2    
    93   45   47 1    
    94   47   48 1    
    95   47   49 1    
    96   47  170 1    
    97   48  171 1    
    98   48  172 1    
    99   48  173 1    
   100   49   50 am   BACKBONE|DICT|INTERRES
   101   49  174 1    
   102   50   51 2    
   103   50   52 1    
   104   52   53 1    
   105   52   54 1    
   106   52  175 1    
   107   53  176 1    
   108   53  177 1    
   109   53  178 1    
   110   54   55 am   BACKBONE|DICT|INTERRES
   111   54  179 1    
   112   55   56 2    
   113   55   57 1    
   114   57   58 1    
   115   57   59 1    
   116   57  180 1    
   117   58  181 1    
   118   58  182 1    
   119   58  183 1    
   120   59   60 am   BACKBONE|DICT|INTERRES
   121   59  184 1    
   122   60   61 2    
   123   60   62 1    
   124   62   63 1    
   125   62   64 1    
   126   62  185 1    
   127   63  186 1    
   128   63  187 1    
   129   63  188 1    
   130   64   65 am   BACKBONE|DICT|INTERRES
   131   64  189 1    
   132   65   66 2    
   133   67   68 2    
   134   67   69 am   BACKBONE|DICT|INTERRES
   135   69   70 1    
   136   69  190 1    
   137   70   71 1    
   138   70   72 1    
   139   70  191 1    
   140   71  192 1    
   141   71  193 1    
   142   71  194 1    
   143   72   73 2    
   144   72   74 am   BACKBONE|DICT|INTERRES
   145   74   75 1    
   146   74  195 1    
   147   75   76 1    
   148   75   77 1    
   149   75  196 1    
   150   76  197 1    
   151   76  198 1    
   152   76  199 1    
   153   77   78 2    
   154   77   79 am   BACKBONE|DICT|INTERRES
   155   79   80 1    
   156   79  200 1    
   157   80   81 1    
   158   80   82 1    
   159   80  201 1    
   160   81  202 1    
   161   81  203 1    
   162   81  204 1    
   163   82   83 2    
   164   82   84 am   BACKBONE|DICT|INTERRES
   165   84   85 1    
   166   84  205 1    
   167   85   86 1    
   168   85   87 1    
   169   85  206 1    
   170   86  207 1    
   171   86  208 1    
   172   86  209 1    
   173   87   88 2    
   174   87   89 am   BACKBONE|DICT|INTERRES
   175   89   90 1    
   176   89  210 1    
   177   90   91 1    
   178   90   92 1    
   179   90  211 1    
   180   91  212 1    
   181   91  213 1    
   182   91  214 1    
   183   92   93 2    
   184   92   94 am   BACKBONE|DICT|INTERRES
   185   94   95 1    
   186   94  215 1    
   187   95   96 1    
   188   95   97 1    
   189   95  216 1    
   190   96  217 1    
   191   96  218 1    
   192   96  219 1    
   193   97   98 2    
   194   97   99 am   BACKBONE|DICT|INTERRES
   195   99  100 1    
   196   99  220 1    
   197  100  101 1    
   198  100  102 1    
   199  100  221 1    
   200  101  222 1    
   201  101  223 1    
   202  101  224 1    
   203  102  103 2    
   204  102  104 am   BACKBONE|DICT|INTERRES
   205  104  105 1    
   206  104  225 1    
   207  105  106 1    
   208  105  107 1    
   209  105  226 1    
   210  106  227 1    
   211  106  228 1    
   212  106  229 1    
   213  107  108 2    
   214  107  109 am   BACKBONE|DICT|INTERRES
   215  109  110 1    
   216  109  230 1    
   217  110  111 1    
   218  110  112 1    
   219  110  231 1    
   220  111  232 1    
   221  111  233 1    
   222  111  234 1    
   223  112  113 2    
   224  112  114 am   BACKBONE|DICT|INTERRES
   225  114  115 1    
   226  114  235 1    
   227  115  116 1    
   228  115  117 1    
   229  115  236 1    
   230  116  237 1    
   231  116  238 1    
   232  116  239 1    
   233  117  118 2    
   234  117  119 am   BACKBONE|DICT|INTERRES
   235  119  120 1    
   236  119  240 1    
   237  120  121 1    
   238  120  124 1    
   239  120  241 1    
   240  121  122 am   BACKBONE|DICT|INTERRES
   241  121  123 2    
   242  122  242 1    
   243  122  243 1    
   244  124  125 1    
   245  124  244 1    
   246  124  245 1    
   247  125  126 1    
   248  126  246 1    
   249  126  247 1    
@<TRIPOS>SUBSTRUCTURE
     1 UNK         1 GROUP             0       ****    0 ROOT    
