@<TRIPOS>MOLECULE
3R540
247   249    1
SMALL
USER_CHARGES


@<TRIPOS>ATOM
      1 CA          0.7328  -11.2249  -44.8014 C.3       0 UNK        -0.1800 
      2 C           1.7870  -11.2130  -45.8984 C.2       0 UNK         0.5000 
      3 O           2.7688  -10.4781  -45.7994 O.2       0 UNK        -0.5000 
      4 N           1.5781  -12.0170  -46.9474 N.am      1 UNK        -0.5000 
      5 CA          2.4678  -12.1394  -48.1095 C.3       1 UNK         0.1400 
      6 C6          1.7081  -12.6741  -49.3480 C.3       23 UNK        -0.0398 
      7 S7          0.8537  -14.2696  -49.0747 S.3       23 UNK        -0.2404 
      8 C8          1.6068  -15.2971  -50.3750 C.3       23 UNK        -0.0205 
      9 C9          0.8204  -16.5781  -50.6129 C.ar      23 UNK        -0.0193 
     10 C10        -0.5065  -16.5084  -51.0451 C.ar      23 UNK        -0.1150 
     11 C11        -1.2331  -17.6701  -51.3197 C.ar      23 UNK        -0.0193 
     12 C12        -0.6236  -18.9146  -51.1328 C.ar      23 UNK        -0.1150 
     13 C13         0.7030  -19.0046  -50.6980 C.ar      23 UNK        -0.0193 
     14 C14         1.4222  -17.8290  -50.4471 C.ar      23 UNK        -0.1150 
     15 C15         1.3477  -20.3810  -50.5520 C.3       23 UNK        -0.0205 
     16 S16         2.4221  -20.5770  -49.0877 S.3       23 UNK        -0.2404 
     17 C17         1.3105  -20.1596  -47.7033 C.3       23 UNK        -0.0398 
     18 CA          0.5698  -21.3885  -47.1172 C.3       11 UNK         0.1400 
     19 N           0.3152  -21.2470  -45.6808 N.am      11 UNK        -0.5000 
     20 C          -0.1993  -22.1963  -44.8860 C.2       10 UNK         0.5000 
     21 O          -0.4617  -23.3368  -45.2647 O.2       10 UNK        -0.5000 
     22 CA         -0.5289  -21.7897  -43.4372 C.3       10 UNK         0.1400 
     23 CB          0.7167  -21.8744  -42.5436 C.3       10 UNK        -0.1800 
     24 N          -1.1207  -20.4527  -43.3496 N.am      10 UNK        -0.5000 
     25 C          -2.3027  -20.1189  -43.8892 C.2       9 UNK         0.5000 
     26 O          -3.0401  -20.9202  -44.4620 O.2       9 UNK        -0.5000 
     27 CA         -2.7108  -18.6368  -43.8260 C.3       9 UNK         0.1400 
     28 CB         -3.3107  -18.2939  -42.4545 C.3       9 UNK        -0.1800 
     29 N          -1.5979  -17.7342  -44.1189 N.am      9 UNK        -0.5000 
     30 C          -0.9488  -17.6746  -45.2908 C.2       8 UNK         0.5000 
     31 O          -1.2581  -18.3415  -46.2787 O.2       8 UNK        -0.5000 
     32 CA          0.2984  -16.7707  -45.3416 C.3       8 UNK         0.1400 
     33 CB         -0.0870  -15.2961  -45.5249 C.3       8 UNK        -0.1800 
     34 N           1.1356  -16.9184  -44.1484 N.am      8 UNK        -0.5000 
     35 C           1.7578  -18.0570  -43.8083 C.2       7 UNK         0.5000 
     36 O           1.7269  -19.0789  -44.4897 O.2       7 UNK        -0.5000 
     37 CA          2.5091  -18.0769  -42.4695 C.3       7 UNK         0.1400 
     38 CB          3.9291  -17.5297  -42.6389 C.3       7 UNK        -0.1800 
     39 N           1.8041  -17.3215  -41.4368 N.am      7 UNK        -0.5000 
     40 C           0.6710  -17.7390  -40.8552 C.2       6 UNK         0.5000 
     41 O           0.1273  -18.8139  -41.1108 O.2       6 UNK        -0.5000 
     42 CA          0.0119  -16.7697  -39.8577 C.3       6 UNK         0.1400 
     43 CB          0.7035  -16.8430  -38.4882 C.3       6 UNK        -0.1800 
     44 N           0.0190  -15.3854  -40.3332 N.am      6 UNK        -0.5000 
     45 C          -0.6293  -14.9575  -41.4253 C.2       5 UNK         0.5000 
     46 O          -1.3256  -15.6822  -42.1340 O.2       5 UNK        -0.5000 
     47 CA         -0.4421  -13.4822  -41.8177 C.3       5 UNK         0.1400 
     48 CB         -1.5349  -12.6119  -41.1807 C.3       5 UNK        -0.1800 
     49 N           0.8722  -12.9340  -41.4754 N.am      5 UNK        -0.5000 
     50 C           2.0436  -13.3667  -41.9612 C.2       4 UNK         0.5000 
     51 O           2.1486  -14.3332  -42.7235 O.2       4 UNK        -0.5000 
     52 CA          3.2771  -12.5365  -41.5478 C.3       4 UNK         0.1400 
     53 CB          3.3996  -12.3793  -40.0160 C.3       4 UNK        -0.1800 
     54 N           4.5196  -13.0321  -42.1449 N.am      4 UNK        -0.5000 
     55 C           5.2085  -14.1394  -41.8419 C.2       3 UNK         0.5000 
     56 O           4.9409  -14.8877  -40.9002 O.2       3 UNK        -0.5000 
     57 CA          6.3759  -14.4750  -42.7974 C.3       3 UNK         0.1400 
     58 CB          7.2826  -15.5962  -42.2585 C.3       3 UNK        -0.1800 
     59 N           5.8859  -14.8624  -44.1235 N.am      3 UNK        -0.5000 
     60 C           5.3702  -14.0298  -45.0374 C.2       2 UNK         0.5000 
     61 O           5.3460  -12.8053  -44.8864 O.2       2 UNK        -0.5000 
     62 CA          4.7794  -14.6591  -46.3166 C.3       2 UNK         0.1400 
     63 CB          4.2476  -16.0900  -46.1079 C.3       2 UNK        -0.1800 
     64 N           3.6777  -13.8322  -46.8009 N.am      2 UNK        -0.5000 
     65 C           3.7391  -12.9687  -47.8210 C.2       1 UNK         0.5000 
     66 O           4.7359  -12.8109  -48.5282 O.2       1 UNK        -0.5000 
     67 C          -0.7294  -21.6809  -47.8934 C.2       11 UNK         0.5000 
     68 O          -0.7682  -22.6271  -48.6791 O.2       11 UNK        -0.5000 
     69 N          -1.7827  -20.8955  -47.6242 N.am      12 UNK        -0.5000 
     70 CA         -3.1159  -21.0787  -48.1965 C.3       12 UNK         0.1400 
     71 CB         -4.0214  -19.9065  -47.7947 C.3       12 UNK        -0.1800 
     72 C          -3.7507  -22.4271  -47.8103 C.2       12 UNK         0.5000 
     73 O          -4.3232  -23.0897  -48.6753 O.2       12 UNK        -0.5000 
     74 N          -3.6083  -22.8307  -46.5402 N.am      13 UNK        -0.5000 
     75 CA         -4.0605  -24.1233  -46.0229 C.3       13 UNK         0.1400 
     76 CB         -3.9094  -24.1573  -44.4951 C.3       13 UNK        -0.1800 
     77 C          -3.3327  -25.3122  -46.6765 C.2       13 UNK         0.5000 
     78 O          -3.9906  -26.2675  -47.0904 O.2       13 UNK        -0.5000 
     79 N          -2.0017  -25.2123  -46.8109 N.am      14 UNK        -0.5000 
     80 CA         -1.1540  -26.1861  -47.5072 C.3       14 UNK         0.1400 
     81 CB          0.3236  -25.8202  -47.3027 C.3       14 UNK        -0.1800 
     82 C          -1.4834  -26.3037  -49.0082 C.2       14 UNK         0.5000 
     83 O          -1.4103  -27.3985  -49.5661 O.2       14 UNK        -0.5000 
     84 N          -1.8969  -25.1846  -49.6150 N.am      15 UNK        -0.5000 
     85 CA         -2.4113  -25.0834  -50.9800 C.3       15 UNK         0.1400 
     86 CB         -2.1458  -23.6593  -51.4988 C.3       15 UNK        -0.1800 
     87 C          -3.9016  -25.4771  -51.1115 C.2       15 UNK         0.5000 
     88 O          -4.5060  -25.1764  -52.1395 O.2       15 UNK        -0.5000 
     89 N          -4.4753  -26.1344  -50.0906 N.am      16 UNK        -0.5000 
     90 CA         -5.8386  -26.6736  -50.0320 C.3       16 UNK         0.1400 
     91 CB         -6.0132  -27.8236  -51.0466 C.3       16 UNK        -0.1800 
     92 C          -6.9133  -25.5774  -50.1666 C.2       16 UNK         0.5000 
     93 O          -7.7886  -25.6640  -51.0290 O.2       16 UNK        -0.5000 
     94 N          -6.7966  -24.5529  -49.3108 N.am      17 UNK        -0.5000 
     95 CA         -7.5885  -23.3181  -49.2904 C.3       17 UNK         0.1400 
     96 CB         -9.0877  -23.5979  -49.0523 C.3       17 UNK        -0.1800 
     97 C          -7.3063  -22.4462  -50.5303 C.2       17 UNK         0.5000 
     98 O          -8.2304  -21.9184  -51.1511 O.2       17 UNK        -0.5000 
     99 N          -6.0097  -22.3196  -50.8478 N.am      18 UNK        -0.5000 
    100 CA        -5.4184  -21.5204  -51.9230 C.3       18 UNK         0.1400 
    101 CB        -5.6205  -20.0188  -51.6469 C.3       18 UNK        -0.1800 
    102 C         -5.8604  -21.9230  -53.3461 C.2       18 UNK         0.5000 
    103 O         -5.8577  -21.0740  -54.2447 O.2       18 UNK        -0.5000 
    104 N         -6.2026  -23.2042  -53.5375 N.am      19 UNK        -0.5000 
    105 CA        -6.6659  -23.7929  -54.7928 C.3       19 UNK         0.1400 
    106 CB        -7.0699  -25.2557  -54.5495 C.3       19 UNK        -0.1800 
    107 C         -5.6001  -23.6792  -55.8969 C.2       19 UNK         0.5000 
    108 O         -4.5600  -24.3343  -55.8160 O.2       19 UNK        -0.5000 
    109 N         -5.8675  -22.7979  -56.8708 N.am      20 UNK        -0.5000 
    110 CA        -4.9999  -22.3881  -57.9841 C.3       20 UNK         0.1400 
    111 CB        -4.6427  -23.5873  -58.8870 C.3       20 UNK        -0.1800 
    112 C         -3.7485  -21.5824  -57.5642 C.2       20 UNK         0.5000 
    113 O         -2.9468  -21.2311  -58.4314 O.2       20 UNK        -0.5000 
    114 N         -3.6089  -21.2735  -56.2678 N.am      21 UNK        -0.5000 
    115 CA        -2.5574  -20.4170  -55.7241 C.3       21 UNK         0.1400 
    116 CB        -2.1531  -20.9043  -54.3225 C.3       21 UNK        -0.1800 
    117 C         -3.0398  -18.9605  -55.6894 C.2       21 UNK         0.5000 
    118 O         -2.3709  -18.0890  -56.2460 O.2       21 UNK        -0.5000 
    119 N         -4.2061  -18.7387  -55.0676 N.am      22 UNK        -0.5000 
    120 CA        -4.8847  -17.4340  -54.9806 C.3       22 UNK         0.1400 
    121 C         -6.4075  -17.5205  -55.2852 C.2       22 UNK         0.5000 
    122 N         -7.0338  -18.6926  -55.3046 N.am      22 UNK        -0.7600 
    123 O         -7.0381  -16.4954  -55.5290 O.2       22 UNK        -0.5000 
    124 C124       -4.6408  -16.6961  -53.6326 C.3       23 UNK        -0.0398 
    125 S125       -2.8802  -16.4466  -53.2156 S.3       23 UNK        -0.2404 
    126 C126       -2.6749  -17.5880  -51.8070 C.3       23 UNK        -0.0205 
    127 H127        0.0817  -10.3563  -44.8987 H         1 UNK         0.0600 
    128 H128        1.2062  -11.1844  -43.8216 H         1 UNK         0.0600 
    129 H129        0.1166  -12.1227  -44.8469 H         1 UNK         0.0600 
    130 H130        0.7432  -12.5847  -46.9872 H         1 UNK         0.3000 
    131 H131        2.8152  -11.1351  -48.3622 H         1 UNK         0.0600 
    132 H132        0.9507  -11.9468  -49.6432 H         1 UNK         0.0800 
    133 H133        2.3824  -12.7472  -50.2032 H         1 UNK         0.0800 
    134 H134        1.6398  -14.7379  -51.3111 H         1 UNK         0.0800 
    135 H135        2.6406  -15.5150  -50.1021 H         1 UNK         0.0800 
    136 H136       -0.9710  -15.5418  -51.1811 H         1 UNK         0.1150 
    137 H137       -1.1803  -19.8184  -51.3374 H         1 UNK         0.1150 
    138 H138        2.4537  -17.8882  -50.1301 H         1 UNK         0.1150 
    139 H139        0.5853  -21.1605  -50.5297 H         1 UNK         0.0800 
    140 H140        1.9459  -20.5720  -51.4436 H         1 UNK         0.0800 
    141 H141        0.6256  -19.3568  -47.9808 H         1 UNK         0.0800 
    142 H142        1.9609  -19.7258  -46.9447 H         1 UNK         0.0800 
    143 H143        1.2155  -22.2632  -47.2211 H         1 UNK         0.0600 
    144 H144        0.5661  -20.3545  -45.2641 H         1 UNK         0.3000 
    145 H145       -1.2636  -22.5002  -43.0536 H         1 UNK         0.0600 
    146 H146        0.4774  -21.6305  -41.5084 H         1 UNK         0.0600 
    147 H147        1.1328  -22.8825  -42.5526 H         1 UNK         0.0600 
    148 H148        1.5010  -21.1951  -42.8753 H         1 UNK         0.0600 
    149 H149       -0.5913  -19.7483  -42.8481 H         1 UNK         0.3000 
    150 H150       -3.4799  -18.4722  -44.5833 H         1 UNK         0.0600 
    151 H151       -3.6836  -17.2698  -42.4337 H         1 UNK         0.0600 
    152 H152       -4.1490  -18.9506  -42.2188 H         1 UNK         0.0600 
    153 H153       -2.5759  -18.3973  -41.6555 H         1 UNK         0.0600 
    154 H154       -1.3127  -17.1112  -43.3675 H         1 UNK         0.3000 
    155 H155        0.8940  -17.0726  -46.2062 H         1 UNK         0.0600 
    156 H156       -0.6381  -15.1539  -46.4552 H         1 UNK         0.0600 
    157 H157        0.7969  -14.6602  -45.5662 H         1 UNK         0.0600 
    158 H158       -0.7210  -14.9406  -44.7138 H         1 UNK         0.0600 
    159 H159        1.2376  -16.1086  -43.5476 H         1 UNK         0.3000 
    160 H160        2.5876  -19.1158  -42.1429 H         1 UNK         0.0600 
    161 H161        3.9103  -16.4888  -42.9565 H         1 UNK         0.0600 
    162 H162        4.4825  -18.0963  -43.3888 H         1 UNK         0.0600 
    163 H163        4.4879  -17.5882  -41.7049 H         1 UNK         0.0600 
    164 H164        2.1672  -16.4053  -41.2133 H         1 UNK         0.3000 
    165 H165       -1.0283  -17.0781  -39.7330 H         1 UNK         0.0600 
    166 H166        0.1910  -16.2209  -37.7542 H         1 UNK         0.0600 
    167 H167        0.7017  -17.8643  -38.1049 H         1 UNK         0.0600 
    168 H168        1.7420  -16.5137  -38.5414 H         1 UNK         0.0600 
    169 H169        0.5740  -14.7228  -39.8123 H         1 UNK         0.3000 
    170 H170       -0.5519  -13.4194  -42.9010 H         1 UNK         0.0600 
    171 H171       -2.5284  -12.9829  -41.4365 H         1 UNK         0.0600 
    172 H172       -1.4584  -12.6011  -40.0927 H         1 UNK         0.0600 
    173 H173       -1.4744  -11.5820  -41.5331 H         1 UNK         0.0600 
    174 H174        0.8696  -12.1335  -40.8601 H         1 UNK         0.3000 
    175 H175        3.1324  -11.5419  -41.9718 H         1 UNK         0.0600 
    176 H176        3.3762  -13.3408  -39.5023 H         1 UNK         0.0600 
    177 H177        4.3283  -11.8773  -39.7441 H         1 UNK         0.0600 
    178 H178        2.5843  -11.7783  -39.6128 H         1 UNK         0.0600 
    179 H179        4.7913  -12.5697  -43.0078 H         1 UNK         0.3000 
    180 H180        6.9877  -13.5758  -42.8966 H         1 UNK         0.0600 
    181 H181        6.7478  -16.5415  -42.1639 H         1 UNK         0.0600 
    182 H182        7.6750  -15.3407  -41.2734 H         1 UNK         0.0600 
    183 H183        8.1377  -15.7600  -42.9144 H         1 UNK         0.0600 
    184 H184        5.8635  -15.8532  -44.3124 H         1 UNK         0.3000 
    185 H185        5.5806  -14.6990  -47.0568 H         1 UNK         0.0600 
    186 H186        3.7793  -16.4700  -47.0164 H         1 UNK         0.0600 
    187 H187        5.0455  -16.7862  -45.8483 H         1 UNK         0.0600 
    188 H188        3.5003  -16.1207  -45.3170 H         1 UNK         0.0600 
    189 H189        2.8356  -13.8419  -46.2459 H         1 UNK         0.3000 
    190 H190       -1.6608  -20.1115  -46.9887 H         1 UNK         0.3000 
    191 H191       -3.0123  -21.0632  -49.2832 H         1 UNK         0.0600 
    192 H192       -3.6215  -18.9595  -48.1583 H         1 UNK         0.0600 
    193 H193       -5.0215  -20.0221  -48.2143 H         1 UNK         0.0600 
    194 H194       -4.1271  -19.8304  -46.7126 H         1 UNK         0.0600 
    195 H195       -3.1764  -22.1982  -45.8714 H         1 UNK         0.3000 
    196 H196       -5.1230  -24.2177  -46.2563 H         1 UNK         0.0600 
    197 H197       -4.2728  -25.1015  -44.0878 H         1 UNK         0.0600 
    198 H198       -4.4824  -23.3579  -44.0250 H         1 UNK         0.0600 
    199 H199       -2.8693  -24.0467  -44.1892 H         1 UNK         0.0600 
    200 H200       -1.5265  -24.4096  -46.4048 H         1 UNK         0.3000 
    201 H201       -1.3291  -27.1636  -47.0534 H         1 UNK         0.0600 
    202 H202        0.5848  -25.8141  -46.2443 H         1 UNK         0.0600 
    203 H203        0.5542  -24.8349  -47.7090 H         1 UNK         0.0600 
    204 H204        0.9774  -26.5408  -47.7953 H         1 UNK         0.0600 
    205 H205       -1.8613  -24.3173  -49.0893 H         1 UNK         0.3000 
    206 H206       -1.8532  -25.7743  -51.6146 H         1 UNK         0.0600 
    207 H207       -1.0789  -23.4355  -51.4995 H         1 UNK         0.0600 
    208 H208       -2.5023  -23.5322  -52.5215 H         1 UNK         0.0600 
    209 H209       -2.6373  -22.9126  -50.8772 H         1 UNK         0.0600 
    210 H210       -3.9238  -26.2803  -49.2541 H         1 UNK         0.3000 
    211 H211       -5.9576  -27.0987  -49.0343 H         1 UNK         0.0600 
    212 H212       -5.9399  -27.4735  -52.0767 H         1 UNK         0.0600 
    213 H213       -6.9883  -28.2985  -50.9326 H         1 UNK         0.0600 
    214 H214       -5.2575  -28.5953  -50.9005 H         1 UNK         0.0600 
    215 H215       -5.9809  -24.5424  -48.7110 H         1 UNK         0.3000 
    216 H216       -7.2286  -22.7461  -48.4338 H         1 UNK         0.0600 
    217 H217       -9.6320  -22.6681  -48.8835 H         1 UNK         0.0600 
    218 H218       -9.2373  -24.2254  -48.1739 H         1 UNK         0.0600 
    219 H219       -9.5536  -24.0939  -49.9038 H         1 UNK         0.0600 
    220 H220       -5.3461  -22.7907  -50.2381 H         1 UNK         0.3000 
    221 H221       -4.3481  -21.7146  -51.8836 H         1 UNK         0.0600 
    222 H222       -6.6734  -19.7374  -51.6744 H         1 UNK         0.0600 
    223 H223       -5.2191  -19.7353  -50.6746 H         1 UNK         0.0600 
    224 H224       -5.1081  -19.4200  -52.3948 H         1 UNK         0.0600 
    225 H225       -6.0508  -23.8558  -52.7760 H         1 UNK         0.3000 
    226 H226       -7.5593  -23.2474  -55.1034 H         1 UNK         0.0600 
    227 H227       -7.8718  -25.3254  -53.8144 H         1 UNK         0.0600 
    228 H228       -7.4285  -25.7203  -55.4686 H         1 UNK         0.0600 
    229 H229       -6.2317  -25.8508  -54.1850 H         1 UNK         0.0600 
    230 H230       -6.7385  -22.2883  -56.8099 H         1 UNK         0.3000 
    231 H231       -5.6004  -21.7018  -58.5827 H         1 UNK         0.0600 
    232 H232       -3.9672  -24.2845  -58.3911 H         1 UNK         0.0600 
    233 H233       -4.1490  -23.2545  -59.8007 H         1 UNK         0.0600 
    234 H234       -5.5353  -24.1373  -59.1850 H         1 UNK         0.0600 
    235 H235       -4.3393  -21.5635  -55.6308 H         1 UNK         0.3000 
    236 H236       -1.6707  -20.4685  -56.3598 H         1 UNK         0.0600 
    237 H237       -1.7978  -21.9343  -54.3532 H         1 UNK         0.0600 
    238 H238       -1.3445  -20.2931  -53.9197 H         1 UNK         0.0600 
    239 H239       -2.9801  -20.8554  -53.6167 H         1 UNK         0.0600 
    240 H240       -4.7128  -19.5267  -54.6840 H         1 UNK         0.3000 
    241 H241       -4.4888  -16.7937  -55.7712 H         1 UNK         0.0600 
    242 H242       -8.0186  -18.7065  -55.5167 H         1 UNK         0.3800 
    243 H243       -6.5760  -19.5598  -55.0441 H         1 UNK         0.3800 
    244 H244       -5.0958  -15.7049  -53.6707 H         1 UNK         0.0800 
    245 H245       -5.1412  -17.2101  -52.8126 H         1 UNK         0.0800 
    246 H246       -3.0155  -18.5763  -52.1137 H         1 UNK         0.0800 
    247 H247       -3.3135  -17.2710  -50.9814 H         1 UNK         0.0800 
@<TRIPOS>BOND
     1    1    2 1    
     2    1  127 1    
     3    1  128 1    
     4    1  129 1    
     5    2    3 2    
     6    2    4 am   BACKBONE|DICT|INTERRES
     7    4    5 1    
     8    4  130 1    
     9    5    6 1    
    10    5   65 1    
    11    5  131 1    
    12    6    7 1    
    13    6  132 1    
    14    6  133 1    
    15    7    8 1    
    16    8    9 1    
    17    8  134 1    
    18    8  135 1    
    19    9   10 ar   
    20    9   14 ar   
    21   10   11 ar   
    22   10  136 1    
    23   11   12 ar   
    24   11  126 1    
    25   12   13 ar   
    26   12  137 1    
    27   13   14 ar   
    28   13   15 1    
    29   14  138 1    
    30   15   16 1    
    31   15  139 1    
    32   15  140 1    
    33   16   17 1    
    34   17   18 1    
    35   17  141 1    
    36   17  142 1    
    37   18   19 1    
    38   18   67 1    
    39   18  143 1    
    40   19   20 am   BACKBONE|DICT|INTERRES
    41   19  144 1    
    42   20   21 2    
    43   20   22 1    
    44   22   23 1    
    45   22   24 1    
    46   22  145 1    
    47   23  146 1    
    48   23  147 1    
    49   23  148 1    
    50   24   25 am   BACKBONE|DICT|INTERRES
    51   24  149 1    
    52   25   26 2    
    53   25   27 1    
    54   27   28 1    
    55   27   29 1    
    56   27  150 1    
    57   28  151 1    
    58   28  152 1    
    59   28  153 1    
    60   29   30 am   BACKBONE|DICT|INTERRES
    61   29  154 1    
    62   30   31 2    
    63   30   32 1    
    64   32   33 1    
    65   32   34 1    
    66   32  155 1    
    67   33  156 1    
    68   33  157 1    
    69   33  158 1    
    70   34   35 am   BACKBONE|DICT|INTERRES
    71   34  159 1    
    72   35   36 2    
    73   35   37 1    
    74   37   38 1    
    75   37   39 1    
    76   37  160 1    
    77   38  161 1    
    78   38  162 1    
    79   38  163 1    
    80   39   40 am   BACKBONE|DICT|INTERRES
    81   39  164 1    
    82   40   41 2    
    83   40   42 1    
    84   42   43 1    
    85   42   44 1    
    86   42  165 1    
    87   43  166 1    
    88   43  167 1    
    89   43  168 1    
    90   44   45 am   BACKBONE|DICT|INTERRES
    91   44  169 1    
    92   45   46 2    
    93   45   47 1    
    94   47   48 1    
    95   47   49 1    
    96   47  170 1    
    97   48  171 1    
    98   48  172 1    
    99   48  173 1    
   100   49   50 am   BACKBONE|DICT|INTERRES
   101   49  174 1    
   102   50   51 2    
   103   50   52 1    
   104   52   53 1    
   105   52   54 1    
   106   52  175 1    
   107   53  176 1    
   108   53  177 1    
   109   53  178 1    
   110   54   55 am   BACKBONE|DICT|INTERRES
   111   54  179 1    
   112   55   56 2    
   113   55   57 1    
   114   57   58 1    
   115   57   59 1    
   116   57  180 1    
   117   58  181 1    
   118   58  182 1    
   119   58  183 1    
   120   59   60 am   BACKBONE|DICT|INTERRES
   121   59  184 1    
   122   60   61 2    
   123   60   62 1    
   124   62   63 1    
   125   62   64 1    
   126   62  185 1    
   127   63  186 1    
   128   63  187 1    
   129   63  188 1    
   130   64   65 am   BACKBONE|DICT|INTERRES
   131   64  189 1    
   132   65   66 2    
   133   67   68 2    
   134   67   69 am   BACKBONE|DICT|INTERRES
   135   69   70 1    
   136   69  190 1    
   137   70   71 1    
   138   70   72 1    
   139   70  191 1    
   140   71  192 1    
   141   71  193 1    
   142   71  194 1    
   143   72   73 2    
   144   72   74 am   BACKBONE|DICT|INTERRES
   145   74   75 1    
   146   74  195 1    
   147   75   76 1    
   148   75   77 1    
   149   75  196 1    
   150   76  197 1    
   151   76  198 1    
   152   76  199 1    
   153   77   78 2    
   154   77   79 am   BACKBONE|DICT|INTERRES
   155   79   80 1    
   156   79  200 1    
   157   80   81 1    
   158   80   82 1    
   159   80  201 1    
   160   81  202 1    
   161   81  203 1    
   162   81  204 1    
   163   82   83 2    
   164   82   84 am   BACKBONE|DICT|INTERRES
   165   84   85 1    
   166   84  205 1    
   167   85   86 1    
   168   85   87 1    
   169   85  206 1    
   170   86  207 1    
   171   86  208 1    
   172   86  209 1    
   173   87   88 2    
   174   87   89 am   BACKBONE|DICT|INTERRES
   175   89   90 1    
   176   89  210 1    
   177   90   91 1    
   178   90   92 1    
   179   90  211 1    
   180   91  212 1    
   181   91  213 1    
   182   91  214 1    
   183   92   93 2    
   184   92   94 am   BACKBONE|DICT|INTERRES
   185   94   95 1    
   186   94  215 1    
   187   95   96 1    
   188   95   97 1    
   189   95  216 1    
   190   96  217 1    
   191   96  218 1    
   192   96  219 1    
   193   97   98 2    
   194   97   99 am   BACKBONE|DICT|INTERRES
   195   99  100 1    
   196   99  220 1    
   197  100  101 1    
   198  100  102 1    
   199  100  221 1    
   200  101  222 1    
   201  101  223 1    
   202  101  224 1    
   203  102  103 2    
   204  102  104 am   BACKBONE|DICT|INTERRES
   205  104  105 1    
   206  104  225 1    
   207  105  106 1    
   208  105  107 1    
   209  105  226 1    
   210  106  227 1    
   211  106  228 1    
   212  106  229 1    
   213  107  108 2    
   214  107  109 am   BACKBONE|DICT|INTERRES
   215  109  110 1    
   216  109  230 1    
   217  110  111 1    
   218  110  112 1    
   219  110  231 1    
   220  111  232 1    
   221  111  233 1    
   222  111  234 1    
   223  112  113 2    
   224  112  114 am   BACKBONE|DICT|INTERRES
   225  114  115 1    
   226  114  235 1    
   227  115  116 1    
   228  115  117 1    
   229  115  236 1    
   230  116  237 1    
   231  116  238 1    
   232  116  239 1    
   233  117  118 2    
   234  117  119 am   BACKBONE|DICT|INTERRES
   235  119  120 1    
   236  119  240 1    
   237  120  121 1    
   238  120  124 1    
   239  120  241 1    
   240  121  122 am   BACKBONE|DICT|INTERRES
   241  121  123 2    
   242  122  242 1    
   243  122  243 1    
   244  124  125 1    
   245  124  244 1    
   246  124  245 1    
   247  125  126 1    
   248  126  246 1    
   249  126  247 1    
@<TRIPOS>SUBSTRUCTURE
     1 UNK         1 GROUP             0       ****    0 ROOT    
