@<TRIPOS>MOLECULE
3R540
247   249    1
SMALL
USER_CHARGES


@<TRIPOS>ATOM
      1 CA          3.8926  -16.6288  -51.9900 C.3       0 UNK        -0.1800 
      2 C           3.1244  -16.1164  -50.7816 C.2       0 UNK         0.5000 
      3 O           3.6248  -16.1966  -49.6580 O.2       0 UNK        -0.5000 
      4 N           1.9174  -15.5755  -51.0048 N.am      1 UNK        -0.5000 
      5 CA          0.9982  -15.0914  -49.9648 C.3       1 UNK         0.1400 
      6 C6         -0.3631  -14.6164  -50.5242 C.3       23 UNK        -0.0398 
      7 S7         -1.2310  -15.8430  -51.5652 S.3       23 UNK        -0.2404 
      8 C8         -1.7452  -17.1219  -50.3644 C.3       23 UNK        -0.0205 
      9 C9         -2.8471  -16.7489  -49.3679 C.ar      23 UNK        -0.0193 
     10 C10        -3.4639  -15.4906  -49.3167 C.ar      23 UNK        -0.1150 
     11 C11        -4.4454  -15.2130  -48.3599 C.ar      23 UNK        -0.0193 
     12 C12        -4.8354  -16.2108  -47.4634 C.ar      23 UNK        -0.1150 
     13 C13        -4.2494  -17.4764  -47.5152 C.ar      23 UNK        -0.0193 
     14 C14        -3.2603  -17.7348  -48.4678 C.ar      23 UNK        -0.1150 
     15 C15        -4.6956  -18.5723  -46.5581 C.3       23 UNK        -0.0205 
     16 S16        -3.8946  -18.4842  -44.9159 S.3       23 UNK        -0.2404 
     17 C17        -2.1015  -18.3974  -45.2889 C.3       23 UNK        -0.0398 
     18 CA         -1.3236  -19.7010  -45.6452 C.3       11 UNK         0.1400 
     19 N          -0.4550  -20.1694  -44.5645 N.am      11 UNK        -0.5000 
     20 C           0.5525  -21.0383  -44.7326 C.2       10 UNK         0.5000 
     21 O           0.8673  -21.5187  -45.8215 O.2       10 UNK        -0.5000 
     22 CA          1.2976  -21.4921  -43.4676 C.3       10 UNK         0.1400 
     23 CB          2.3459  -20.4571  -43.0325 C.3       10 UNK        -0.1800 
     24 N           0.3767  -21.7651  -42.3655 N.am      10 UNK        -0.5000 
     25 C          -0.4862  -22.7909  -42.3418 C.2       9 UNK         0.5000 
     26 O          -0.5673  -23.6393  -43.2304 O.2       9 UNK        -0.5000 
     27 CA         -1.4445  -22.8545  -41.1388 C.3       9 UNK         0.1400 
     28 CB         -0.7618  -23.5211  -39.9352 C.3       9 UNK        -0.1800 
     29 N          -1.9389  -21.5334  -40.7472 N.am      9 UNK        -0.5000 
     30 C          -2.7550  -20.7811  -41.4991 C.2       8 UNK         0.5000 
     31 O          -3.2023  -21.1393  -42.5869 O.2       8 UNK        -0.5000 
     32 CA         -3.0893  -19.3761  -40.9653 C.3       8 UNK         0.1400 
     33 CB         -4.2886  -19.4314  -40.0076 C.3       8 UNK        -0.1800 
     34 N          -1.9576  -18.7267  -40.2956 N.am      8 UNK        -0.5000 
     35 C          -0.8121  -18.4010  -40.9072 C.2       7 UNK         0.5000 
     36 O          -0.5762  -18.6567  -42.0884 O.2       7 UNK        -0.5000 
     37 CA          0.2615  -17.7177  -40.0546 C.3       7 UNK         0.1400 
     38 CB          1.2342  -18.7516  -39.4626 C.3       7 UNK        -0.1800 
     39 N           0.9907  -16.7689  -40.8899 N.am      7 UNK        -0.5000 
     40 C           1.5338  -15.6255  -40.4524 C.2       6 UNK         0.5000 
     41 O           1.5530  -15.2952  -39.2655 O.2       6 UNK        -0.5000 
     42 CA          2.1511  -14.6738  -41.5001 C.3       6 UNK         0.1400 
     43 CB          3.6766  -14.8467  -41.5453 C.3       6 UNK        -0.1800 
     44 N           1.6179  -14.8383  -42.8535 N.am      6 UNK        -0.5000 
     45 C           0.3448  -14.6344  -43.2227 C.2       5 UNK         0.5000 
     46 O          -0.5184  -14.2071  -42.4549 O.2       5 UNK        -0.5000 
     47 CA         -0.0468  -14.9682  -44.6803 C.3       5 UNK         0.1400 
     48 CB         -0.5833  -13.7231  -45.4040 C.3       5 UNK        -0.1800 
     49 N           1.0168  -15.5834  -45.4869 N.am      5 UNK        -0.5000 
     50 C           1.5252  -16.8054  -45.2696 C.2       4 UNK         0.5000 
     51 O           1.1654  -17.5224  -44.3404 O.2       4 UNK        -0.5000 
     52 CA          2.6402  -17.3104  -46.2019 C.3       4 UNK         0.1400 
     53 CB          2.0538  -18.1571  -47.3380 C.3       4 UNK        -0.1800 
     54 N           3.4910  -16.2597  -46.7618 N.am      4 UNK        -0.5000 
     55 C           4.3413  -15.5142  -46.0405 C.2       3 UNK         0.5000 
     56 O           4.3966  -15.5401  -44.8108 O.2       3 UNK        -0.5000 
     57 CA          5.2959  -14.5974  -46.8221 C.3       3 UNK         0.1400 
     58 CB          6.4398  -15.4130  -47.4455 C.3       3 UNK        -0.1800 
     59 N           4.5829  -13.8850  -47.8779 N.am      3 UNK        -0.5000 
     60 C           4.1097  -12.6369  -47.7634 C.2       2 UNK         0.5000 
     61 O           4.3215  -11.9079  -46.7935 O.2       2 UNK        -0.5000 
     62 CA          3.2308  -12.1149  -48.9190 C.3       2 UNK         0.1400 
     63 CB          4.0805  -11.3278  -49.9282 C.3       2 UNK        -0.1800 
     64 N           2.5003  -13.1678  -49.6297 N.am      2 UNK        -0.5000 
     65 C           1.6020  -13.9911  -49.0699 C.2       1 UNK         0.5000 
     66 O           1.2764  -13.9399  -47.8860 O.2       1 UNK        -0.5000 
     67 C          -2.1553  -20.8573  -46.2344 C.2       11 UNK         0.5000 
     68 O          -2.2331  -20.9707  -47.4562 O.2       11 UNK        -0.5000 
     69 N          -2.7052  -21.7293  -45.3762 N.am      12 UNK        -0.5000 
     70 CA         -3.4297  -22.9346  -45.7796 C.3       12 UNK         0.1400 
     71 CB         -4.0364  -23.6203  -44.5471 C.3       12 UNK        -0.1800 
     72 C          -2.5514  -23.9146  -46.5771 C.2       12 UNK         0.5000 
     73 O          -2.9947  -24.4135  -47.6108 O.2       12 UNK        -0.5000 
     74 N          -1.3113  -24.1320  -46.1158 N.am      13 UNK        -0.5000 
     75 CA         -0.3112  -24.9592  -46.7932 C.3       13 UNK         0.1400 
     76 CB          0.9073  -25.1473  -45.8771 C.3       13 UNK        -0.1800 
     77 C           0.1140  -24.3967  -48.1636 C.2       13 UNK         0.5000 
     78 O           0.2917  -25.1719  -49.1031 O.2       13 UNK        -0.5000 
     79 N           0.2511  -23.0666  -48.2603 N.am      14 UNK        -0.5000 
     80 CA          0.5434  -22.3567  -49.5068 C.3       14 UNK         0.1400 
     81 CB          0.9797  -20.9198  -49.1890 C.3       14 UNK        -0.1800 
     82 C          -0.6447  -22.3513  -50.4848 C.2       14 UNK         0.5000 
     83 O          -0.4318  -22.3891  -51.6962 O.2       14 UNK        -0.5000 
     84 N          -1.8712  -22.2888  -49.9527 N.am      15 UNK        -0.5000 
     85 CA         -3.1084  -22.3189  -50.7228 C.3       15 UNK         0.1400 
     86 CB         -4.2779  -21.8408  -49.8502 C.3       15 UNK        -0.1800 
     87 C          -3.3973  -23.7030  -51.3251 C.2       15 UNK         0.5000 
     88 O          -3.6772  -23.7847  -52.5233 O.2       15 UNK        -0.5000 
     89 N          -3.3351  -24.7431  -50.4807 N.am      16 UNK        -0.5000 
     90 CA         -3.6912  -26.1342  -50.7702 C.3       16 UNK         0.1400 
     91 CB         -3.4096  -26.9954  -49.5276 C.3       16 UNK        -0.1800 
     92 C          -2.9882  -26.7110  -52.0132 C.2       16 UNK         0.5000 
     93 O          -1.8023  -27.0404  -51.9511 O.2       16 UNK        -0.5000 
     94 N          -3.7475  -26.8068  -53.1153 N.am      17 UNK        -0.5000 
     95 CA         -3.3433  -27.2995  -54.4379 C.3       17 UNK         0.1400 
     96 CB         -3.0532  -28.8145  -54.3850 C.3       17 UNK        -0.1800 
     97 C          -2.1928  -26.4918  -55.0798 C.2       17 UNK         0.5000 
     98 O          -1.4269  -27.0424  -55.8738 O.2       17 UNK        -0.5000 
     99 N          -2.0904  -25.2041  -54.7296 N.am      18 UNK        -0.5000 
    100 CA        -1.0364  -24.3034  -55.1775 C.3       18 UNK         0.1400 
    101 CB         0.1607  -24.3766  -54.2111 C.3       18 UNK        -0.1800 
    102 C         -1.6219  -22.9005  -55.3914 C.2       18 UNK         0.5000 
    103 O         -2.2056  -22.6643  -56.4504 O.2       18 UNK        -0.5000 
    104 N         -1.4611  -21.9890  -54.4202 N.am      19 UNK        -0.5000 
    105 CA        -1.8602  -20.5823  -54.5540 C.3       19 UNK         0.1400 
    106 CB        -1.1988  -19.7491  -53.4429 C.3       19 UNK        -0.1800 
    107 C         -3.3847  -20.3489  -54.5692 C.2       19 UNK         0.5000 
    108 O         -3.8194  -19.3059  -55.0559 O.2       19 UNK        -0.5000 
    109 N         -4.1599  -21.2991  -54.0214 N.am      20 UNK        -0.5000 
    110 CA        -5.6267  -21.3143  -53.9041 C.3       20 UNK         0.1400 
    111 CB        -6.2853  -21.3392  -55.2988 C.3       20 UNK        -0.1800 
    112 C         -6.2236  -20.2152  -52.9928 C.2       20 UNK         0.5000 
    113 O         -7.4443  -20.0494  -52.9739 O.2       20 UNK        -0.5000 
    114 N         -5.3593  -19.5205  -52.2376 N.am      21 UNK        -0.5000 
    115 CA        -5.6211  -18.3797  -51.3527 C.3       21 UNK         0.1400 
    116 CB        -6.6135  -18.7494  -50.2295 C.3       21 UNK        -0.1800 
    117 C         -6.0462  -17.0980  -52.1008 C.2       21 UNK         0.5000 
    118 O         -6.2774  -17.1120  -53.3122 O.2       21 UNK        -0.5000 
    119 N         -6.1066  -15.9893  -51.3563 N.am      22 UNK        -0.5000 
    120 CA        -6.5700  -14.6811  -51.8364 C.3       22 UNK         0.1400 
    121 C         -8.0990  -14.6322  -52.1284 C.2       22 UNK         0.5000 
    122 N         -8.5405  -13.7178  -52.9823 N.am      22 UNK        -0.7600 
    123 O         -8.8928  -15.3907  -51.5749 O.2       22 UNK        -0.5000 
    124 C124       -6.1171  -13.5363  -50.8928 C.3       23 UNK        -0.0398 
    125 S125       -6.6554  -13.7240  -49.1537 S.3       23 UNK        -0.2404 
    126 C126       -5.0679  -13.8278  -48.2687 C.3       23 UNK        -0.0205 
    127 H127        4.8433  -16.1034  -52.0794 H         1 UNK         0.0600 
    128 H128        3.3347  -16.4860  -52.9157 H         1 UNK         0.0600 
    129 H129        4.0989  -17.6931  -51.8770 H         1 UNK         0.0600 
    130 H130        1.5578  -15.5419  -51.9484 H         1 UNK         0.3000 
    131 H131        0.8036  -15.9374  -49.3073 H         1 UNK         0.0600 
    132 H132       -1.0152  -14.3199  -49.7026 H         1 UNK         0.0800 
    133 H133       -0.2260  -13.7197  -51.1313 H         1 UNK         0.0800 
    134 H134       -0.8692  -17.4673  -49.8146 H         1 UNK         0.0800 
    135 H135       -2.0910  -17.9815  -50.9396 H         1 UNK         0.0800 
    136 H136       -3.1885  -14.7141  -50.0130 H         1 UNK         0.1150 
    137 H137       -5.5958  -16.0022  -46.7237 H         1 UNK         0.1150 
    138 H138       -2.8055  -18.7138  -48.5105 H         1 UNK         0.1150 
    139 H139       -5.7749  -18.5036  -46.4153 H         1 UNK         0.0800 
    140 H140       -4.5276  -19.5524  -47.0042 H         1 UNK         0.0800 
    141 H141       -1.6347  -17.9256  -44.4243 H         1 UNK         0.0800 
    142 H142       -1.9567  -17.6672  -46.0839 H         1 UNK         0.0800 
    143 H143       -0.6429  -19.4116  -46.4475 H         1 UNK         0.0600 
    144 H144       -0.6013  -19.7579  -43.6462 H         1 UNK         0.3000 
    145 H145        1.8225  -22.4190  -43.7088 H         1 UNK         0.0600 
    146 H146        2.9412  -20.8262  -42.1975 H         1 UNK         0.0600 
    147 H147        3.0329  -20.2315  -43.8490 H         1 UNK         0.0600 
    148 H148        1.8861  -19.5181  -42.7261 H         1 UNK         0.0600 
    149 H149        0.3379  -21.0808  -41.6258 H         1 UNK         0.3000 
    150 H150       -2.3014  -23.4670  -41.4275 H         1 UNK         0.0600 
    151 H151       -0.3966  -24.5154  -40.1961 H         1 UNK         0.0600 
    152 H152       -1.4567  -23.6394  -39.1037 H         1 UNK         0.0600 
    153 H153        0.0909  -22.9405  -39.5809 H         1 UNK         0.0600 
    154 H154       -1.6178  -21.1644  -39.8646 H         1 UNK         0.3000 
    155 H155       -3.3672  -18.7588  -41.8222 H         1 UNK         0.0600 
    156 H156       -4.0636  -20.0105  -39.1111 H         1 UNK         0.0600 
    157 H157       -4.5907  -18.4315  -39.6957 H         1 UNK         0.0600 
    158 H158       -5.1510  -19.8940  -40.4898 H         1 UNK         0.0600 
    159 H159       -2.0805  -18.4978  -39.3196 H         1 UNK         0.3000 
    160 H160       -0.2372  -17.1838  -39.2428 H         1 UNK         0.0600 
    161 H161        1.7677  -19.2956  -40.2424 H         1 UNK         0.0600 
    162 H162        0.7054  -19.4840  -38.8515 H         1 UNK         0.0600 
    163 H163        1.9766  -18.2726  -38.8241 H         1 UNK         0.0600 
    164 H164        0.9732  -16.9732  -41.8836 H         1 UNK         0.3000 
    165 H165        1.9318  -13.6531  -41.1808 H         1 UNK         0.0600 
    166 H166        4.1367  -14.1214  -42.2168 H         1 UNK         0.0600 
    167 H167        4.1180  -14.7013  -40.5585 H         1 UNK         0.0600 
    168 H168        3.9564  -15.8439  -41.8878 H         1 UNK         0.0600 
    169 H169        2.2622  -15.1914  -43.5484 H         1 UNK         0.3000 
    170 H170       -0.8666  -15.6851  -44.6176 H         1 UNK         0.0600 
    171 H171       -1.3963  -13.2585  -44.8448 H         1 UNK         0.0600 
    172 H172        0.1956  -12.9716  -45.5379 H         1 UNK         0.0600 
    173 H173       -0.9792  -13.9801  -46.3868 H         1 UNK         0.0600 
    174 H174        1.3488  -15.0397  -46.2787 H         1 UNK         0.3000 
    175 H175        3.2848  -17.9613  -45.6072 H         1 UNK         0.0600 
    176 H176        1.2913  -17.6185  -47.8978 H         1 UNK         0.0600 
    177 H177        2.8256  -18.4780  -48.0378 H         1 UNK         0.0600 
    178 H178        1.5915  -19.0573  -46.9361 H         1 UNK         0.0600 
    179 H179        3.5188  -16.1949  -47.7759 H         1 UNK         0.3000 
    180 H180        5.7366  -13.8903  -46.1161 H         1 UNK         0.0600 
    181 H181        6.0725  -16.1396  -48.1715 H         1 UNK         0.0600 
    182 H182        6.9898  -15.9618  -46.6800 H         1 UNK         0.0600 
    183 H183        7.1519  -14.7635  -47.9548 H         1 UNK         0.0600 
    184 H184        4.3283  -14.4280  -48.6941 H         1 UNK         0.3000 
    185 H185        2.4936  -11.4352  -48.4866 H         1 UNK         0.0600 
    186 H186        4.6200  -10.5170  -49.4365 H         1 UNK         0.0600 
    187 H187        4.8192  -11.9655  -50.4155 H         1 UNK         0.0600 
    188 H188        3.4590  -10.8790  -50.7033 H         1 UNK         0.0600 
    189 H189        2.7236  -13.2954  -50.6060 H         1 UNK         0.3000 
    190 H190       -2.6544  -21.5403  -44.3786 H         1 UNK         0.3000 
    191 H191       -4.2500  -22.6223  -46.4290 H         1 UNK         0.0600 
    192 H192       -3.2697  -23.9119  -43.8291 H         1 UNK         0.0600 
    193 H193       -4.5828  -24.5209  -44.8299 H         1 UNK         0.0600 
    194 H194       -4.7389  -22.9611  -44.0369 H         1 UNK         0.0600 
    195 H195       -1.0327  -23.7094  -45.2364 H         1 UNK         0.3000 
    196 H196       -0.7580  -25.9406  -46.9661 H         1 UNK         0.0600 
    197 H197        1.6582  -25.7809  -46.3507 H         1 UNK         0.0600 
    198 H198        0.6244  -25.6240  -44.9384 H         1 UNK         0.0600 
    199 H199        1.3831  -24.1960  -45.6383 H         1 UNK         0.0600 
    200 H200        0.1543  -22.5017  -47.4222 H         1 UNK         0.3000 
    201 H201        1.3756  -22.8617  -50.0013 H         1 UNK         0.0600 
    202 H202        1.8685  -20.9142  -48.5583 H         1 UNK         0.0600 
    203 H203        0.1955  -20.3659  -48.6722 H         1 UNK         0.0600 
    204 H204        1.2229  -20.3719  -50.1004 H         1 UNK         0.0600 
    205 H205       -1.9610  -22.1598  -48.9491 H         1 UNK         0.3000 
    206 H206       -3.0057  -21.6134  -51.5461 H         1 UNK         0.0600 
    207 H207       -5.2178  -21.8707  -50.4024 H         1 UNK         0.0600 
    208 H208       -4.4009  -22.4598  -48.9618 H         1 UNK         0.0600 
    209 H209       -4.1247  -20.8132  -49.5203 H         1 UNK         0.0600 
    210 H210       -3.0860  -24.5537  -49.5130 H         1 UNK         0.3000 
    211 H211       -4.7684  -26.1582  -50.9455 H         1 UNK         0.0600 
    212 H212       -2.3676  -26.9173  -49.2137 H         1 UNK         0.0600 
    213 H213       -3.6182  -28.0482  -49.7223 H         1 UNK         0.0600 
    214 H214       -4.0352  -26.6924  -48.6881 H         1 UNK         0.0600 
    215 H215       -4.6964  -26.4632  -53.0613 H         1 UNK         0.3000 
    216 H216       -4.2057  -27.1550  -55.0901 H         1 UNK         0.0600 
    217 H217       -2.8989  -29.2203  -55.3854 H         1 UNK         0.0600 
    218 H218       -3.8859  -29.3603  -53.9414 H         1 UNK         0.0600 
    219 H219       -2.1587  -29.0347  -53.8016 H         1 UNK         0.0600 
    220 H220       -2.7603  -24.8167  -54.0723 H         1 UNK         0.3000 
    221 H221       -0.6790  -24.6155  -56.1613 H         1 UNK         0.0600 
    222 H222       -0.1618  -24.3838  -53.1712 H         1 UNK         0.0600 
    223 H223        0.7255  -25.2948  -54.3730 H         1 UNK         0.0600 
    224 H224        0.8517  -23.5447  -54.3531 H         1 UNK         0.0600 
    225 H225       -0.9953  -22.2505  -53.5541 H         1 UNK         0.3000 
    226 H226       -1.4742  -20.2198  -55.5092 H         1 UNK         0.0600 
    227 H227       -0.1156  -19.8716  -53.4486 H         1 UNK         0.0600 
    228 H228       -1.4044  -18.6861  -53.5768 H         1 UNK         0.0600 
    229 H229       -1.5600  -20.0263  -52.4537 H         1 UNK         0.0600 
    230 H230       -3.7043  -22.1314  -53.6617 H         1 UNK         0.3000 
    231 H231       -5.8698  -22.2594  -53.4166 H         1 UNK         0.0600 
    232 H232       -7.3573  -21.5248  -55.2234 H         1 UNK         0.0600 
    233 H233       -5.8636  -22.1298  -55.9196 H         1 UNK         0.0600 
    234 H234       -6.1557  -20.3930  -55.8248 H         1 UNK         0.0600 
    235 H235       -4.3838  -19.7222  -52.3901 H         1 UNK         0.3000 
    236 H236       -4.6621  -18.1605  -50.8881 H         1 UNK         0.0600 
    237 H237       -6.3195  -19.6677  -49.7230 H         1 UNK         0.0600 
    238 H238       -6.6571  -17.9680  -49.4703 H         1 UNK         0.0600 
    239 H239       -7.6261  -18.8849  -50.6099 H         1 UNK         0.0600 
    240 H240       -5.9201  -16.0442  -50.3651 H         1 UNK         0.3000 
    241 H241       -6.0736  -14.5114  -52.7942 H         1 UNK         0.0600 
    242 H242       -9.5292  -13.6665  -53.1742 H         1 UNK         0.3800 
    243 H243       -7.9146  -13.0813  -53.4517 H         1 UNK         0.3800 
    244 H244       -5.0306  -13.4566  -50.9284 H         1 UNK         0.0800 
    245 H245       -6.4817  -12.5748  -51.2578 H         1 UNK         0.0800 
    246 H246       -4.3800  -13.0682  -48.6433 H         1 UNK         0.0800 
    247 H247       -5.2400  -13.5806  -47.2201 H         1 UNK         0.0800 
@<TRIPOS>BOND
     1    1    2 1    
     2    1  127 1    
     3    1  128 1    
     4    1  129 1    
     5    2    3 2    
     6    2    4 am   BACKBONE|DICT|INTERRES
     7    4    5 1    
     8    4  130 1    
     9    5    6 1    
    10    5   65 1    
    11    5  131 1    
    12    6    7 1    
    13    6  132 1    
    14    6  133 1    
    15    7    8 1    
    16    8    9 1    
    17    8  134 1    
    18    8  135 1    
    19    9   10 ar   
    20    9   14 ar   
    21   10   11 ar   
    22   10  136 1    
    23   11   12 ar   
    24   11  126 1    
    25   12   13 ar   
    26   12  137 1    
    27   13   14 ar   
    28   13   15 1    
    29   14  138 1    
    30   15   16 1    
    31   15  139 1    
    32   15  140 1    
    33   16   17 1    
    34   17   18 1    
    35   17  141 1    
    36   17  142 1    
    37   18   19 1    
    38   18   67 1    
    39   18  143 1    
    40   19   20 am   BACKBONE|DICT|INTERRES
    41   19  144 1    
    42   20   21 2    
    43   20   22 1    
    44   22   23 1    
    45   22   24 1    
    46   22  145 1    
    47   23  146 1    
    48   23  147 1    
    49   23  148 1    
    50   24   25 am   BACKBONE|DICT|INTERRES
    51   24  149 1    
    52   25   26 2    
    53   25   27 1    
    54   27   28 1    
    55   27   29 1    
    56   27  150 1    
    57   28  151 1    
    58   28  152 1    
    59   28  153 1    
    60   29   30 am   BACKBONE|DICT|INTERRES
    61   29  154 1    
    62   30   31 2    
    63   30   32 1    
    64   32   33 1    
    65   32   34 1    
    66   32  155 1    
    67   33  156 1    
    68   33  157 1    
    69   33  158 1    
    70   34   35 am   BACKBONE|DICT|INTERRES
    71   34  159 1    
    72   35   36 2    
    73   35   37 1    
    74   37   38 1    
    75   37   39 1    
    76   37  160 1    
    77   38  161 1    
    78   38  162 1    
    79   38  163 1    
    80   39   40 am   BACKBONE|DICT|INTERRES
    81   39  164 1    
    82   40   41 2    
    83   40   42 1    
    84   42   43 1    
    85   42   44 1    
    86   42  165 1    
    87   43  166 1    
    88   43  167 1    
    89   43  168 1    
    90   44   45 am   BACKBONE|DICT|INTERRES
    91   44  169 1    
    92   45   46 2    
    93   45   47 1    
    94   47   48 1    
    95   47   49 1    
    96   47  170 1    
    97   48  171 1    
    98   48  172 1    
    99   48  173 1    
   100   49   50 am   BACKBONE|DICT|INTERRES
   101   49  174 1    
   102   50   51 2    
   103   50   52 1    
   104   52   53 1    
   105   52   54 1    
   106   52  175 1    
   107   53  176 1    
   108   53  177 1    
   109   53  178 1    
   110   54   55 am   BACKBONE|DICT|INTERRES
   111   54  179 1    
   112   55   56 2    
   113   55   57 1    
   114   57   58 1    
   115   57   59 1    
   116   57  180 1    
   117   58  181 1    
   118   58  182 1    
   119   58  183 1    
   120   59   60 am   BACKBONE|DICT|INTERRES
   121   59  184 1    
   122   60   61 2    
   123   60   62 1    
   124   62   63 1    
   125   62   64 1    
   126   62  185 1    
   127   63  186 1    
   128   63  187 1    
   129   63  188 1    
   130   64   65 am   BACKBONE|DICT|INTERRES
   131   64  189 1    
   132   65   66 2    
   133   67   68 2    
   134   67   69 am   BACKBONE|DICT|INTERRES
   135   69   70 1    
   136   69  190 1    
   137   70   71 1    
   138   70   72 1    
   139   70  191 1    
   140   71  192 1    
   141   71  193 1    
   142   71  194 1    
   143   72   73 2    
   144   72   74 am   BACKBONE|DICT|INTERRES
   145   74   75 1    
   146   74  195 1    
   147   75   76 1    
   148   75   77 1    
   149   75  196 1    
   150   76  197 1    
   151   76  198 1    
   152   76  199 1    
   153   77   78 2    
   154   77   79 am   BACKBONE|DICT|INTERRES
   155   79   80 1    
   156   79  200 1    
   157   80   81 1    
   158   80   82 1    
   159   80  201 1    
   160   81  202 1    
   161   81  203 1    
   162   81  204 1    
   163   82   83 2    
   164   82   84 am   BACKBONE|DICT|INTERRES
   165   84   85 1    
   166   84  205 1    
   167   85   86 1    
   168   85   87 1    
   169   85  206 1    
   170   86  207 1    
   171   86  208 1    
   172   86  209 1    
   173   87   88 2    
   174   87   89 am   BACKBONE|DICT|INTERRES
   175   89   90 1    
   176   89  210 1    
   177   90   91 1    
   178   90   92 1    
   179   90  211 1    
   180   91  212 1    
   181   91  213 1    
   182   91  214 1    
   183   92   93 2    
   184   92   94 am   BACKBONE|DICT|INTERRES
   185   94   95 1    
   186   94  215 1    
   187   95   96 1    
   188   95   97 1    
   189   95  216 1    
   190   96  217 1    
   191   96  218 1    
   192   96  219 1    
   193   97   98 2    
   194   97   99 am   BACKBONE|DICT|INTERRES
   195   99  100 1    
   196   99  220 1    
   197  100  101 1    
   198  100  102 1    
   199  100  221 1    
   200  101  222 1    
   201  101  223 1    
   202  101  224 1    
   203  102  103 2    
   204  102  104 am   BACKBONE|DICT|INTERRES
   205  104  105 1    
   206  104  225 1    
   207  105  106 1    
   208  105  107 1    
   209  105  226 1    
   210  106  227 1    
   211  106  228 1    
   212  106  229 1    
   213  107  108 2    
   214  107  109 am   BACKBONE|DICT|INTERRES
   215  109  110 1    
   216  109  230 1    
   217  110  111 1    
   218  110  112 1    
   219  110  231 1    
   220  111  232 1    
   221  111  233 1    
   222  111  234 1    
   223  112  113 2    
   224  112  114 am   BACKBONE|DICT|INTERRES
   225  114  115 1    
   226  114  235 1    
   227  115  116 1    
   228  115  117 1    
   229  115  236 1    
   230  116  237 1    
   231  116  238 1    
   232  116  239 1    
   233  117  118 2    
   234  117  119 am   BACKBONE|DICT|INTERRES
   235  119  120 1    
   236  119  240 1    
   237  120  121 1    
   238  120  124 1    
   239  120  241 1    
   240  121  122 am   BACKBONE|DICT|INTERRES
   241  121  123 2    
   242  122  242 1    
   243  122  243 1    
   244  124  125 1    
   245  124  244 1    
   246  124  245 1    
   247  125  126 1    
   248  126  246 1    
   249  126  247 1    
@<TRIPOS>SUBSTRUCTURE
     1 UNK         1 GROUP             0       ****    0 ROOT    
