@<TRIPOS>MOLECULE
3R540
247   249    1
SMALL
USER_CHARGES


@<TRIPOS>ATOM
      1 CA         -0.4204   -9.9052  -53.4432 C.3       0 UNK        -0.1800 
      2 C           0.7905  -10.2963  -52.6076 C.2       0 UNK         0.5000 
      3 O           1.7623   -9.5425  -52.5468 O.2       0 UNK        -0.5000 
      4 N           0.7394  -11.4732  -51.9713 N.am      1 UNK        -0.5000 
      5 CA          1.7736  -11.9872  -51.0711 C.3       1 UNK         0.1400 
      6 C6          1.6011  -13.5080  -50.8447 C.3       23 UNK        -0.0398 
      7 S7          2.9783  -14.2422  -49.8997 S.3       23 UNK        -0.2404 
      8 C8          2.0957  -14.8382  -48.4271 C.3       23 UNK        -0.0205 
      9 C9          1.5557  -16.2442  -48.6219 C.ar      23 UNK        -0.0193 
     10 C10         0.1971  -16.4703  -48.8491 C.ar      23 UNK        -0.1150 
     11 C11        -0.3005  -17.7753  -48.9549 C.ar      23 UNK        -0.0193 
     12 C12         0.5891  -18.8547  -48.8695 C.ar      23 UNK        -0.1150 
     13 C13         1.9557  -18.6395  -48.6511 C.ar      23 UNK        -0.0193 
     14 C14         2.4262  -17.3302  -48.5349 C.ar      23 UNK        -0.1150 
     15 C15         2.9484  -19.7952  -48.5672 C.3       23 UNK        -0.0205 
     16 S16         2.6178  -20.9419  -47.1837 S.3       23 UNK        -0.2404 
     17 C17         1.7102  -22.2757  -48.0437 C.3       23 UNK        -0.0398 
     18 CA          0.3698  -22.6983  -47.3845 C.3       11 UNK         0.1400 
     19 N          -0.3893  -21.5489  -46.8637 N.am      11 UNK        -0.5000 
     20 C          -1.6783  -21.4908  -46.4975 C.2       10 UNK         0.5000 
     21 O          -2.5033  -22.3808  -46.7032 O.2       10 UNK        -0.5000 
     22 CA         -2.0913  -20.2124  -45.7481 C.3       10 UNK         0.1400 
     23 CB         -3.6016  -20.1533  -45.4384 C.3       10 UNK        -0.1800 
     24 N          -1.2998  -20.0124  -44.5320 N.am      10 UNK        -0.5000 
     25 C          -1.1980  -20.8216  -43.4658 C.2       9 UNK         0.5000 
     26 O          -1.7613  -21.9113  -43.3602 O.2       9 UNK        -0.5000 
     27 CA         -0.3342  -20.3062  -42.2976 C.3       9 UNK         0.1400 
     28 CB          1.1427  -20.6819  -42.4971 C.3       9 UNK        -0.1800 
     29 N          -0.4564  -18.8577  -42.1181 N.am      9 UNK        -0.5000 
     30 C          -1.5468  -18.2491  -41.6280 C.2       8 UNK         0.5000 
     31 O          -2.5195  -18.8524  -41.1730 O.2       8 UNK        -0.5000 
     32 CA         -1.5675  -16.7090  -41.6678 C.3       8 UNK         0.1400 
     33 CB         -0.9374  -16.1237  -40.3950 C.3       8 UNK        -0.1800 
     34 N          -0.8902  -16.1634  -42.8446 N.am      8 UNK        -0.5000 
     35 C          -1.3295  -16.2919  -44.1051 C.2       7 UNK         0.5000 
     36 O          -2.4027  -16.8144  -44.4013 O.2       7 UNK        -0.5000 
     37 CA         -0.3961  -15.7847  -45.2216 C.3       7 UNK         0.1400 
     38 CB         -0.6203  -14.2872  -45.4757 C.3       7 UNK        -0.1800 
     39 N           1.0170  -16.0340  -44.9299 N.am      7 UNK        -0.5000 
     40 C           1.5609  -17.2552  -44.8249 C.2       6 UNK         0.5000 
     41 O           0.9356  -18.2948  -45.0282 O.2       6 UNK        -0.5000 
     42 CA          3.0182  -17.3344  -44.3367 C.3       6 UNK         0.1400 
     43 CB          4.0157  -17.2576  -45.4984 C.3       6 UNK        -0.1800 
     44 N           3.3178  -16.2777  -43.3731 N.am      6 UNK        -0.5000 
     45 C           2.9720  -16.3218  -42.0802 C.2       5 UNK         0.5000 
     46 O           2.3977  -17.2788  -41.5603 O.2       5 UNK        -0.5000 
     47 CA          3.2961  -15.0742  -41.2362 C.3       5 UNK         0.1400 
     48 CB          4.7355  -15.1405  -40.7043 C.3       5 UNK        -0.1800 
     49 N           3.1100  -13.8221  -41.9740 N.am      5 UNK        -0.5000 
     50 C           1.9208  -13.3651  -42.3890 C.2       4 UNK         0.5000 
     51 O           0.8579  -13.9441  -42.1710 O.2       4 UNK        -0.5000 
     52 CA          1.9139  -12.0668  -43.2181 C.3       4 UNK         0.1400 
     53 CB          1.8282  -10.8430  -42.2943 C.3       4 UNK        -0.1800 
     54 N           3.0523  -11.9033  -44.1271 N.am      4 UNK        -0.5000 
     55 C           3.4490  -12.7745  -45.0635 C.2       3 UNK         0.5000 
     56 O           2.9499  -13.8901  -45.2145 O.2       3 UNK        -0.5000 
     57 CA          4.5754  -12.2978  -45.9999 C.3       3 UNK         0.1400 
     58 CB          5.4272  -13.4612  -46.5373 C.3       3 UNK        -0.1800 
     59 N           4.0366  -11.5299  -47.1244 N.am      3 UNK        -0.5000 
     60 C           3.5810  -10.2715  -47.0415 C.2       2 UNK         0.5000 
     61 O           3.5834   -9.6216  -45.9944 O.2       2 UNK        -0.5000 
     62 CA          3.0629   -9.6024  -48.3295 C.3       2 UNK         0.1400 
     63 CB          4.0145   -8.4749  -48.7623 C.3       2 UNK        -0.1800 
     64 N           2.9036  -10.5261  -49.4553 N.am      2 UNK        -0.5000 
     65 C           1.7726  -11.1776  -49.7541 C.2       1 UNK         0.5000 
     66 O           0.7549  -11.1461  -49.0588 O.2       1 UNK        -0.5000 
     67 C          -0.3973  -23.5957  -48.3786 C.2       11 UNK         0.5000 
     68 O          -0.3967  -24.8208  -48.2412 O.2       11 UNK        -0.5000 
     69 N          -1.0485  -22.9535  -49.3578 N.am      12 UNK        -0.5000 
     70 CA         -1.7973  -23.5887  -50.4389 C.3       12 UNK         0.1400 
     71 CB         -2.2333  -22.5100  -51.4379 C.3       12 UNK        -0.1800 
     72 C          -2.9959  -24.4291  -49.9620 C.2       12 UNK         0.5000 
     73 O          -3.3381  -25.4057  -50.6273 O.2       12 UNK        -0.5000 
     74 N          -3.5761  -24.1001  -48.7978 N.am      13 UNK        -0.5000 
     75 CA         -4.6661  -24.8658  -48.1864 C.3       13 UNK         0.1400 
     76 CB         -5.2349  -24.0925  -46.9880 C.3       13 UNK        -0.1800 
     77 C          -4.2439  -26.2886  -47.7700 C.2       13 UNK         0.5000 
     78 O          -5.0960  -27.1753  -47.7194 O.2       13 UNK        -0.5000 
     79 N          -2.9432  -26.4852  -47.5160 N.am      14 UNK        -0.5000 
     80 CA         -2.3306  -27.7888  -47.2857 C.3       14 UNK         0.1400 
     81 CB         -1.2924  -27.6689  -46.1585 C.3       14 UNK        -0.1800 
     82 C          -1.6785  -28.3205  -48.5733 C.2       14 UNK         0.5000 
     83 O          -1.9061  -29.4754  -48.9330 O.2       14 UNK        -0.5000 
     84 N          -0.8704  -27.4797  -49.2362 N.am      15 UNK        -0.5000 
     85 CA         -0.0116  -27.8736  -50.3559 C.3       15 UNK         0.1400 
     86 CB          1.0567  -26.7916  -50.5778 C.3       15 UNK        -0.1800 
     87 C          -0.7620  -28.1690  -51.6679 C.2       15 UNK         0.5000 
     88 O          -0.3630  -29.0817  -52.3923 O.2       15 UNK        -0.5000 
     89 N          -1.8164  -27.3969  -51.9569 N.am      16 UNK        -0.5000 
     90 CA         -2.6291  -27.5019  -53.1732 C.3       16 UNK         0.1400 
     91 CB         -2.6269  -26.1361  -53.8828 C.3       16 UNK        -0.1800 
     92 C          -4.0714  -27.9522  -52.8715 C.2       16 UNK         0.5000 
     93 O          -4.8456  -28.1492  -53.8086 O.2       16 UNK        -0.5000 
     94 N          -4.4090  -28.0921  -51.5803 N.am      17 UNK        -0.5000 
     95 CA         -5.7259  -28.4229  -51.0240 C.3       17 UNK         0.1400 
     96 CB         -6.1789  -29.8300  -51.4671 C.3       17 UNK        -0.1800 
     97 C          -6.8011  -27.3404  -51.2752 C.2       17 UNK         0.5000 
     98 O          -7.9944  -27.6387  -51.1987 O.2       17 UNK        -0.5000 
     99 N          -6.3741  -26.1019  -51.5503 N.am      18 UNK        -0.5000 
    100 CA        -7.2266  -24.9436  -51.7959 C.3       18 UNK         0.1400 
    101 CB        -7.7700  -24.9680  -53.2356 C.3       18 UNK        -0.1800 
    102 C         -6.3837  -23.6913  -51.5434 C.2       18 UNK         0.5000 
    103 O         -5.2890  -23.5905  -52.0947 O.2       18 UNK        -0.5000 
    104 N         -6.8908  -22.7761  -50.7072 N.am      19 UNK        -0.5000 
    105 CA        -6.1580  -21.6218  -50.1723 C.3       19 UNK         0.1400 
    106 CB        -7.0234  -20.9383  -49.1040 C.3       19 UNK        -0.1800 
    107 C         -5.6711  -20.5968  -51.2166 C.2       19 UNK         0.5000 
    108 O         -4.7274  -19.8593  -50.9273 O.2       19 UNK        -0.5000 
    109 N         -6.3014  -20.5744  -52.4012 N.am      20 UNK        -0.5000 
    110 CA        -5.9487  -19.7642  -53.5716 C.3       20 UNK         0.1400 
    111 CB        -4.6424  -20.2955  -54.2050 C.3       20 UNK        -0.1800 
    112 C         -5.9191  -18.2591  -53.2329 C.2       20 UNK         0.5000 
    113 O         -6.9716  -17.6943  -52.9299 O.2       20 UNK        -0.5000 
    114 N         -4.7252  -17.6490  -53.2344 N.am      21 UNK        -0.5000 
    115 CA        -4.4778  -16.2559  -52.8485 C.3       21 UNK         0.1400 
    116 CB        -2.9975  -15.9264  -53.0973 C.3       21 UNK        -0.1800 
    117 C         -4.8613  -15.9294  -51.3896 C.2       21 UNK         0.5000 
    118 O         -5.1749  -14.7757  -51.0939 O.2       21 UNK        -0.5000 
    119 N         -4.8517  -16.9464  -50.5197 N.am      22 UNK        -0.5000 
    120 CA        -5.3307  -16.8773  -49.1326 C.3       22 UNK         0.1400 
    121 C         -6.8531  -17.1783  -48.9860 C.2       22 UNK         0.5000 
    122 N         -7.6009  -17.4486  -50.0505 N.am      22 UNK        -0.7600 
    123 O         -7.3786  -17.1495  -47.8769 O.2       22 UNK        -0.5000 
    124 C124       -4.4736  -17.7742  -48.2021 C.3       23 UNK        -0.0398 
    125 S125       -2.8012  -17.1001  -47.9453 S.3       23 UNK        -0.2404 
    126 C126       -1.7944  -18.0181  -49.1585 C.3       23 UNK        -0.0205 
    127 H127       -0.1275   -9.7589  -54.4829 H         1 UNK         0.0600 
    128 H128       -1.1981  -10.6688  -53.4134 H         1 UNK         0.0600 
    129 H129       -0.8458   -8.9723  -53.0731 H         1 UNK         0.0600 
    130 H130       -0.0998  -12.0308  -52.0387 H         1 UNK         0.3000 
    131 H131        2.7363  -11.8409  -51.5668 H         1 UNK         0.0600 
    132 H132        1.5639  -14.0199  -51.8073 H         1 UNK         0.0800 
    133 H133        0.6468  -13.7204  -50.3601 H         1 UNK         0.0800 
    134 H134        1.3028  -14.1420  -48.1535 H         1 UNK         0.0800 
    135 H135        2.7829  -14.8495  -47.5850 H         1 UNK         0.0800 
    136 H136       -0.4805  -15.6308  -48.9138 H         1 UNK         0.1150 
    137 H137        0.2193  -19.8630  -48.9720 H         1 UNK         0.1150 
    138 H138        3.4793  -17.1476  -48.3755 H         1 UNK         0.1150 
    139 H139        2.9735  -20.3226  -49.5210 H         1 UNK         0.0800 
    140 H140        3.9592  -19.4086  -48.4290 H         1 UNK         0.0800 
    141 H141        2.3753  -23.1388  -48.1085 H         1 UNK         0.0800 
    142 H142        1.5422  -21.9631  -49.0754 H         1 UNK         0.0800 
    143 H143        0.6035  -23.3139  -46.5141 H         1 UNK         0.0600 
    144 H144        0.1902  -20.7543  -46.6250 H         1 UNK         0.3000 
    145 H145       -1.8527  -19.3762  -46.4042 H         1 UNK         0.0600 
    146 H146       -3.8676  -19.2063  -44.9687 H         1 UNK         0.0600 
    147 H147       -4.1906  -20.2406  -46.3519 H         1 UNK         0.0600 
    148 H148       -3.9131  -20.9583  -44.7723 H         1 UNK         0.0600 
    149 H149       -0.7075  -19.1869  -44.5409 H         1 UNK         0.3000 
    150 H150       -0.6825  -20.7926  -41.3840 H         1 UNK         0.0600 
    151 H151        1.2629  -21.7648  -42.5448 H         1 UNK         0.0600 
    152 H152        1.7573  -20.3215  -41.6718 H         1 UNK         0.0600 
    153 H153        1.5481  -20.2705  -43.4209 H         1 UNK         0.0600 
    154 H154        0.3119  -18.2885  -42.4455 H         1 UNK         0.3000 
    155 H155       -2.6122  -16.3932  -41.7044 H         1 UNK         0.0600 
    156 H156       -1.4337  -16.5051  -39.5019 H         1 UNK         0.0600 
    157 H157       -1.0252  -15.0372  -40.3762 H         1 UNK         0.0600 
    158 H158        0.1205  -16.3750  -40.3163 H         1 UNK         0.0600 
    159 H159       -0.0436  -15.6296  -42.6754 H         1 UNK         0.3000 
    160 H160       -0.6391  -16.3290  -46.1343 H         1 UNK         0.0600 
    161 H161       -0.5097  -13.7046  -44.5622 H         1 UNK         0.0600 
    162 H162       -1.6268  -14.1090  -45.8559 H         1 UNK         0.0600 
    163 H163        0.0806  -13.8939  -46.2102 H         1 UNK         0.0600 
    164 H164        1.6166  -15.2235  -44.8089 H         1 UNK         0.3000 
    165 H165        3.1531  -18.3028  -43.8501 H         1 UNK         0.0600 
    166 H166        3.8683  -18.0919  -46.1836 H         1 UNK         0.0600 
    167 H167        5.0435  -17.3142  -45.1401 H         1 UNK         0.0600 
    168 H168        3.9095  -16.3322  -46.0636 H         1 UNK         0.0600 
    169 H169        3.7090  -15.4236  -43.7468 H         1 UNK         0.3000 
    170 H170        2.6167  -15.0682  -40.3810 H         1 UNK         0.0600 
    171 H171        4.9496  -14.3025  -40.0407 H         1 UNK         0.0600 
    172 H172        4.8984  -16.0556  -40.1335 H         1 UNK         0.0600 
    173 H173        5.4662  -15.1239  -41.5139 H         1 UNK         0.0600 
    174 H174        3.9377  -13.2891  -42.1967 H         1 UNK         0.3000 
    175 H175        1.0156  -12.0817  -43.8367 H         1 UNK         0.0600 
    176 H176        0.9730  -10.9195  -41.6212 H         1 UNK         0.0600 
    177 H177        2.7229  -10.7400  -41.6791 H         1 UNK         0.0600 
    178 H178        1.7069   -9.9236  -42.8676 H         1 UNK         0.0600 
    179 H179        3.4825  -10.9875  -44.1358 H         1 UNK         0.3000 
    180 H180        5.2403  -11.6536  -45.4204 H         1 UNK         0.0600 
    181 H181        5.7929  -14.0878  -45.7229 H         1 UNK         0.0600 
    182 H182        4.8697  -14.1019  -47.2182 H         1 UNK         0.0600 
    183 H183        6.2990  -13.0894  -47.0758 H         1 UNK         0.0600 
    184 H184        3.9742  -12.0057  -48.0122 H         1 UNK         0.3000 
    185 H185        2.0974   -9.1509  -48.0910 H         1 UNK         0.0600 
    186 H186        4.1311   -7.7330  -47.9711 H         1 UNK         0.0600 
    187 H187        5.0076   -8.8560  -49.0037 H         1 UNK         0.0600 
    188 H188        3.6325   -7.9525  -49.6398 H         1 UNK         0.0600 
    189 H189        3.6900  -10.5983  -50.0855 H         1 UNK         0.3000 
    190 H190       -1.0284  -21.9454  -49.3629 H         1 UNK         0.3000 
    191 H191       -1.1176  -24.2659  -50.9577 H         1 UNK         0.0600 
    192 H192       -1.3770  -21.9585  -51.8261 H         1 UNK         0.0600 
    193 H193       -2.9129  -21.7940  -50.9784 H         1 UNK         0.0600 
    194 H194       -2.7448  -22.9512  -52.2938 H         1 UNK         0.0600 
    195 H195       -3.1887  -23.3433  -48.2401 H         1 UNK         0.3000 
    196 H196       -5.4594  -24.9651  -48.9291 H         1 UNK         0.0600 
    197 H197       -6.1264  -24.5838  -46.5968 H         1 UNK         0.0600 
    198 H198       -5.5169  -23.0773  -47.2664 H         1 UNK         0.0600 
    199 H199       -4.5141  -24.0280  -46.1723 H         1 UNK         0.0600 
    200 H200       -2.3117  -25.6987  -47.6029 H         1 UNK         0.3000 
    201 H201       -3.0850  -28.5115  -46.9674 H         1 UNK         0.0600 
    202 H202       -0.8111  -28.6289  -45.9675 H         1 UNK         0.0600 
    203 H203       -0.5084  -26.9502  -46.4002 H         1 UNK         0.0600 
    204 H204       -1.7608  -27.3493  -45.2275 H         1 UNK         0.0600 
    205 H205       -0.7223  -26.5446  -48.8650 H         1 UNK         0.3000 
    206 H206        0.5056  -28.7913  -50.0673 H         1 UNK         0.0600 
    207 H207        1.6494  -26.6321  -49.6768 H         1 UNK         0.0600 
    208 H208        1.7455  -27.0797  -51.3729 H         1 UNK         0.0600 
    209 H209        0.6136  -25.8368  -50.8588 H         1 UNK         0.0600 
    210 H210       -2.1062  -26.6747  -51.3042 H         1 UNK         0.3000 
    211 H211       -2.2049  -28.2386  -53.8581 H         1 UNK         0.0600 
    212 H212       -3.1609  -26.1878  -54.8323 H         1 UNK         0.0600 
    213 H213       -1.6112  -25.8058  -54.1000 H         1 UNK         0.0600 
    214 H214       -3.1089  -25.3649  -53.2811 H         1 UNK         0.0600 
    215 H215       -3.6944  -27.8802  -50.8992 H         1 UNK         0.3000 
    216 H216       -5.5889  -28.4597  -49.9438 H         1 UNK         0.0600 
    217 H217       -7.0646  -30.1470  -50.9156 H         1 UNK         0.0600 
    218 H218       -5.4016  -30.5713  -51.2814 H         1 UNK         0.0600 
    219 H219       -6.4286  -29.8623  -52.5278 H         1 UNK         0.0600 
    220 H220       -5.3774  -25.9096  -51.5656 H         1 UNK         0.3000 
    221 H221       -8.0633  -24.9589  -51.0942 H         1 UNK         0.0600 
    222 H222       -6.9617  -24.9892  -53.9679 H         1 UNK         0.0600 
    223 H223       -8.3989  -25.8415  -53.4081 H         1 UNK         0.0600 
    224 H224       -8.3773  -24.0854  -53.4391 H         1 UNK         0.0600 
    225 H225       -7.8127  -22.9277  -50.3238 H         1 UNK         0.3000 
    226 H226       -5.2648  -22.0088  -49.6792 H         1 UNK         0.0600 
    227 H227       -6.4743  -20.1371  -48.6100 H         1 UNK         0.0600 
    228 H228       -7.9251  -20.5022  -49.5357 H         1 UNK         0.0600 
    229 H229       -7.3274  -21.6412  -48.3284 H         1 UNK         0.0600 
    230 H230       -7.0830  -21.2014  -52.5221 H         1 UNK         0.3000 
    231 H231       -6.7491  -19.8988  -54.3005 H         1 UNK         0.0600 
    232 H232       -4.7532  -21.3403  -54.4963 H         1 UNK         0.0600 
    233 H233       -3.7953  -20.2398  -53.5202 H         1 UNK         0.0600 
    234 H234       -4.3843  -19.7376  -55.1060 H         1 UNK         0.0600 
    235 H235       -3.9120  -18.2015  -53.4631 H         1 UNK         0.3000 
    236 H236       -5.0856  -15.6203  -53.4956 H         1 UNK         0.0600 
    237 H237       -2.7317  -16.0674  -54.1451 H         1 UNK         0.0600 
    238 H238       -2.7803  -14.8874  -52.8456 H         1 UNK         0.0600 
    239 H239       -2.3391  -16.5538  -52.4952 H         1 UNK         0.0600 
    240 H240       -4.6234  -17.8779  -50.8532 H         1 UNK         0.3000 
    241 H241       -5.2194  -15.8506  -48.7791 H         1 UNK         0.0600 
    242 H242       -8.5848  -17.6218  -49.9223 H         1 UNK         0.3800 
    243 H243       -7.2155  -17.4532  -50.9887 H         1 UNK         0.3800 
    244 H244       -4.4121  -18.7954  -48.5768 H         1 UNK         0.0800 
    245 H245       -4.9256  -17.8461  -47.2114 H         1 UNK         0.0800 
    246 H246       -2.0720  -17.7098  -50.1668 H         1 UNK         0.0800 
    247 H247       -2.0241  -19.0817  -49.0808 H         1 UNK         0.0800 
@<TRIPOS>BOND
     1    1    2 1    
     2    1  127 1    
     3    1  128 1    
     4    1  129 1    
     5    2    3 2    
     6    2    4 am   BACKBONE|DICT|INTERRES
     7    4    5 1    
     8    4  130 1    
     9    5    6 1    
    10    5   65 1    
    11    5  131 1    
    12    6    7 1    
    13    6  132 1    
    14    6  133 1    
    15    7    8 1    
    16    8    9 1    
    17    8  134 1    
    18    8  135 1    
    19    9   10 ar   
    20    9   14 ar   
    21   10   11 ar   
    22   10  136 1    
    23   11   12 ar   
    24   11  126 1    
    25   12   13 ar   
    26   12  137 1    
    27   13   14 ar   
    28   13   15 1    
    29   14  138 1    
    30   15   16 1    
    31   15  139 1    
    32   15  140 1    
    33   16   17 1    
    34   17   18 1    
    35   17  141 1    
    36   17  142 1    
    37   18   19 1    
    38   18   67 1    
    39   18  143 1    
    40   19   20 am   BACKBONE|DICT|INTERRES
    41   19  144 1    
    42   20   21 2    
    43   20   22 1    
    44   22   23 1    
    45   22   24 1    
    46   22  145 1    
    47   23  146 1    
    48   23  147 1    
    49   23  148 1    
    50   24   25 am   BACKBONE|DICT|INTERRES
    51   24  149 1    
    52   25   26 2    
    53   25   27 1    
    54   27   28 1    
    55   27   29 1    
    56   27  150 1    
    57   28  151 1    
    58   28  152 1    
    59   28  153 1    
    60   29   30 am   BACKBONE|DICT|INTERRES
    61   29  154 1    
    62   30   31 2    
    63   30   32 1    
    64   32   33 1    
    65   32   34 1    
    66   32  155 1    
    67   33  156 1    
    68   33  157 1    
    69   33  158 1    
    70   34   35 am   BACKBONE|DICT|INTERRES
    71   34  159 1    
    72   35   36 2    
    73   35   37 1    
    74   37   38 1    
    75   37   39 1    
    76   37  160 1    
    77   38  161 1    
    78   38  162 1    
    79   38  163 1    
    80   39   40 am   BACKBONE|DICT|INTERRES
    81   39  164 1    
    82   40   41 2    
    83   40   42 1    
    84   42   43 1    
    85   42   44 1    
    86   42  165 1    
    87   43  166 1    
    88   43  167 1    
    89   43  168 1    
    90   44   45 am   BACKBONE|DICT|INTERRES
    91   44  169 1    
    92   45   46 2    
    93   45   47 1    
    94   47   48 1    
    95   47   49 1    
    96   47  170 1    
    97   48  171 1    
    98   48  172 1    
    99   48  173 1    
   100   49   50 am   BACKBONE|DICT|INTERRES
   101   49  174 1    
   102   50   51 2    
   103   50   52 1    
   104   52   53 1    
   105   52   54 1    
   106   52  175 1    
   107   53  176 1    
   108   53  177 1    
   109   53  178 1    
   110   54   55 am   BACKBONE|DICT|INTERRES
   111   54  179 1    
   112   55   56 2    
   113   55   57 1    
   114   57   58 1    
   115   57   59 1    
   116   57  180 1    
   117   58  181 1    
   118   58  182 1    
   119   58  183 1    
   120   59   60 am   BACKBONE|DICT|INTERRES
   121   59  184 1    
   122   60   61 2    
   123   60   62 1    
   124   62   63 1    
   125   62   64 1    
   126   62  185 1    
   127   63  186 1    
   128   63  187 1    
   129   63  188 1    
   130   64   65 am   BACKBONE|DICT|INTERRES
   131   64  189 1    
   132   65   66 2    
   133   67   68 2    
   134   67   69 am   BACKBONE|DICT|INTERRES
   135   69   70 1    
   136   69  190 1    
   137   70   71 1    
   138   70   72 1    
   139   70  191 1    
   140   71  192 1    
   141   71  193 1    
   142   71  194 1    
   143   72   73 2    
   144   72   74 am   BACKBONE|DICT|INTERRES
   145   74   75 1    
   146   74  195 1    
   147   75   76 1    
   148   75   77 1    
   149   75  196 1    
   150   76  197 1    
   151   76  198 1    
   152   76  199 1    
   153   77   78 2    
   154   77   79 am   BACKBONE|DICT|INTERRES
   155   79   80 1    
   156   79  200 1    
   157   80   81 1    
   158   80   82 1    
   159   80  201 1    
   160   81  202 1    
   161   81  203 1    
   162   81  204 1    
   163   82   83 2    
   164   82   84 am   BACKBONE|DICT|INTERRES
   165   84   85 1    
   166   84  205 1    
   167   85   86 1    
   168   85   87 1    
   169   85  206 1    
   170   86  207 1    
   171   86  208 1    
   172   86  209 1    
   173   87   88 2    
   174   87   89 am   BACKBONE|DICT|INTERRES
   175   89   90 1    
   176   89  210 1    
   177   90   91 1    
   178   90   92 1    
   179   90  211 1    
   180   91  212 1    
   181   91  213 1    
   182   91  214 1    
   183   92   93 2    
   184   92   94 am   BACKBONE|DICT|INTERRES
   185   94   95 1    
   186   94  215 1    
   187   95   96 1    
   188   95   97 1    
   189   95  216 1    
   190   96  217 1    
   191   96  218 1    
   192   96  219 1    
   193   97   98 2    
   194   97   99 am   BACKBONE|DICT|INTERRES
   195   99  100 1    
   196   99  220 1    
   197  100  101 1    
   198  100  102 1    
   199  100  221 1    
   200  101  222 1    
   201  101  223 1    
   202  101  224 1    
   203  102  103 2    
   204  102  104 am   BACKBONE|DICT|INTERRES
   205  104  105 1    
   206  104  225 1    
   207  105  106 1    
   208  105  107 1    
   209  105  226 1    
   210  106  227 1    
   211  106  228 1    
   212  106  229 1    
   213  107  108 2    
   214  107  109 am   BACKBONE|DICT|INTERRES
   215  109  110 1    
   216  109  230 1    
   217  110  111 1    
   218  110  112 1    
   219  110  231 1    
   220  111  232 1    
   221  111  233 1    
   222  111  234 1    
   223  112  113 2    
   224  112  114 am   BACKBONE|DICT|INTERRES
   225  114  115 1    
   226  114  235 1    
   227  115  116 1    
   228  115  117 1    
   229  115  236 1    
   230  116  237 1    
   231  116  238 1    
   232  116  239 1    
   233  117  118 2    
   234  117  119 am   BACKBONE|DICT|INTERRES
   235  119  120 1    
   236  119  240 1    
   237  120  121 1    
   238  120  124 1    
   239  120  241 1    
   240  121  122 am   BACKBONE|DICT|INTERRES
   241  121  123 2    
   242  122  242 1    
   243  122  243 1    
   244  124  125 1    
   245  124  244 1    
   246  124  245 1    
   247  125  126 1    
   248  126  246 1    
   249  126  247 1    
@<TRIPOS>SUBSTRUCTURE
     1 UNK         1 GROUP             0       ****    0 ROOT    
