@<TRIPOS>MOLECULE
3R540
247   249    1
SMALL
USER_CHARGES


@<TRIPOS>ATOM
      1 CA         -1.3304  -14.9975  -46.7320 C.3       0 UNK        -0.1800 
      2 C          -2.5438  -14.3348  -46.1088 C.2       0 UNK         0.5000 
      3 O          -2.9650  -14.7138  -45.0168 O.2       0 UNK        -0.5000 
      4 N          -3.0819  -13.3215  -46.7948 N.am      1 UNK        -0.5000 
      5 CA         -4.2182  -12.5052  -46.3563 C.3       1 UNK         0.1400 
      6 C6         -4.8199  -11.7149  -47.5445 C.3       23 UNK        -0.0398 
      7 S7         -5.8247  -12.7588  -48.6558 S.3       23 UNK        -0.2404 
      8 C8         -4.6234  -13.3710  -49.8933 C.3       23 UNK        -0.0205 
      9 C9         -4.0978  -14.7837  -49.6295 C.ar      23 UNK        -0.0193 
     10 C10        -2.8036  -15.1260  -50.0401 C.ar      23 UNK        -0.1150 
     11 C11        -2.3206  -16.4281  -49.8698 C.ar      23 UNK        -0.0193 
     12 C12        -3.1361  -17.3915  -49.2745 C.ar      23 UNK        -0.1150 
     13 C13        -4.4279  -17.0680  -48.8578 C.ar      23 UNK        -0.0193 
     14 C14        -4.9045  -15.7681  -49.0434 C.ar      23 UNK        -0.1150 
     15 C15        -5.3203  -18.1315  -48.2388 C.3       23 UNK        -0.0205 
     16 S16        -5.2490  -18.1324  -46.4170 S.3       23 UNK        -0.2404 
     17 C17        -3.5453  -18.6947  -46.0729 C.3       23 UNK        -0.0398 
     18 CA         -3.3178  -20.2028  -46.3436 C.3       11 UNK         0.1400 
     19 N          -1.8965  -20.5111  -46.5163 N.am      11 UNK        -0.5000 
     20 C          -1.4098  -21.6748  -46.9661 C.2       10 UNK         0.5000 
     21 O          -2.1211  -22.6013  -47.3549 O.2       10 UNK        -0.5000 
     22 CA          0.1207  -21.8540  -46.9120 C.3       10 UNK         0.1400 
     23 CB          0.8044  -21.2276  -48.1356 C.3       10 UNK        -0.1800 
     24 N           0.7045  -21.3038  -45.6873 N.am      10 UNK        -0.5000 
     25 C           0.4628  -21.7806  -44.4580 C.2       9 UNK         0.5000 
     26 O          -0.2197  -22.7817  -44.2423 O.2       9 UNK        -0.5000 
     27 CA          1.0266  -20.9779  -43.2696 C.3       9 UNK         0.1400 
     28 CB          2.4885  -21.3577  -42.9932 C.3       9 UNK        -0.1800 
     29 N           0.9183  -19.5310  -43.4660 N.am      9 UNK        -0.5000 
     30 C          -0.2408  -18.8641  -43.5659 C.2       8 UNK         0.5000 
     31 O          -1.3424  -19.3918  -43.4229 O.2       8 UNK        -0.5000 
     32 CA         -0.1634  -17.3778  -43.9597 C.3       8 UNK         0.1400 
     33 CB          0.0940  -16.4882  -42.7357 C.3       8 UNK        -0.1800 
     34 N           0.8571  -17.1282  -44.9773 N.am      8 UNK        -0.5000 
     35 C           0.8177  -17.6178  -46.2240 C.2       7 UNK         0.5000 
     36 O          -0.1163  -18.2892  -46.6578 O.2       7 UNK        -0.5000 
     37 CA          2.0378  -17.3461  -47.1199 C.3       7 UNK         0.1400 
     38 CB          1.9538  -15.9594  -47.7751 C.3       7 UNK        -0.1800 
     39 N           3.2879  -17.4597  -46.3712 N.am      7 UNK        -0.5000 
     40 C           3.7877  -18.6149  -45.9115 C.2       6 UNK         0.5000 
     41 O           3.2733  -19.7129  -46.1230 O.2       6 UNK        -0.5000 
     42 CA          5.0484  -18.5167  -45.0322 C.3       6 UNK         0.1400 
     43 CB          6.3130  -18.4661  -45.9023 C.3       6 UNK        -0.1800 
     44 N           5.0226  -17.3511  -44.1450 N.am      6 UNK        -0.5000 
     45 C           4.1726  -17.2029  -43.1186 C.2       5 UNK         0.5000 
     46 O           3.3512  -18.0567  -42.7869 O.2       5 UNK        -0.5000 
     47 CA          4.2116  -15.8542  -42.3724 C.3       5 UNK         0.1400 
     48 CB          5.2706  -15.8835  -41.2606 C.3       5 UNK        -0.1800 
     49 N           4.4603  -14.7067  -43.2526 N.am      5 UNK        -0.5000 
     50 C           3.6618  -14.3379  -44.2630 C.2       4 UNK         0.5000 
     51 O           2.6182  -14.9270  -44.5468 O.2       4 UNK        -0.5000 
     52 CA          4.1283  -13.1388  -45.1112 C.3       4 UNK         0.1400 
     53 CB          5.4531  -13.4674  -45.8211 C.3       4 UNK        -0.1800 
     54 N           3.1485  -12.7774  -46.1417 N.am      4 UNK        -0.5000 
     55 C           2.0088  -12.0837  -46.0118 C.2       3 UNK         0.5000 
     56 O           1.2324  -11.9550  -46.9616 O.2       3 UNK        -0.5000 
     57 CA          1.6605  -11.3946  -44.6776 C.3       3 UNK         0.1400 
     58 CB          2.4402  -10.0741  -44.5100 C.3       3 UNK        -0.1800 
     59 N           0.2312  -11.0964  -44.6837 N.am      3 UNK        -0.5000 
     60 C          -0.5334  -10.8788  -43.6075 C.2       2 UNK         0.5000 
     61 O          -0.1195  -10.9473  -42.4499 O.2       2 UNK        -0.5000 
     62 CA         -2.0071  -10.5291  -43.8661 C.3       2 UNK         0.1400 
     63 CB         -2.1701   -9.0227  -44.1425 C.3       2 UNK        -0.1800 
     64 N          -2.5494  -11.3190  -44.9718 N.am      2 UNK        -0.5000 
     65 C          -3.8499  -11.5575  -45.1890 C.2       1 UNK         0.5000 
     66 O          -4.7517  -11.0717  -44.5046 O.2       1 UNK        -0.5000 
     67 C          -3.9845  -21.0980  -45.2747 C.2       11 UNK         0.5000 
     68 O          -5.1097  -21.5491  -45.4849 O.2       11 UNK        -0.5000 
     69 N          -3.2703  -21.3778  -44.1745 N.am      12 UNK        -0.5000 
     70 CA         -3.6999  -22.2908  -43.1130 C.3       12 UNK         0.1400 
     71 CB         -2.7874  -22.1292  -41.8880 C.3       12 UNK        -0.1800 
     72 C          -3.7555  -23.7615  -43.5712 C.2       12 UNK         0.5000 
     73 O          -4.6744  -24.4796  -43.1751 O.2       12 UNK        -0.5000 
     74 N          -2.7988  -24.1769  -44.4165 N.am      13 UNK        -0.5000 
     75 CA         -2.7924  -25.4797  -45.0930 C.3       13 UNK         0.1400 
     76 CB         -1.4342  -25.6995  -45.7735 C.3       13 UNK        -0.1800 
     77 C          -3.9457  -25.6215  -46.1076 C.2       13 UNK         0.5000 
     78 O          -4.4790  -26.7180  -46.2782 O.2       13 UNK        -0.5000 
     79 N          -4.3267  -24.4956  -46.7255 N.am      14 UNK        -0.5000 
     80 CA         -5.5510  -24.2108  -47.4807 C.3       14 UNK         0.1400 
     81 CB         -6.8013  -24.4472  -46.6129 C.3       14 UNK        -0.1800 
     82 C          -5.6959  -24.9085  -48.8430 C.2       14 UNK         0.5000 
     83 O          -6.2622  -24.2947  -49.7471 O.2       14 UNK        -0.5000 
     84 N          -5.1928  -26.1425  -48.9817 N.am      15 UNK        -0.5000 
     85 CA         -5.2635  -27.0047  -50.1681 C.3       15 UNK         0.1400 
     86 CB         -4.6039  -28.3523  -49.8300 C.3       15 UNK        -0.1800 
     87 C          -4.6240  -26.3554  -51.4120 C.2       15 UNK         0.5000 
     88 O          -3.4167  -26.4874  -51.6221 O.2       15 UNK        -0.5000 
     89 N          -5.4340  -25.5867  -52.1564 N.am      16 UNK        -0.5000 
     90 CA         -5.0407  -24.6612  -53.2274 C.3       16 UNK         0.1400 
     91 CB         -4.6035  -25.4422  -54.4833 C.3       16 UNK        -0.1800 
     92 C          -3.9956  -23.6228  -52.7569 C.2       16 UNK         0.5000 
     93 O          -3.0968  -23.2637  -53.5180 O.2       16 UNK        -0.5000 
     94 N          -4.1052  -23.2098  -51.4828 N.am      17 UNK        -0.5000 
     95 CA         -3.1314  -22.4227  -50.7171 C.3       17 UNK         0.1400 
     96 CB         -3.1240  -20.9554  -51.1911 C.3       17 UNK        -0.1800 
     97 C          -1.7306  -23.0728  -50.7372 C.2       17 UNK         0.5000 
     98 O          -0.7655  -22.4451  -51.1681 O.2       17 UNK        -0.5000 
     99 N          -1.6676  -24.3577  -50.3545 N.am      18 UNK        -0.5000 
    100 CA        -0.4958  -25.2443  -50.4250 C.3       18 UNK         0.1400 
    101 CB         0.5650  -24.8359  -49.3845 C.3       18 UNK        -0.1800 
    102 C          0.0813  -25.3581  -51.8541 C.2       18 UNK         0.5000 
    103 O          1.2996  -25.3656  -52.0381 O.2       18 UNK        -0.5000 
    104 N         -0.8264  -25.4078  -52.8382 N.am      19 UNK        -0.5000 
    105 CA        -0.5958  -25.4046  -54.2862 C.3       19 UNK         0.1400 
    106 CB         0.1785  -26.6654  -54.7232 C.3       19 UNK        -0.1800 
    107 C          0.0238  -24.1053  -54.8519 C.2       19 UNK         0.5000 
    108 O          0.4094  -24.0952  -56.0225 O.2       19 UNK        -0.5000 
    109 N          0.0931  -23.0255  -54.0575 N.am      20 UNK        -0.5000 
    110 CA         0.5758  -21.7158  -54.5063 C.3       20 UNK         0.1400 
    111 CB         1.0684  -20.9031  -53.2996 C.3       20 UNK        -0.1800 
    112 C         -0.4928  -20.9241  -55.2843 C.2       20 UNK         0.5000 
    113 O         -0.1324  -20.0395  -56.0614 O.2       20 UNK        -0.5000 
    114 N         -1.7768  -21.2471  -55.0596 N.am      21 UNK        -0.5000 
    115 CA        -2.9738  -20.6715  -55.6857 C.3       21 UNK         0.1400 
    116 CB        -3.0097  -21.0030  -57.1918 C.3       21 UNK        -0.1800 
    117 C         -3.1927  -19.1679  -55.4012 C.2       21 UNK         0.5000 
    118 O         -3.9392  -18.5129  -56.1307 O.2       21 UNK        -0.5000 
    119 N         -2.5575  -18.6461  -54.3444 N.am      22 UNK        -0.5000 
    120 CA        -2.6611  -17.2467  -53.8994 C.3       22 UNK         0.1400 
    121 C         -3.9816  -16.8864  -53.1583 C.2       22 UNK         0.5000 
    122 N         -4.7713  -17.8499  -52.6989 N.am      22 UNK        -0.7600 
    123 O         -4.3119  -15.7104  -53.0352 O.2       22 UNK        -0.5000 
    124 C124       -1.3988  -16.7961  -53.1165 C.3       23 UNK        -0.0398 
    125 S125       -0.9161  -17.9161  -51.7536 S.3       23 UNK        -0.2404 
    126 C126       -0.9158  -16.8055  -50.3112 C.3       23 UNK        -0.0205 
    127 H127       -0.4871  -14.9383  -46.0452 H         1 UNK         0.0600 
    128 H128       -1.0368  -14.5187  -47.6662 H         1 UNK         0.0600 
    129 H129       -1.5501  -16.0429  -46.9405 H         1 UNK         0.0600 
    130 H130       -2.6987  -13.0847  -47.6979 H         1 UNK         0.3000 
    131 H131       -4.9857  -13.1791  -45.9690 H         1 UNK         0.0600 
    132 H132       -5.4926  -10.9345  -47.1832 H         1 UNK         0.0800 
    133 H133       -4.0449  -11.1953  -48.1100 H         1 UNK         0.0800 
    134 H134       -3.7979  -12.6640  -49.9834 H         1 UNK         0.0800 
    135 H135       -5.1172  -13.3834  -50.8658 H         1 UNK         0.0800 
    136 H136       -2.1768  -14.3820  -50.5109 H         1 UNK         0.1150 
    137 H137       -2.7622  -18.3968  -49.1415 H         1 UNK         0.1150 
    138 H138       -5.9136  -15.5323  -48.7383 H         1 UNK         0.1150 
    139 H139       -6.3534  -17.9556  -48.5421 H         1 UNK         0.0800 
    140 H140       -5.0640  -19.1167  -48.6289 H         1 UNK         0.0800 
    141 H141       -3.3065  -18.4476  -45.0375 H         1 UNK         0.0800 
    142 H142       -2.8627  -18.0929  -46.6707 H         1 UNK         0.0800 
    143 H143       -3.7880  -20.4519  -47.2959 H         1 UNK         0.0600 
    144 H144       -1.2369  -19.7714  -46.2891 H         1 UNK         0.3000 
    145 H145        0.3284  -22.9249  -46.9214 H         1 UNK         0.0600 
    146 H146        1.8826  -21.3858  -48.1104 H         1 UNK         0.0600 
    147 H147        0.4340  -21.6713  -49.0565 H         1 UNK         0.0600 
    148 H148        0.6245  -20.1568  -48.2070 H         1 UNK         0.0600 
    149 H149        1.3182  -20.5041  -45.7908 H         1 UNK         0.3000 
    150 H150        0.4393  -21.2373  -42.3866 H         1 UNK         0.0600 
    151 H151        2.5847  -22.4283  -42.8086 H         1 UNK         0.0600 
    152 H152        2.8701  -20.8398  -42.1131 H         1 UNK         0.0600 
    153 H153        3.1371  -21.1102  -43.8332 H         1 UNK         0.0600 
    154 H154        1.7880  -19.0102  -43.5244 H         1 UNK         0.3000 
    155 H155       -1.1297  -17.0954  -44.3828 H         1 UNK         0.0600 
    156 H156        1.0387  -16.7314  -42.2508 H         1 UNK         0.0600 
    157 H157       -0.6963  -16.6105  -41.9943 H         1 UNK         0.0600 
    158 H158        0.1201  -15.4342  -43.0139 H         1 UNK         0.0600 
    159 H159        1.6238  -16.5130  -44.7189 H         1 UNK         0.3000 
    160 H160        2.0444  -18.0952  -47.9145 H         1 UNK         0.0600 
    161 H161        2.8130  -15.7729  -48.4193 H         1 UNK         0.0600 
    162 H162        1.9076  -15.1622  -47.0354 H         1 UNK         0.0600 
    163 H163        1.0616  -15.8711  -48.3925 H         1 UNK         0.0600 
    164 H164        3.7398  -16.5973  -46.1087 H         1 UNK         0.3000 
    165 H165        5.0942  -19.4160  -44.4142 H         1 UNK         0.0600 
    166 H166        7.2140  -18.4716  -45.2886 H         1 UNK         0.0600 
    167 H167        6.3661  -19.3323  -46.5633 H         1 UNK         0.0600 
    168 H168        6.3380  -17.5732  -46.5284 H         1 UNK         0.0600 
    169 H169        5.6723  -16.6058  -44.3465 H         1 UNK         0.3000 
    170 H170        3.2353  -15.7082  -41.9061 H         1 UNK         0.0600 
    171 H171        5.0973  -16.7172  -40.5786 H         1 UNK         0.0600 
    172 H172        6.2776  -15.9938  -41.6647 H         1 UNK         0.0600 
    173 H173        5.2446  -14.9697  -40.6667 H         1 UNK         0.0600 
    174 H174        5.3020  -14.1786  -43.0717 H         1 UNK         0.3000 
    175 H175        4.2986  -12.2984  -44.4393 H         1 UNK         0.0600 
    176 H176        5.3581  -14.3379  -46.4718 H         1 UNK         0.0600 
    177 H177        5.7876  -12.6298  -46.4338 H         1 UNK         0.0600 
    178 H178        6.2512  -13.6757  -45.1077 H         1 UNK         0.0600 
    179 H179        3.3205  -13.1959  -47.0424 H         1 UNK         0.3000 
    180 H180        1.8801  -12.0727  -43.8518 H         1 UNK         0.0600 
    181 H181        2.1706   -9.3539  -45.2835 H         1 UNK         0.0600 
    182 H182        3.5176  -10.2202  -44.5713 H         1 UNK         0.0600 
    183 H183        2.2341   -9.6143  -43.5434 H         1 UNK         0.0600 
    184 H184       -0.1557  -11.0282  -45.6160 H         1 UNK         0.3000 
    185 H185       -2.5597  -10.7792  -42.9577 H         1 UNK         0.0600 
    186 H186       -1.7346   -8.4287  -43.3379 H         1 UNK         0.0600 
    187 H187       -1.6787   -8.7299  -45.0709 H         1 UNK         0.0600 
    188 H188       -3.2206   -8.7420  -44.2172 H         1 UNK         0.0600 
    189 H189       -1.8802  -11.8163  -45.5402 H         1 UNK         0.3000 
    190 H190       -2.3840  -20.9012  -44.0353 H         1 UNK         0.3000 
    191 H191       -4.7102  -22.0005  -42.8168 H         1 UNK         0.0600 
    192 H192       -3.1321  -22.7523  -41.0619 H         1 UNK         0.0600 
    193 H193       -2.7779  -21.0975  -41.5359 H         1 UNK         0.0600 
    194 H194       -1.7599  -22.4175  -42.1069 H         1 UNK         0.0600 
    195 H195       -2.0269  -23.5499  -44.6207 H         1 UNK         0.3000 
    196 H196       -2.9223  -26.2541  -44.3343 H         1 UNK         0.0600 
    197 H197       -1.3926  -26.6747  -46.2602 H         1 UNK         0.0600 
    198 H198       -0.6194  -25.6591  -45.0505 H         1 UNK         0.0600 
    199 H199       -1.2428  -24.9446  -46.5338 H         1 UNK         0.0600 
    200 H200       -3.7260  -23.6896  -46.5902 H         1 UNK         0.3000 
    201 H201       -5.5055  -23.1420  -47.6956 H         1 UNK         0.0600 
    202 H202       -6.7430  -23.8873  -45.6792 H         1 UNK         0.0600 
    203 H203       -6.9318  -25.5008  -46.3643 H         1 UNK         0.0600 
    204 H204       -7.7034  -24.1203  -47.1315 H         1 UNK         0.0600 
    205 H205       -4.7814  -26.5552  -48.1493 H         1 UNK         0.3000 
    206 H206       -6.3168  -27.1921  -50.3856 H         1 UNK         0.0600 
    207 H207       -5.1253  -28.8519  -49.0132 H         1 UNK         0.0600 
    208 H208       -4.6246  -29.0246  -50.6886 H         1 UNK         0.0600 
    209 H209       -3.5614  -28.2284  -49.5337 H         1 UNK         0.0600 
    210 H210       -6.3919  -25.4932  -51.8452 H         1 UNK         0.3000 
    211 H211       -5.9311  -24.0880  -53.4886 H         1 UNK         0.0600 
    212 H212       -3.7501  -26.0884  -54.2826 H         1 UNK         0.0600 
    213 H213       -4.3274  -24.7686  -55.2955 H         1 UNK         0.0600 
    214 H214       -5.4135  -26.0725  -54.8499 H         1 UNK         0.0600 
    215 H215       -4.8959  -23.5631  -50.9517 H         1 UNK         0.3000 
    216 H216       -3.4664  -22.4327  -49.6794 H         1 UNK         0.0600 
    217 H217       -2.4455  -20.3574  -50.5819 H         1 UNK         0.0600 
    218 H218       -4.1142  -20.5087  -51.1066 H         1 UNK         0.0600 
    219 H219       -2.7979  -20.8638  -52.2268 H         1 UNK         0.0600 
    220 H220       -2.5288  -24.8144  -50.0917 H         1 UNK         0.3000 
    221 H221       -0.8517  -26.2410  -50.1602 H         1 UNK         0.0600 
    222 H222        1.0252  -23.8794  -49.6308 H         1 UNK         0.0600 
    223 H223        0.1300  -24.7582  -48.3905 H         1 UNK         0.0600 
    224 H224        1.3636  -25.5764  -49.3303 H         1 UNK         0.0600 
    225 H225       -1.8006  -25.4243  -52.5573 H         1 UNK         0.3000 
    226 H226       -1.5845  -25.4635  -54.7392 H         1 UNK         0.0600 
    227 H227        0.2001  -26.7558  -55.8097 H         1 UNK         0.0600 
    228 H228        1.2126  -26.6469  -54.3787 H         1 UNK         0.0600 
    229 H229       -0.2898  -27.5698  -54.3348 H         1 UNK         0.0600 
    230 H230       -0.2500  -23.0810  -53.1043 H         1 UNK         0.3000 
    231 H231        1.4279  -21.8664  -55.1724 H         1 UNK         0.0600 
    232 H232        1.7877  -21.4671  -52.7057 H         1 UNK         0.0600 
    233 H233        0.2461  -20.6132  -52.6460 H         1 UNK         0.0600 
    234 H234        1.5593  -19.9850  -53.6243 H         1 UNK         0.0600 
    235 H235       -1.9724  -22.0013  -54.4050 H         1 UNK         0.3000 
    236 H236       -3.8201  -21.1808  -55.2233 H         1 UNK         0.0600 
    237 H237       -2.8754  -22.0713  -57.3623 H         1 UNK         0.0600 
    238 H238       -3.9671  -20.7243  -57.6334 H         1 UNK         0.0600 
    239 H239       -2.2304  -20.4744  -57.7414 H         1 UNK         0.0600 
    240 H240       -1.9594  -19.2412  -53.7907 H         1 UNK         0.3000 
    241 H241       -2.6822  -16.6351  -54.8037 H         1 UNK         0.0600 
    242 H242       -5.6252  -17.6006  -52.2273 H         1 UNK         0.3800 
    243 H243       -4.5147  -18.8161  -52.8062 H         1 UNK         0.3800 
    244 H244       -0.5542  -16.7532  -53.8053 H         1 UNK         0.0800 
    245 H245       -1.5168  -15.7774  -52.7438 H         1 UNK         0.0800 
    246 H246       -0.3179  -15.9192  -50.5281 H         1 UNK         0.0800 
    247 H247       -0.4204  -17.3208  -49.4873 H         1 UNK         0.0800 
@<TRIPOS>BOND
     1    1    2 1    
     2    1  127 1    
     3    1  128 1    
     4    1  129 1    
     5    2    3 2    
     6    2    4 am   BACKBONE|DICT|INTERRES
     7    4    5 1    
     8    4  130 1    
     9    5    6 1    
    10    5   65 1    
    11    5  131 1    
    12    6    7 1    
    13    6  132 1    
    14    6  133 1    
    15    7    8 1    
    16    8    9 1    
    17    8  134 1    
    18    8  135 1    
    19    9   10 ar   
    20    9   14 ar   
    21   10   11 ar   
    22   10  136 1    
    23   11   12 ar   
    24   11  126 1    
    25   12   13 ar   
    26   12  137 1    
    27   13   14 ar   
    28   13   15 1    
    29   14  138 1    
    30   15   16 1    
    31   15  139 1    
    32   15  140 1    
    33   16   17 1    
    34   17   18 1    
    35   17  141 1    
    36   17  142 1    
    37   18   19 1    
    38   18   67 1    
    39   18  143 1    
    40   19   20 am   BACKBONE|DICT|INTERRES
    41   19  144 1    
    42   20   21 2    
    43   20   22 1    
    44   22   23 1    
    45   22   24 1    
    46   22  145 1    
    47   23  146 1    
    48   23  147 1    
    49   23  148 1    
    50   24   25 am   BACKBONE|DICT|INTERRES
    51   24  149 1    
    52   25   26 2    
    53   25   27 1    
    54   27   28 1    
    55   27   29 1    
    56   27  150 1    
    57   28  151 1    
    58   28  152 1    
    59   28  153 1    
    60   29   30 am   BACKBONE|DICT|INTERRES
    61   29  154 1    
    62   30   31 2    
    63   30   32 1    
    64   32   33 1    
    65   32   34 1    
    66   32  155 1    
    67   33  156 1    
    68   33  157 1    
    69   33  158 1    
    70   34   35 am   BACKBONE|DICT|INTERRES
    71   34  159 1    
    72   35   36 2    
    73   35   37 1    
    74   37   38 1    
    75   37   39 1    
    76   37  160 1    
    77   38  161 1    
    78   38  162 1    
    79   38  163 1    
    80   39   40 am   BACKBONE|DICT|INTERRES
    81   39  164 1    
    82   40   41 2    
    83   40   42 1    
    84   42   43 1    
    85   42   44 1    
    86   42  165 1    
    87   43  166 1    
    88   43  167 1    
    89   43  168 1    
    90   44   45 am   BACKBONE|DICT|INTERRES
    91   44  169 1    
    92   45   46 2    
    93   45   47 1    
    94   47   48 1    
    95   47   49 1    
    96   47  170 1    
    97   48  171 1    
    98   48  172 1    
    99   48  173 1    
   100   49   50 am   BACKBONE|DICT|INTERRES
   101   49  174 1    
   102   50   51 2    
   103   50   52 1    
   104   52   53 1    
   105   52   54 1    
   106   52  175 1    
   107   53  176 1    
   108   53  177 1    
   109   53  178 1    
   110   54   55 am   BACKBONE|DICT|INTERRES
   111   54  179 1    
   112   55   56 2    
   113   55   57 1    
   114   57   58 1    
   115   57   59 1    
   116   57  180 1    
   117   58  181 1    
   118   58  182 1    
   119   58  183 1    
   120   59   60 am   BACKBONE|DICT|INTERRES
   121   59  184 1    
   122   60   61 2    
   123   60   62 1    
   124   62   63 1    
   125   62   64 1    
   126   62  185 1    
   127   63  186 1    
   128   63  187 1    
   129   63  188 1    
   130   64   65 am   BACKBONE|DICT|INTERRES
   131   64  189 1    
   132   65   66 2    
   133   67   68 2    
   134   67   69 am   BACKBONE|DICT|INTERRES
   135   69   70 1    
   136   69  190 1    
   137   70   71 1    
   138   70   72 1    
   139   70  191 1    
   140   71  192 1    
   141   71  193 1    
   142   71  194 1    
   143   72   73 2    
   144   72   74 am   BACKBONE|DICT|INTERRES
   145   74   75 1    
   146   74  195 1    
   147   75   76 1    
   148   75   77 1    
   149   75  196 1    
   150   76  197 1    
   151   76  198 1    
   152   76  199 1    
   153   77   78 2    
   154   77   79 am   BACKBONE|DICT|INTERRES
   155   79   80 1    
   156   79  200 1    
   157   80   81 1    
   158   80   82 1    
   159   80  201 1    
   160   81  202 1    
   161   81  203 1    
   162   81  204 1    
   163   82   83 2    
   164   82   84 am   BACKBONE|DICT|INTERRES
   165   84   85 1    
   166   84  205 1    
   167   85   86 1    
   168   85   87 1    
   169   85  206 1    
   170   86  207 1    
   171   86  208 1    
   172   86  209 1    
   173   87   88 2    
   174   87   89 am   BACKBONE|DICT|INTERRES
   175   89   90 1    
   176   89  210 1    
   177   90   91 1    
   178   90   92 1    
   179   90  211 1    
   180   91  212 1    
   181   91  213 1    
   182   91  214 1    
   183   92   93 2    
   184   92   94 am   BACKBONE|DICT|INTERRES
   185   94   95 1    
   186   94  215 1    
   187   95   96 1    
   188   95   97 1    
   189   95  216 1    
   190   96  217 1    
   191   96  218 1    
   192   96  219 1    
   193   97   98 2    
   194   97   99 am   BACKBONE|DICT|INTERRES
   195   99  100 1    
   196   99  220 1    
   197  100  101 1    
   198  100  102 1    
   199  100  221 1    
   200  101  222 1    
   201  101  223 1    
   202  101  224 1    
   203  102  103 2    
   204  102  104 am   BACKBONE|DICT|INTERRES
   205  104  105 1    
   206  104  225 1    
   207  105  106 1    
   208  105  107 1    
   209  105  226 1    
   210  106  227 1    
   211  106  228 1    
   212  106  229 1    
   213  107  108 2    
   214  107  109 am   BACKBONE|DICT|INTERRES
   215  109  110 1    
   216  109  230 1    
   217  110  111 1    
   218  110  112 1    
   219  110  231 1    
   220  111  232 1    
   221  111  233 1    
   222  111  234 1    
   223  112  113 2    
   224  112  114 am   BACKBONE|DICT|INTERRES
   225  114  115 1    
   226  114  235 1    
   227  115  116 1    
   228  115  117 1    
   229  115  236 1    
   230  116  237 1    
   231  116  238 1    
   232  116  239 1    
   233  117  118 2    
   234  117  119 am   BACKBONE|DICT|INTERRES
   235  119  120 1    
   236  119  240 1    
   237  120  121 1    
   238  120  124 1    
   239  120  241 1    
   240  121  122 am   BACKBONE|DICT|INTERRES
   241  121  123 2    
   242  122  242 1    
   243  122  243 1    
   244  124  125 1    
   245  124  244 1    
   246  124  245 1    
   247  125  126 1    
   248  126  246 1    
   249  126  247 1    
@<TRIPOS>SUBSTRUCTURE
     1 UNK         1 GROUP             0       ****    0 ROOT    
