@<TRIPOS>MOLECULE
3R540
247   249    1
SMALL
USER_CHARGES


@<TRIPOS>ATOM
      1 CA          0.5116  -12.1203  -45.5844 C.3       0 UNK        -0.1800 
      2 C           1.9885  -12.1838  -45.9350 C.2       0 UNK         0.5000 
      3 O           2.8304  -12.3447  -45.0503 O.2       0 UNK        -0.5000 
      4 N           2.3025  -12.0498  -47.2292 N.am      1 UNK        -0.5000 
      5 CA          3.6280  -12.1662  -47.8569 C.3       1 UNK         0.1400 
      6 C6          4.3439  -13.5245  -47.6077 C.3       23 UNK        -0.0398 
      7 S7          3.2746  -14.9810  -47.8638 S.3       23 UNK        -0.2404 
      8 C8          3.2924  -15.1201  -49.6726 C.3       23 UNK        -0.0205 
      9 C9          2.3728  -16.2375  -50.1323 C.ar      23 UNK        -0.0193 
     10 C10         1.0326  -15.9736  -50.4283 C.ar      23 UNK        -0.1150 
     11 C11         0.1856  -16.9969  -50.8678 C.ar      23 UNK        -0.0193 
     12 C12         0.6927  -18.2927  -51.0043 C.ar      23 UNK        -0.1150 
     13 C13         2.0234  -18.5744  -50.6777 C.ar      23 UNK        -0.0193 
     14 C14         2.8600  -17.5405  -50.2511 C.ar      23 UNK        -0.1150 
     15 C15         2.5622  -19.9938  -50.7695 C.3       23 UNK        -0.0205 
     16 S16         2.2808  -20.9160  -49.2232 S.3       23 UNK        -0.2404 
     17 C17         0.5198  -21.3353  -49.4129 C.3       23 UNK        -0.0398 
     18 CA          0.0220  -22.3581  -48.3698 C.3       11 UNK         0.1400 
     19 N           0.0442  -21.8265  -47.0044 N.am      11 UNK        -0.5000 
     20 C          -0.1491  -22.5656  -45.9031 C.2       10 UNK         0.5000 
     21 O          -0.3332  -23.7824  -45.9202 O.2       10 UNK        -0.5000 
     22 CA         -0.1945  -21.8158  -44.5591 C.3       10 UNK         0.1400 
     23 CB          1.2266  -21.5984  -44.0189 C.3       10 UNK        -0.1800 
     24 N          -0.8990  -20.5332  -44.6315 N.am      10 UNK        -0.5000 
     25 C          -2.1775  -20.3842  -45.0094 C.2       9 UNK         0.5000 
     26 O          -2.9112  -21.3246  -45.3078 O.2       9 UNK        -0.5000 
     27 CA         -2.7314  -18.9524  -45.1089 C.3       9 UNK         0.1400 
     28 CB         -3.4000  -18.5438  -43.7895 C.3       9 UNK        -0.1800 
     29 N          -1.7255  -17.9571  -45.4808 N.am      9 UNK        -0.5000 
     30 C          -1.0727  -17.9302  -46.6528 C.2       8 UNK         0.5000 
     31 O          -1.2383  -18.7624  -47.5463 O.2       8 UNK        -0.5000 
     32 CA         -0.0443  -16.8010  -46.8370 C.3       8 UNK         0.1400 
     33 CB         -0.7302  -15.4799  -47.2173 C.3       8 UNK        -0.1800 
     34 N           0.7437  -16.5961  -45.6245 N.am      8 UNK        -0.5000 
     35 C           1.7467  -17.3930  -45.2349 C.2       7 UNK         0.5000 
     36 O           2.1416  -18.3681  -45.8738 O.2       7 UNK        -0.5000 
     37 CA          2.3909  -17.0608  -43.8777 C.3       7 UNK         0.1400 
     38 CB          3.4465  -15.9548  -44.0338 C.3       7 UNK        -0.1800 
     39 N           1.4024  -16.6610  -42.8730 N.am      7 UNK        -0.5000 
     40 C           0.4885  -17.4915  -42.3471 C.2       6 UNK         0.5000 
     41 O           0.3875  -18.6762  -42.6622 O.2       6 UNK        -0.5000 
     42 CA         -0.4989  -16.9104  -41.3153 C.3       6 UNK         0.1400 
     43 CB          0.0712  -17.0506  -39.8961 C.3       6 UNK        -0.1800 
     44 N          -0.8552  -15.5116  -41.5463 N.am      6 UNK        -0.5000 
     45 C          -1.3972  -15.0121  -42.6653 C.2       5 UNK         0.5000 
     46 O          -1.7022  -15.6919  -43.6459 O.2       5 UNK        -0.5000 
     47 CA         -1.5731  -13.4815  -42.7164 C.3       5 UNK         0.1400 
     48 CB         -2.9631  -13.0917  -42.1924 C.3       5 UNK        -0.1800 
     49 N          -0.5526  -12.7088  -41.9905 N.am      5 UNK        -0.5000 
     50 C           0.7777  -12.8480  -42.0941 C.2       4 UNK         0.5000 
     51 O           1.3288  -13.7266  -42.7613 O.2       4 UNK        -0.5000 
     52 CA          1.6345  -11.8750  -41.2753 C.3       4 UNK         0.1400 
     53 CB          1.6744  -12.3344  -39.8026 C.3       4 UNK        -0.1800 
     54 N           2.9774  -11.8542  -41.8500 N.am      4 UNK        -0.5000 
     55 C           3.9922  -11.0672  -41.4774 C.2       3 UNK         0.5000 
     56 O           3.8943  -10.1683  -40.6406 O.2       3 UNK        -0.5000 
     57 CA          5.3538  -11.3472  -42.1373 C.3       3 UNK         0.1400 
     58 CB          5.7805  -12.8151  -41.9556 C.3       3 UNK        -0.1800 
     59 N           5.3679  -11.0176  -43.5602 N.am      3 UNK        -0.5000 
     60 C           5.4227   -9.7761  -44.0654 C.2       2 UNK         0.5000 
     61 O           5.4215   -8.7537  -43.3795 O.2       2 UNK        -0.5000 
     62 CA          5.5160   -9.6586  -45.5963 C.3       2 UNK         0.1400 
     63 CB          6.9968   -9.7024  -46.0280 C.3       2 UNK        -0.1800 
     64 N           4.7360  -10.7253  -46.2214 N.am      2 UNK        -0.5000 
     65 C           4.5571  -10.9796  -47.5208 C.2       1 UNK         0.5000 
     66 O           5.0614  -10.3232  -48.4326 O.2       1 UNK        -0.5000 
     67 C          -1.3846  -22.8541  -48.7534 C.2       11 UNK         0.5000 
     68 O          -1.5138  -23.9520  -49.2944 O.2       11 UNK        -0.5000 
     69 N          -2.4120  -22.0513  -48.4400 N.am      12 UNK        -0.5000 
     70 CA         -3.8163  -22.3850  -48.6786 C.3       12 UNK         0.1400 
     71 CB         -4.6963  -21.1579  -48.4008 C.3       12 UNK        -0.1800 
     72 C          -4.2765  -23.5988  -47.8529 C.2       12 UNK         0.5000 
     73 O          -4.9711  -24.4618  -48.3871 O.2       12 UNK        -0.5000 
     74 N          -3.8450  -23.6661  -46.5859 N.am      13 UNK        -0.5000 
     75 CA         -4.0840  -24.7845  -45.6753 C.3       13 UNK         0.1400 
     76 CB         -3.6108  -24.4122  -44.2623 C.3       13 UNK        -0.1800 
     77 C          -3.4187  -26.0872  -46.1520 C.2       13 UNK         0.5000 
     78 O          -4.0729  -27.1300  -46.1524 O.2       13 UNK        -0.5000 
     79 N          -2.1554  -26.0026  -46.5961 N.am      14 UNK        -0.5000 
     80 CA         -1.4011  -27.1201  -47.1735 C.3       14 UNK         0.1400 
     81 CB          0.0579  -26.6957  -47.3984 C.3       14 UNK        -0.1800 
     82 C          -2.0202  -27.6516  -48.4807 C.2       14 UNK         0.5000 
     83 O          -2.0182  -28.8613  -48.7100 O.2       14 UNK        -0.5000 
     84 N          -2.5763  -26.7409  -49.2890 N.am      15 UNK        -0.5000 
     85 CA         -3.3244  -27.0383  -50.5101 C.3       15 UNK         0.1400 
     86 CB         -3.2753  -25.8023  -51.4196 C.3       15 UNK        -0.1800 
     87 C          -4.7868  -27.4632  -50.2550 C.2       15 UNK         0.5000 
     88 O          -5.5036  -27.7296  -51.2204 O.2       15 UNK        -0.5000 
     89 N          -5.2257  -27.4812  -48.9857 N.am      16 UNK        -0.5000 
     90 CA         -6.5794  -27.7984  -48.5105 C.3       16 UNK         0.1400 
     91 CB         -6.8720  -29.3010  -48.6993 C.3       16 UNK        -0.1800 
     92 C          -7.6737  -26.8953  -49.1240 C.2       16 UNK         0.5000 
     93 O          -8.8007  -27.3457  -49.3361 O.2       16 UNK        -0.5000 
     94 N          -7.2997  -25.6439  -49.4304 N.am      17 UNK        -0.5000 
     95 CA         -8.0652  -24.6045  -50.1268 C.3       17 UNK         0.1400 
     96 CB         -9.2812  -24.1673  -49.2850 C.3       17 UNK        -0.1800 
     97 C          -8.4539  -24.9507  -51.5838 C.2       17 UNK         0.5000 
     98 O          -9.2436  -24.2190  -52.1830 O.2       17 UNK        -0.5000 
     99 N          -7.8945  -26.0321  -52.1461 N.am      18 UNK        -0.5000 
    100 CA        -8.1567  -26.4880  -53.5137 C.3       18 UNK         0.1400 
    101 CB        -8.0113  -28.0173  -53.5622 C.3       18 UNK        -0.1800 
    102 C         -7.2282  -25.8241  -54.5485 C.2       18 UNK         0.5000 
    103 O         -7.4954  -25.9165  -55.7476 O.2       18 UNK        -0.5000 
    104 N         -6.1594  -25.1745  -54.0770 N.am      19 UNK        -0.5000 
    105 CA        -5.1547  -24.4702  -54.8638 C.3       19 UNK         0.1400 
    106 CB        -4.1650  -25.4808  -55.4824 C.3       19 UNK        -0.1800 
    107 C         -4.4630  -23.4312  -53.9628 C.2       19 UNK         0.5000 
    108 O         -4.9327  -23.1773  -52.8499 O.2       19 UNK        -0.5000 
    109 N         -3.3615  -22.8539  -54.4639 N.am      20 UNK        -0.5000 
    110 CA        -2.5082  -21.8514  -53.8108 C.3       20 UNK         0.1400 
    111 CB        -1.8519  -22.4170  -52.5350 C.3       20 UNK        -0.1800 
    112 C         -3.2059  -20.4945  -53.5768 C.2       20 UNK         0.5000 
    113 O         -2.8412  -19.7611  -52.6565 O.2       20 UNK        -0.5000 
    114 N         -4.1792  -20.1679  -54.4370 N.am      21 UNK        -0.5000 
    115 CA        -4.8585  -18.8767  -54.4862 C.3       21 UNK         0.1400 
    116 CB        -6.2163  -19.0548  -55.1877 C.3       21 UNK        -0.1800 
    117 C         -3.9591  -17.8535  -55.2037 C.2       21 UNK         0.5000 
    118 O         -4.0135  -17.7376  -56.4296 O.2       21 UNK        -0.5000 
    119 N         -3.1069  -17.1748  -54.4285 N.am      22 UNK        -0.5000 
    120 CA        -2.1149  -16.1982  -54.9093 C.3       22 UNK         0.1400 
    121 C         -2.6918  -14.8464  -55.4312 C.2       22 UNK         0.5000 
    122 N         -3.9669  -14.5392  -55.2255 N.am      22 UNK        -0.7600 
    123 O         -1.9693  -14.0679  -56.0479 O.2       22 UNK        -0.5000 
    124 C124       -0.9794  -15.9875  -53.8732 C.3       23 UNK        -0.0398 
    125 S125       -1.5562  -15.3133  -52.2739 S.3       23 UNK        -0.2404 
    126 C126       -1.2872  -16.7226  -51.1501 C.3       23 UNK        -0.0205 
    127 H127        0.3470  -11.4321  -44.7559 H         1 UNK         0.0600 
    128 H128       -0.0945  -11.7900  -46.4281 H         1 UNK         0.0600 
    129 H129        0.1730  -13.1124  -45.2897 H         1 UNK         0.0600 
    130 H130        1.5510  -11.8845  -47.8834 H         1 UNK         0.3000 
    131 H131        3.4341  -12.1009  -48.9285 H         1 UNK         0.0600 
    132 H132        5.2222  -13.6157  -48.2490 H         1 UNK         0.0800 
    133 H133        4.7148  -13.5810  -46.5831 H         1 UNK         0.0800 
    134 H134        2.9787  -14.1758  -50.1192 H         1 UNK         0.0800 
    135 H135        4.3115  -15.3047  -50.0158 H         1 UNK         0.0800 
    136 H136        0.6464  -14.9708  -50.3117 H         1 UNK         0.1150 
    137 H137        0.0427  -19.0890  -51.3389 H         1 UNK         0.1150 
    138 H138        3.8897  -17.7519  -49.9984 H         1 UNK         0.1150 
    139 H139        2.1100  -20.5197  -51.6118 H         1 UNK         0.0800 
    140 H140        3.6342  -19.9697  -50.9709 H         1 UNK         0.0800 
    141 H141        0.3917  -21.7352  -50.4191 H         1 UNK         0.0800 
    142 H142       -0.0714  -20.4204  -49.3590 H         1 UNK         0.0800 
    143 H143        0.6872  -23.2241  -48.3999 H         1 UNK         0.0600 
    144 H144        0.1687  -20.8278  -46.9090 H         1 UNK         0.3000 
    145 H145       -0.7338  -22.4470  -43.8503 H         1 UNK         0.0600 
    146 H146        1.2059  -21.2086  -43.0015 H         1 UNK         0.0600 
    147 H147        1.7842  -22.5355  -43.9927 H         1 UNK         0.0600 
    148 H148        1.7890  -20.8971  -44.6364 H         1 UNK         0.0600 
    149 H149       -0.3815  -19.7154  -44.3299 H         1 UNK         0.3000 
    150 H150       -3.4954  -18.9516  -45.8889 H         1 UNK         0.0600 
    151 H151       -4.2017  -19.2356  -43.5282 H         1 UNK         0.0600 
    152 H152       -3.8385  -17.5481  -43.8579 H         1 UNK         0.0600 
    153 H153       -2.6871  -18.5433  -42.9662 H         1 UNK         0.0600 
    154 H154       -1.5612  -17.2099  -44.8114 H         1 UNK         0.3000 
    155 H155        0.6258  -17.0854  -47.6516 H         1 UNK         0.0600 
    156 H156        0.0069  -14.7089  -47.4429 H         1 UNK         0.0600 
    157 H157       -1.3706  -15.1096  -46.4159 H         1 UNK         0.0600 
    158 H158       -1.3522  -15.6015  -48.1033 H         1 UNK         0.0600 
    159 H159        0.4607  -15.8444  -45.0126 H         1 UNK         0.3000 
    160 H160        2.8935  -17.9607  -43.5168 H         1 UNK         0.0600 
    161 H161        3.0098  -15.0324  -44.4180 H         1 UNK         0.0600 
    162 H162        4.2278  -16.2580  -44.7317 H         1 UNK         0.0600 
    163 H163        3.9267  -15.7279  -43.0821 H         1 UNK         0.0600 
    164 H164        1.3861  -15.6767  -42.6205 H         1 UNK         0.3000 
    165 H165       -1.4176  -17.4954  -41.3686 H         1 UNK         0.0600 
    166 H166        0.9751  -16.4539  -39.7655 H         1 UNK         0.0600 
    167 H167       -0.6531  -16.7332  -39.1457 H         1 UNK         0.0600 
    168 H168        0.3283  -18.0883  -39.6789 H         1 UNK         0.0600 
    169 H169       -0.6232  -14.8629  -40.8093 H         1 UNK         0.3000 
    170 H170       -1.5221  -13.1878  -43.7647 H         1 UNK         0.0600 
    171 H171       -3.7477  -13.6335  -42.7227 H         1 UNK         0.0600 
    172 H172       -3.0699  -13.3156  -41.1302 H         1 UNK         0.0600 
    173 H173       -3.1548  -12.0278  -42.3332 H         1 UNK         0.0600 
    174 H174       -0.9077  -11.9745  -41.3950 H         1 UNK         0.3000 
    175 H175        1.2028  -10.8751  -41.3473 H         1 UNK         0.0600 
    176 H176        2.2205  -11.6320  -39.1737 H         1 UNK         0.0600 
    177 H177        0.6697  -12.4137  -39.3858 H         1 UNK         0.0600 
    178 H178        2.1490  -13.3114  -39.7019 H         1 UNK         0.0600 
    179 H179        3.1052  -12.5268  -42.5994 H         1 UNK         0.3000 
    180 H180        6.0966  -10.7246  -41.6335 H         1 UNK         0.0600 
    181 H181        5.1381  -13.5001  -42.5101 H         1 UNK         0.0600 
    182 H182        5.7429  -13.1061  -40.9050 H         1 UNK         0.0600 
    183 H183        6.8039  -12.9702  -42.2975 H         1 UNK         0.0600 
    184 H184        5.3720  -11.7998  -44.1974 H         1 UNK         0.3000 
    185 H185        5.0831   -8.7004  -45.8894 H         1 UNK         0.0600 
    186 H186        7.1194   -9.4596  -47.0828 H         1 UNK         0.0600 
    187 H187        7.5886   -8.9767  -45.4683 H         1 UNK         0.0600 
    188 H188        7.4359  -10.6857  -45.8560 H         1 UNK         0.0600 
    189 H189        4.1681  -11.2817  -45.5827 H         1 UNK         0.3000 
    190 H190       -2.2227  -21.1755  -47.9721 H         1 UNK         0.3000 
    191 H191       -3.9256  -22.6445  -49.7336 H         1 UNK         0.0600 
    192 H192       -4.4070  -20.3161  -49.0305 H         1 UNK         0.0600 
    193 H193       -5.7441  -21.3763  -48.6108 H         1 UNK         0.0600 
    194 H194       -4.6301  -20.8377  -47.3608 H         1 UNK         0.0600 
    195 H195       -3.3289  -22.8753  -46.2062 H         1 UNK         0.3000 
    196 H196       -5.1618  -24.9562  -45.6377 H         1 UNK         0.0600 
    197 H197       -3.8013  -25.2241  -43.5595 H         1 UNK         0.0600 
    198 H198       -4.1344  -23.5308  -43.8916 H         1 UNK         0.0600 
    199 H199       -2.5419  -24.1997  -44.2380 H         1 UNK         0.0600 
    200 H200       -1.6656  -25.1154  -46.5258 H         1 UNK         0.3000 
    201 H201       -1.4094  -27.9368  -46.4488 H         1 UNK         0.0600 
    202 H202        0.5327  -26.4069  -46.4606 H         1 UNK         0.0600 
    203 H203        0.1301  -25.8507  -48.0837 H         1 UNK         0.0600 
    204 H204        0.6432  -27.5134  -47.8207 H         1 UNK         0.0600 
    205 H205       -2.4740  -25.7587  -49.0543 H         1 UNK         0.3000 
    206 H206       -2.8353  -27.8629  -51.0323 H         1 UNK         0.0600 
    207 H207       -2.2481  -25.5247  -51.6556 H         1 UNK         0.0600 
    208 H208       -3.7849  -25.9921  -52.3632 H         1 UNK         0.0600 
    209 H209       -3.7555  -24.9413  -50.9533 H         1 UNK         0.0600 
    210 H210       -4.5725  -27.2155  -48.2590 H         1 UNK         0.3000 
    211 H211       -6.5826  -27.5912  -47.4397 H         1 UNK         0.0600 
    212 H212       -6.9408  -29.5697  -49.7540 H         1 UNK         0.0600 
    213 H213       -7.8149  -29.5799  -48.2278 H         1 UNK         0.0600 
    214 H214       -6.0916  -29.9133  -48.2472 H         1 UNK         0.0600 
    215 H215       -6.3569  -25.3639  -49.1622 H         1 UNK         0.3000 
    216 H216       -7.3928  -23.7482  -50.1984 H         1 UNK         0.0600 
    217 H217       -8.9833  -23.9050  -48.2698 H         1 UNK         0.0600 
    218 H218      -10.0344  -24.9530  -49.2222 H         1 UNK         0.0600 
    219 H219       -9.7623  -23.2890  -49.7166 H         1 UNK         0.0600 
    220 H220       -7.2349  -26.5848  -51.6091 H         1 UNK         0.3000 
    221 H221       -9.1848  -26.2410  -53.7867 H         1 UNK         0.0600 
    222 H222       -6.9872  -28.3322  -53.3600 H         1 UNK         0.0600 
    223 H223       -8.6612  -28.4996  -52.8316 H         1 UNK         0.0600 
    224 H224       -8.2833  -28.4039  -54.5451 H         1 UNK         0.0600 
    225 H225       -6.0508  -25.0741  -53.0762 H         1 UNK         0.3000 
    226 H226       -5.6559  -23.9216  -55.6637 H         1 UNK         0.0600 
    227 H227       -4.6850  -26.2361  -56.0717 H         1 UNK         0.0600 
    228 H228       -3.4599  -24.9913  -56.1545 H         1 UNK         0.0600 
    229 H229       -3.5863  -25.9996  -54.7182 H         1 UNK         0.0600 
    230 H230       -3.0620  -23.1325  -55.3880 H         1 UNK         0.3000 
    231 H231       -1.7030  -21.6432  -54.5167 H         1 UNK         0.0600 
    232 H232       -1.1120  -21.7198  -52.1442 H         1 UNK         0.0600 
    233 H233       -1.3380  -23.3568  -52.7352 H         1 UNK         0.0600 
    234 H234       -2.5813  -22.5944  -51.7454 H         1 UNK         0.0600 
    235 H235       -4.3954  -20.8162  -55.1792 H         1 UNK         0.3000 
    236 H236       -5.0498  -18.5259  -53.4695 H         1 UNK         0.0600 
    237 H237       -6.7454  -18.1037  -55.2583 H         1 UNK         0.0600 
    238 H238       -6.1047  -19.4451  -56.2002 H         1 UNK         0.0600 
    239 H239       -6.8563  -19.7422  -54.6341 H         1 UNK         0.0600 
    240 H240       -3.0994  -17.3595  -53.4353 H         1 UNK         0.3000 
    241 H241       -1.6446  -16.6506  -55.7846 H         1 UNK         0.0600 
    242 H242       -4.5688  -15.1660  -54.7167 H         1 UNK         0.3800 
    243 H243       -4.3301  -13.6654  -55.5728 H         1 UNK         0.3800 
    244 H244       -0.4648  -16.9340  -53.7028 H         1 UNK         0.0800 
    245 H245       -0.2179  -15.3152  -54.2721 H         1 UNK         0.0800 
    246 H246       -1.7900  -16.5182  -50.2053 H         1 UNK         0.0800 
    247 H247       -1.7741  -17.6057  -51.5641 H         1 UNK         0.0800 
@<TRIPOS>BOND
     1    1    2 1    
     2    1  127 1    
     3    1  128 1    
     4    1  129 1    
     5    2    3 2    
     6    2    4 am   BACKBONE|DICT|INTERRES
     7    4    5 1    
     8    4  130 1    
     9    5    6 1    
    10    5   65 1    
    11    5  131 1    
    12    6    7 1    
    13    6  132 1    
    14    6  133 1    
    15    7    8 1    
    16    8    9 1    
    17    8  134 1    
    18    8  135 1    
    19    9   10 ar   
    20    9   14 ar   
    21   10   11 ar   
    22   10  136 1    
    23   11   12 ar   
    24   11  126 1    
    25   12   13 ar   
    26   12  137 1    
    27   13   14 ar   
    28   13   15 1    
    29   14  138 1    
    30   15   16 1    
    31   15  139 1    
    32   15  140 1    
    33   16   17 1    
    34   17   18 1    
    35   17  141 1    
    36   17  142 1    
    37   18   19 1    
    38   18   67 1    
    39   18  143 1    
    40   19   20 am   BACKBONE|DICT|INTERRES
    41   19  144 1    
    42   20   21 2    
    43   20   22 1    
    44   22   23 1    
    45   22   24 1    
    46   22  145 1    
    47   23  146 1    
    48   23  147 1    
    49   23  148 1    
    50   24   25 am   BACKBONE|DICT|INTERRES
    51   24  149 1    
    52   25   26 2    
    53   25   27 1    
    54   27   28 1    
    55   27   29 1    
    56   27  150 1    
    57   28  151 1    
    58   28  152 1    
    59   28  153 1    
    60   29   30 am   BACKBONE|DICT|INTERRES
    61   29  154 1    
    62   30   31 2    
    63   30   32 1    
    64   32   33 1    
    65   32   34 1    
    66   32  155 1    
    67   33  156 1    
    68   33  157 1    
    69   33  158 1    
    70   34   35 am   BACKBONE|DICT|INTERRES
    71   34  159 1    
    72   35   36 2    
    73   35   37 1    
    74   37   38 1    
    75   37   39 1    
    76   37  160 1    
    77   38  161 1    
    78   38  162 1    
    79   38  163 1    
    80   39   40 am   BACKBONE|DICT|INTERRES
    81   39  164 1    
    82   40   41 2    
    83   40   42 1    
    84   42   43 1    
    85   42   44 1    
    86   42  165 1    
    87   43  166 1    
    88   43  167 1    
    89   43  168 1    
    90   44   45 am   BACKBONE|DICT|INTERRES
    91   44  169 1    
    92   45   46 2    
    93   45   47 1    
    94   47   48 1    
    95   47   49 1    
    96   47  170 1    
    97   48  171 1    
    98   48  172 1    
    99   48  173 1    
   100   49   50 am   BACKBONE|DICT|INTERRES
   101   49  174 1    
   102   50   51 2    
   103   50   52 1    
   104   52   53 1    
   105   52   54 1    
   106   52  175 1    
   107   53  176 1    
   108   53  177 1    
   109   53  178 1    
   110   54   55 am   BACKBONE|DICT|INTERRES
   111   54  179 1    
   112   55   56 2    
   113   55   57 1    
   114   57   58 1    
   115   57   59 1    
   116   57  180 1    
   117   58  181 1    
   118   58  182 1    
   119   58  183 1    
   120   59   60 am   BACKBONE|DICT|INTERRES
   121   59  184 1    
   122   60   61 2    
   123   60   62 1    
   124   62   63 1    
   125   62   64 1    
   126   62  185 1    
   127   63  186 1    
   128   63  187 1    
   129   63  188 1    
   130   64   65 am   BACKBONE|DICT|INTERRES
   131   64  189 1    
   132   65   66 2    
   133   67   68 2    
   134   67   69 am   BACKBONE|DICT|INTERRES
   135   69   70 1    
   136   69  190 1    
   137   70   71 1    
   138   70   72 1    
   139   70  191 1    
   140   71  192 1    
   141   71  193 1    
   142   71  194 1    
   143   72   73 2    
   144   72   74 am   BACKBONE|DICT|INTERRES
   145   74   75 1    
   146   74  195 1    
   147   75   76 1    
   148   75   77 1    
   149   75  196 1    
   150   76  197 1    
   151   76  198 1    
   152   76  199 1    
   153   77   78 2    
   154   77   79 am   BACKBONE|DICT|INTERRES
   155   79   80 1    
   156   79  200 1    
   157   80   81 1    
   158   80   82 1    
   159   80  201 1    
   160   81  202 1    
   161   81  203 1    
   162   81  204 1    
   163   82   83 2    
   164   82   84 am   BACKBONE|DICT|INTERRES
   165   84   85 1    
   166   84  205 1    
   167   85   86 1    
   168   85   87 1    
   169   85  206 1    
   170   86  207 1    
   171   86  208 1    
   172   86  209 1    
   173   87   88 2    
   174   87   89 am   BACKBONE|DICT|INTERRES
   175   89   90 1    
   176   89  210 1    
   177   90   91 1    
   178   90   92 1    
   179   90  211 1    
   180   91  212 1    
   181   91  213 1    
   182   91  214 1    
   183   92   93 2    
   184   92   94 am   BACKBONE|DICT|INTERRES
   185   94   95 1    
   186   94  215 1    
   187   95   96 1    
   188   95   97 1    
   189   95  216 1    
   190   96  217 1    
   191   96  218 1    
   192   96  219 1    
   193   97   98 2    
   194   97   99 am   BACKBONE|DICT|INTERRES
   195   99  100 1    
   196   99  220 1    
   197  100  101 1    
   198  100  102 1    
   199  100  221 1    
   200  101  222 1    
   201  101  223 1    
   202  101  224 1    
   203  102  103 2    
   204  102  104 am   BACKBONE|DICT|INTERRES
   205  104  105 1    
   206  104  225 1    
   207  105  106 1    
   208  105  107 1    
   209  105  226 1    
   210  106  227 1    
   211  106  228 1    
   212  106  229 1    
   213  107  108 2    
   214  107  109 am   BACKBONE|DICT|INTERRES
   215  109  110 1    
   216  109  230 1    
   217  110  111 1    
   218  110  112 1    
   219  110  231 1    
   220  111  232 1    
   221  111  233 1    
   222  111  234 1    
   223  112  113 2    
   224  112  114 am   BACKBONE|DICT|INTERRES
   225  114  115 1    
   226  114  235 1    
   227  115  116 1    
   228  115  117 1    
   229  115  236 1    
   230  116  237 1    
   231  116  238 1    
   232  116  239 1    
   233  117  118 2    
   234  117  119 am   BACKBONE|DICT|INTERRES
   235  119  120 1    
   236  119  240 1    
   237  120  121 1    
   238  120  124 1    
   239  120  241 1    
   240  121  122 am   BACKBONE|DICT|INTERRES
   241  121  123 2    
   242  122  242 1    
   243  122  243 1    
   244  124  125 1    
   245  124  244 1    
   246  124  245 1    
   247  125  126 1    
   248  126  246 1    
   249  126  247 1    
@<TRIPOS>SUBSTRUCTURE
     1 UNK         1 GROUP             0       ****    0 ROOT    
