@<TRIPOS>MOLECULE
3R540
247   249    1
SMALL
USER_CHARGES


@<TRIPOS>ATOM
      1 CA         -3.3023  -14.2846  -46.2846 C.3       0 UNK        -0.1800 
      2 C          -2.2730  -14.0470  -45.1885 C.2       0 UNK         0.5000 
      3 O          -2.4823  -13.1994  -44.3216 O.2       0 UNK        -0.5000 
      4 N          -1.1689  -14.8046  -45.2285 N.am      1 UNK        -0.5000 
      5 CA         -0.0641  -14.8118  -44.2557 C.3       1 UNK         0.1400 
      6 C6         -0.4831  -15.2966  -42.8398 C.3       23 UNK        -0.0398 
      7 S7         -1.1973  -16.9737  -42.8784 S.3       23 UNK        -0.2404 
      8 C8         -2.9383  -16.6457  -42.4853 C.3       23 UNK        -0.0205 
      9 C9         -3.8019  -17.8389  -42.8543 C.ar      23 UNK        -0.0193 
     10 C10        -4.5033  -17.8495  -44.0631 C.ar      23 UNK        -0.1150 
     11 C11        -5.3020  -18.9426  -44.4083 C.ar      23 UNK        -0.0193 
     12 C12        -5.3972  -20.0287  -43.5352 C.ar      23 UNK        -0.1150 
     13 C13        -4.6893  -20.0358  -42.3295 C.ar      23 UNK        -0.0193 
     14 C14        -3.8972  -18.9349  -41.9917 C.ar      23 UNK        -0.1150 
     15 C15        -4.7857  -21.2287  -41.3894 C.3       23 UNK        -0.0205 
     16 S16        -3.3740  -22.3668  -41.5748 S.3       23 UNK        -0.2404 
     17 C17        -3.5842  -22.9520  -43.2923 C.3       23 UNK        -0.0398 
     18 CA         -2.5177  -22.3427  -44.2516 C.3       11 UNK         0.1400 
     19 N          -1.1486  -22.7196  -43.8708 N.am      11 UNK        -0.5000 
     20 C          -0.6413  -23.9577  -43.9020 C.2       10 UNK         0.5000 
     21 O          -1.2299  -24.9095  -44.4198 O.2       10 UNK        -0.5000 
     22 CA          0.7312  -24.1759  -43.2336 C.3       10 UNK         0.1400 
     23 CB          1.3119  -25.5762  -43.5491 C.3       10 UNK        -0.1800 
     24 N           1.6953  -23.1155  -43.5566 N.am      10 UNK        -0.5000 
     25 C           2.8576  -22.9347  -42.9097 C.2       9 UNK         0.5000 
     26 O           3.1771  -23.5605  -41.8978 O.2       9 UNK        -0.5000 
     27 CA          3.8497  -21.9052  -43.4847 C.3       9 UNK         0.1400 
     28 CB          4.6413  -22.4949  -44.6614 C.3       9 UNK        -0.1800 
     29 N           3.2185  -20.6518  -43.8931 N.am      9 UNK        -0.5000 
     30 C           2.8550  -19.6928  -43.0295 C.2       8 UNK         0.5000 
     31 O           3.0078  -19.7804  -41.8104 O.2       8 UNK        -0.5000 
     32 CA          2.2271  -18.4105  -43.6126 C.3       8 UNK         0.1400 
     33 CB          3.2965  -17.3201  -43.7834 C.3       8 UNK        -0.1800 
     34 N           1.5260  -18.5879  -44.8867 N.am      8 UNK        -0.5000 
     35 C           0.4957  -19.4186  -45.0968 C.2       7 UNK         0.5000 
     36 O           0.0535  -20.1769  -44.2353 O.2       7 UNK        -0.5000 
     37 CA         -0.1547  -19.4094  -46.4947 C.3       7 UNK         0.1400 
     38 CB         -1.4995  -18.6688  -46.4328 C.3       7 UNK        -0.1800 
     39 N           0.6500  -18.8195  -47.5679 N.am      7 UNK        -0.5000 
     40 C           1.8594  -19.2274  -47.9825 C.2       6 UNK         0.5000 
     41 O           2.5033  -20.1176  -47.4282 O.2       6 UNK        -0.5000 
     42 CA          2.4587  -18.5063  -49.2067 C.3       6 UNK         0.1400 
     43 CB          2.6310  -19.4713  -50.3873 C.3       6 UNK        -0.1800 
     44 N           1.6326  -17.3698  -49.6299 N.am      6 UNK        -0.5000 
     45 C           1.8724  -16.1028  -49.2731 C.2       5 UNK         0.5000 
     46 O           2.8515  -15.7443  -48.6151 O.2       5 UNK        -0.5000 
     47 CA          0.7943  -15.0724  -49.6492 C.3       5 UNK         0.1400 
     48 CB         -0.0657  -14.7696  -48.4142 C.3       5 UNK        -0.1800 
     49 N           1.3640  -13.8249  -50.1589 N.am      5 UNK        -0.5000 
     50 C           2.0470  -13.7240  -51.3091 C.2       4 UNK         0.5000 
     51 O           2.2476  -14.6805  -52.0597 O.2       4 UNK        -0.5000 
     52 CA          2.5697  -12.3342  -51.7289 C.3       4 UNK         0.1400 
     53 CB          1.8627  -11.8569  -53.0085 C.3       4 UNK        -0.1800 
     54 N           2.4136  -11.2998  -50.7060 N.am      4 UNK        -0.5000 
     55 C           3.2238  -11.1202  -49.6559 C.2       3 UNK         0.5000 
     56 O           4.1936  -11.8392  -49.4108 O.2       3 UNK        -0.5000 
     57 CA          2.9097   -9.9341  -48.7175 C.3       3 UNK         0.1400 
     58 CB          1.8217   -8.9724  -49.2496 C.3       3 UNK        -0.1800 
     59 N           2.5741  -10.3769  -47.3614 N.am      3 UNK        -0.5000 
     60 C           1.5895  -11.2153  -47.0123 C.2       2 UNK         0.5000 
     61 O           0.8185  -11.7525  -47.8132 O.2       2 UNK        -0.5000 
     62 CA          1.4263  -11.4713  -45.5080 C.3       2 UNK         0.1400 
     63 CB          0.6627  -10.3171  -44.8333 C.3       2 UNK        -0.1800 
     64 N           0.7028  -12.7224  -45.3166 N.am      2 UNK        -0.5000 
     65 C           0.7373  -13.4872  -44.2192 C.2       1 UNK         0.5000 
     66 O           1.3918  -13.1937  -43.2172 O.2       1 UNK        -0.5000 
     67 C          -2.7927  -22.6001  -45.7546 C.2       11 UNK         0.5000 
     68 O          -1.8956  -22.4021  -46.5767 O.2       11 UNK        -0.5000 
     69 N          -4.0131  -23.0335  -46.1072 N.am      12 UNK        -0.5000 
     70 CA         -4.4653  -23.2527  -47.4843 C.3       12 UNK         0.1400 
     71 CB         -5.9573  -23.6125  -47.4777 C.3       12 UNK        -0.1800 
     72 C          -3.6572  -24.3096  -48.2642 C.2       12 UNK         0.5000 
     73 O          -3.5836  -24.2244  -49.4915 O.2       12 UNK        -0.5000 
     74 N          -3.0483  -25.2647  -47.5460 N.am      13 UNK        -0.5000 
     75 CA         -2.1483  -26.2729  -48.1040 C.3       13 UNK         0.1400 
     76 CB         -1.8974  -27.3761  -47.0653 C.3       13 UNK        -0.1800 
     77 C          -0.8237  -25.6543  -48.5829 C.2       13 UNK         0.5000 
     78 O          -0.3907  -25.9398  -49.6997 O.2       13 UNK        -0.5000 
     79 N          -0.2354  -24.7725  -47.7604 N.am      14 UNK        -0.5000 
     80 CA          0.9590  -23.9958  -48.1090 C.3       14 UNK         0.1400 
     81 CB          1.5325  -23.3242  -46.8605 C.3       14 UNK        -0.1800 
     82 C           0.6851  -22.9482  -49.1995 C.2       14 UNK         0.5000 
     83 O           1.5627  -22.6774  -50.0176 O.2       14 UNK        -0.5000 
     84 N          -0.5540  -22.4411  -49.2374 N.am      15 UNK        -0.5000 
     85 CA         -1.0930  -21.6026  -50.3066 C.3       15 UNK         0.1400 
     86 CB         -2.3713  -20.9150  -49.8105 C.3       15 UNK        -0.1800 
     87 C          -1.3517  -22.3603  -51.6300 C.2       15 UNK         0.5000 
     88 O          -1.8973  -21.7575  -52.5526 O.2       15 UNK        -0.5000 
     89 N          -0.9787  -23.6469  -51.7144 N.am      16 UNK        -0.5000 
     90 CA         -1.0743  -24.5295  -52.8805 C.3       16 UNK         0.1400 
     91 CB         -0.1874  -24.0164  -54.0350 C.3       16 UNK        -0.1800 
     92 C          -2.5349  -24.7850  -53.2943 C.2       16 UNK         0.5000 
     93 O          -2.8961  -24.5965  -54.4569 O.2       16 UNK        -0.5000 
     94 N          -3.3438  -25.1955  -52.3067 N.am      17 UNK        -0.5000 
     95 CA         -4.7921  -25.4109  -52.3783 C.3       17 UNK         0.1400 
     96 CB         -5.1554  -26.5265  -53.3815 C.3       17 UNK        -0.1800 
     97 C          -5.5445  -24.0879  -52.6190 C.2       17 UNK         0.5000 
     98 O          -6.4301  -24.0175  -53.4730 O.2       17 UNK        -0.5000 
     99 N          -5.1584  -23.0683  -51.8384 N.am      18 UNK        -0.5000 
    100 CA        -5.6932  -21.7044  -51.8283 C.3       18 UNK         0.1400 
    101 CB        -7.1327  -21.6954  -51.2730 C.3       18 UNK        -0.1800 
    102 C         -5.5562  -20.9768  -53.1842 C.2       18 UNK         0.5000 
    103 O         -6.5318  -20.4202  -53.6935 O.2       18 UNK        -0.5000 
    104 N         -4.3419  -21.0030  -53.7453 N.am      19 UNK        -0.5000 
    105 CA        -3.9617  -20.2734  -54.9523 C.3       19 UNK         0.1400 
    106 CB        -3.1866  -21.2147  -55.8882 C.3       19 UNK        -0.1800 
    107 C         -3.1159  -19.0420  -54.5861 C.2       19 UNK         0.5000 
    108 O         -3.4349  -17.9301  -55.0099 O.2       19 UNK        -0.5000 
    109 N         -2.0630  -19.2520  -53.7859 N.am      20 UNK        -0.5000 
    110 CA        -1.1459  -18.2265  -53.2909 C.3       20 UNK         0.1400 
    111 CB         0.2553  -18.8431  -53.1473 C.3       20 UNK        -0.1800 
    112 C         -1.6829  -17.6308  -51.9768 C.2       20 UNK         0.5000 
    113 O         -1.0959  -17.8424  -50.9106 O.2       20 UNK        -0.5000 
    114 N         -2.8065  -16.9138  -52.1145 N.am      21 UNK        -0.5000 
    115 CA        -3.7138  -16.4015  -51.0824 C.3       21 UNK         0.1400 
    116 CB        -2.9740  -15.6588  -49.9527 C.3       21 UNK        -0.1800 
    117 C         -4.6789  -17.4906  -50.5735 C.2       21 UNK         0.5000 
    118 O         -4.7513  -18.5697  -51.1623 O.2       21 UNK        -0.5000 
    119 N         -5.4454  -17.1577  -49.5267 N.am      22 UNK        -0.5000 
    120 CA        -6.5969  -17.9194  -49.0075 C.3       22 UNK         0.1400 
    121 C         -7.8173  -17.9342  -49.9823 C.2       22 UNK         0.5000 
    122 N         -8.8908  -18.6407  -49.6509 N.am      22 UNK        -0.7600 
    123 O         -7.8343  -17.2710  -51.0173 O.2       22 UNK        -0.5000 
    124 C124       -6.2257  -19.3358  -48.4725 C.3       23 UNK        -0.0398 
    125 S125       -4.9942  -19.3004  -47.1314 S.3       23 UNK        -0.2404 
    126 C126       -6.0761  -18.9422  -45.7147 C.3       23 UNK        -0.0205 
    127 H127       -3.0947  -15.1987  -46.8415 H         1 UNK         0.0600 
    128 H128       -3.3060  -13.4488  -46.9843 H         1 UNK         0.0600 
    129 H129       -4.2986  -14.3750  -45.8518 H         1 UNK         0.0600 
    130 H130       -1.0838  -15.4853  -45.9666 H         1 UNK         0.3000 
    131 H131        0.6434  -15.5460  -44.6428 H         1 UNK         0.0600 
    132 H132       -1.1814  -14.5977  -42.3773 H         1 UNK         0.0800 
    133 H133        0.3828  -15.3410  -42.1773 H         1 UNK         0.0800 
    134 H134       -3.2808  -15.7581  -43.0180 H         1 UNK         0.0800 
    135 H135       -3.0356  -16.4251  -41.4214 H         1 UNK         0.0800 
    136 H136       -4.4259  -17.0096  -44.7392 H         1 UNK         0.1150 
    137 H137       -6.0239  -20.8691  -43.7970 H         1 UNK         0.1150 
    138 H138       -3.3461  -18.9348  -41.0616 H         1 UNK         0.1150 
    139 H139       -4.8194  -20.8762  -40.3575 H         1 UNK         0.0800 
    140 H140       -5.7170  -21.7733  -41.5527 H         1 UNK         0.0800 
    141 H141       -4.5986  -22.7124  -43.6061 H         1 UNK         0.0800 
    142 H142       -3.5266  -24.0414  -43.2911 H         1 UNK         0.0800 
    143 H143       -2.5651  -21.2576  -44.1461 H         1 UNK         0.0600 
    144 H144       -0.5785  -21.9481  -43.5406 H         1 UNK         0.3000 
    145 H145        0.5406  -24.1308  -42.1595 H         1 UNK         0.0600 
    146 H146        2.2427  -25.7656  -43.0159 H         1 UNK         0.0600 
    147 H147        0.6182  -26.3623  -43.2485 H         1 UNK         0.0600 
    148 H148        1.5052  -25.7065  -44.6132 H         1 UNK         0.0600 
    149 H149        1.4722  -22.5252  -44.3453 H         1 UNK         0.3000 
    150 H150        4.5732  -21.6816  -42.6972 H         1 UNK         0.0600 
    151 H151        5.1314  -23.4262  -44.3744 H         1 UNK         0.0600 
    152 H152        5.4197  -21.8083  -44.9944 H         1 UNK         0.0600 
    153 H153        4.0021  -22.7118  -45.5144 H         1 UNK         0.0600 
    154 H154        3.0619  -20.5048  -44.8812 H         1 UNK         0.3000 
    155 H155        1.4984  -18.0583  -42.8817 H         1 UNK         0.0600 
    156 H156        3.8289  -17.1443  -42.8476 H         1 UNK         0.0600 
    157 H157        2.8544  -16.3707  -44.0838 H         1 UNK         0.0600 
    158 H158        4.0367  -17.5992  -44.5343 H         1 UNK         0.0600 
    159 H159        1.8461  -18.0281  -45.6620 H         1 UNK         0.3000 
    160 H160       -0.3364  -20.4460  -46.7747 H         1 UNK         0.0600 
    161 H161       -1.3771  -17.6386  -46.0996 H         1 UNK         0.0600 
    162 H162       -2.1791  -19.1566  -45.7324 H         1 UNK         0.0600 
    163 H163       -1.9942  -18.6482  -47.4033 H         1 UNK         0.0600 
    164 H164        0.2049  -18.0878  -48.0998 H         1 UNK         0.3000 
    165 H165        3.4543  -18.1634  -48.9179 H         1 UNK         0.0600 
    166 H166        3.0739  -18.9695  -51.2477 H         1 UNK         0.0600 
    167 H167        3.2864  -20.3017  -50.1214 H         1 UNK         0.0600 
    168 H168        1.6804  -19.8972  -50.6987 H         1 UNK         0.0600 
    169 H169        0.7921  -17.5871  -50.1588 H         1 UNK         0.3000 
    170 H170        0.1554  -15.4882  -50.4301 H         1 UNK         0.0600 
    171 H171       -0.5814  -15.6662  -48.0715 H         1 UNK         0.0600 
    172 H172        0.5485  -14.4127  -47.5882 H         1 UNK         0.0600 
    173 H173       -0.8202  -14.0112  -48.6236 H         1 UNK         0.0600 
    174 H174        1.2620  -13.0055  -49.5720 H         1 UNK         0.3000 
    175 H175        3.6328  -12.4459  -51.9526 H         1 UNK         0.0600 
    176 H176        0.7908  -11.7303  -52.8519 H         1 UNK         0.0600 
    177 H177        2.2676  -10.9047  -53.3517 H         1 UNK         0.0600 
    178 H178        1.9931  -12.5732  -53.8208 H         1 UNK         0.0600 
    179 H179        1.6239  -10.6794  -50.8117 H         1 UNK         0.3000 
    180 H180        3.8360   -9.3635  -48.6358 H         1 UNK         0.0600 
    181 H181        0.8477   -9.4549  -49.3376 H         1 UNK         0.0600 
    182 H182        2.0899   -8.5755  -50.2297 H         1 UNK         0.0600 
    183 H183        1.7027   -8.1176  -48.5837 H         1 UNK         0.0600 
    184 H184        3.1696  -10.0104  -46.6319 H         1 UNK         0.3000 
    185 H185        2.4214  -11.5609  -45.0670 H         1 UNK         0.0600 
    186 H186        0.5735  -10.4747  -43.7584 H         1 UNK         0.0600 
    187 H187        1.1762   -9.3660  -44.9785 H         1 UNK         0.0600 
    188 H188       -0.3442  -10.2136  -45.2399 H         1 UNK         0.0600 
    189 H189        0.1659  -13.0179  -46.1216 H         1 UNK         0.3000 
    190 H190       -4.7039  -23.1909  -45.3897 H         1 UNK         0.3000 
    191 H191       -4.3597  -22.3032  -48.0082 H         1 UNK         0.0600 
    192 H192       -6.3267  -23.7667  -48.4926 H         1 UNK         0.0600 
    193 H193       -6.5530  -22.8134  -47.0357 H         1 UNK         0.0600 
    194 H194       -6.1485  -24.5277  -46.9162 H         1 UNK         0.0600 
    195 H195       -3.1424  -25.2455  -46.5407 H         1 UNK         0.3000 
    196 H196       -2.6384  -26.7268  -48.9682 H         1 UNK         0.0600 
    197 H197       -1.2478  -28.1526  -47.4713 H         1 UNK         0.0600 
    198 H198       -2.8298  -27.8560  -46.7676 H         1 UNK         0.0600 
    199 H199       -1.4193  -26.9866  -46.1660 H         1 UNK         0.0600 
    200 H200       -0.6832  -24.5547  -46.8798 H         1 UNK         0.3000 
    201 H201        1.7120  -24.6846  -48.4978 H         1 UNK         0.0600 
    202 H202        0.8030  -22.6760  -46.3754 H         1 UNK         0.0600 
    203 H203        2.3939  -22.7116  -47.1239 H         1 UNK         0.0600 
    204 H204        1.8752  -24.0681  -46.1453 H         1 UNK         0.0600 
    205 H205       -1.1852  -22.6714  -48.4771 H         1 UNK         0.3000 
    206 H206       -0.3640  -20.8211  -50.5150 H         1 UNK         0.0600 
    207 H207       -2.2374  -20.4766  -48.8228 H         1 UNK         0.0600 
    208 H208       -2.6650  -20.1119  -50.4853 H         1 UNK         0.0600 
    209 H209       -3.2035  -21.6114  -49.7619 H         1 UNK         0.0600 
    210 H210       -0.5799  -24.0770  -50.8899 H         1 UNK         0.3000 
    211 H211       -0.6726  -25.4941  -52.5669 H         1 UNK         0.0600 
    212 H212        0.8424  -23.8761  -53.7065 H         1 UNK         0.0600 
    213 H213       -0.5428  -23.0667  -54.4346 H         1 UNK         0.0600 
    214 H214       -0.1711  -24.7301  -54.8593 H         1 UNK         0.0600 
    215 H215       -2.9576  -25.2357  -51.3713 H         1 UNK         0.3000 
    216 H216       -5.0957  -25.7559  -51.3887 H         1 UNK         0.0600 
    217 H217       -6.2156  -26.7739  -53.3172 H         1 UNK         0.0600 
    218 H218       -4.5964  -27.4391  -53.1757 H         1 UNK         0.0600 
    219 H219       -4.9541  -26.2339  -54.4121 H         1 UNK         0.0600 
    220 H220       -4.4284  -23.2636  -51.1625 H         1 UNK         0.3000 
    221 H221       -5.0711  -21.1488  -51.1295 H         1 UNK         0.0600 
    222 H222       -7.8197  -22.2478  -51.9143 H         1 UNK         0.0600 
    223 H223       -7.1748  -22.1344  -50.2766 H         1 UNK         0.0600 
    224 H224       -7.5115  -20.6767  -51.1947 H         1 UNK         0.0600 
    225 H225       -3.5814  -21.4639  -53.2522 H         1 UNK         0.3000 
    226 H226       -4.8472  -19.9247  -55.4873 H         1 UNK         0.0600 
    227 H227       -2.8776  -20.6966  -56.7968 H         1 UNK         0.0600 
    228 H228       -2.2894  -21.6128  -55.4131 H         1 UNK         0.0600 
    229 H229       -3.8033  -22.0622  -56.1884 H         1 UNK         0.0600 
    230 H230       -1.9192  -20.1903  -53.4184 H         1 UNK         0.3000 
    231 H231       -1.0726  -17.4133  -54.0161 H         1 UNK         0.0600 
    232 H232        0.6480  -19.1486  -54.1171 H         1 UNK         0.0600 
    233 H233        0.2423  -19.7231  -52.5068 H         1 UNK         0.0600 
    234 H234        0.9602  -18.1272  -52.7225 H         1 UNK         0.0600 
    235 H235       -3.1925  -16.8855  -53.0506 H         1 UNK         0.3000 
    236 H236       -4.3386  -15.6682  -51.5941 H         1 UNK         0.0600 
    237 H237       -2.2320  -14.9738  -50.3607 H         1 UNK         0.0600 
    238 H238       -3.6613  -15.0604  -49.3549 H         1 UNK         0.0600 
    239 H239       -2.4738  -16.3532  -49.2780 H         1 UNK         0.0600 
    240 H240       -5.3254  -16.2410  -49.1236 H         1 UNK         0.3000 
    241 H241       -6.9483  -17.3329  -48.1587 H         1 UNK         0.0600 
    242 H242       -8.9514  -19.1594  -48.7897 H         1 UNK         0.3800 
    243 H243       -9.6844  -18.6297  -50.2727 H         1 UNK         0.3800 
    244 H244       -7.1031  -19.8655  -48.1010 H         1 UNK         0.0800 
    245 H245       -5.8287  -19.9571  -49.2727 H         1 UNK         0.0800 
    246 H246       -6.5498  -17.9694  -45.8520 H         1 UNK         0.0800 
    247 H247       -6.8817  -19.6770  -45.6770 H         1 UNK         0.0800 
@<TRIPOS>BOND
     1    1    2 1    
     2    1  127 1    
     3    1  128 1    
     4    1  129 1    
     5    2    3 2    
     6    2    4 am   BACKBONE|DICT|INTERRES
     7    4    5 1    
     8    4  130 1    
     9    5    6 1    
    10    5   65 1    
    11    5  131 1    
    12    6    7 1    
    13    6  132 1    
    14    6  133 1    
    15    7    8 1    
    16    8    9 1    
    17    8  134 1    
    18    8  135 1    
    19    9   10 ar   
    20    9   14 ar   
    21   10   11 ar   
    22   10  136 1    
    23   11   12 ar   
    24   11  126 1    
    25   12   13 ar   
    26   12  137 1    
    27   13   14 ar   
    28   13   15 1    
    29   14  138 1    
    30   15   16 1    
    31   15  139 1    
    32   15  140 1    
    33   16   17 1    
    34   17   18 1    
    35   17  141 1    
    36   17  142 1    
    37   18   19 1    
    38   18   67 1    
    39   18  143 1    
    40   19   20 am   BACKBONE|DICT|INTERRES
    41   19  144 1    
    42   20   21 2    
    43   20   22 1    
    44   22   23 1    
    45   22   24 1    
    46   22  145 1    
    47   23  146 1    
    48   23  147 1    
    49   23  148 1    
    50   24   25 am   BACKBONE|DICT|INTERRES
    51   24  149 1    
    52   25   26 2    
    53   25   27 1    
    54   27   28 1    
    55   27   29 1    
    56   27  150 1    
    57   28  151 1    
    58   28  152 1    
    59   28  153 1    
    60   29   30 am   BACKBONE|DICT|INTERRES
    61   29  154 1    
    62   30   31 2    
    63   30   32 1    
    64   32   33 1    
    65   32   34 1    
    66   32  155 1    
    67   33  156 1    
    68   33  157 1    
    69   33  158 1    
    70   34   35 am   BACKBONE|DICT|INTERRES
    71   34  159 1    
    72   35   36 2    
    73   35   37 1    
    74   37   38 1    
    75   37   39 1    
    76   37  160 1    
    77   38  161 1    
    78   38  162 1    
    79   38  163 1    
    80   39   40 am   BACKBONE|DICT|INTERRES
    81   39  164 1    
    82   40   41 2    
    83   40   42 1    
    84   42   43 1    
    85   42   44 1    
    86   42  165 1    
    87   43  166 1    
    88   43  167 1    
    89   43  168 1    
    90   44   45 am   BACKBONE|DICT|INTERRES
    91   44  169 1    
    92   45   46 2    
    93   45   47 1    
    94   47   48 1    
    95   47   49 1    
    96   47  170 1    
    97   48  171 1    
    98   48  172 1    
    99   48  173 1    
   100   49   50 am   BACKBONE|DICT|INTERRES
   101   49  174 1    
   102   50   51 2    
   103   50   52 1    
   104   52   53 1    
   105   52   54 1    
   106   52  175 1    
   107   53  176 1    
   108   53  177 1    
   109   53  178 1    
   110   54   55 am   BACKBONE|DICT|INTERRES
   111   54  179 1    
   112   55   56 2    
   113   55   57 1    
   114   57   58 1    
   115   57   59 1    
   116   57  180 1    
   117   58  181 1    
   118   58  182 1    
   119   58  183 1    
   120   59   60 am   BACKBONE|DICT|INTERRES
   121   59  184 1    
   122   60   61 2    
   123   60   62 1    
   124   62   63 1    
   125   62   64 1    
   126   62  185 1    
   127   63  186 1    
   128   63  187 1    
   129   63  188 1    
   130   64   65 am   BACKBONE|DICT|INTERRES
   131   64  189 1    
   132   65   66 2    
   133   67   68 2    
   134   67   69 am   BACKBONE|DICT|INTERRES
   135   69   70 1    
   136   69  190 1    
   137   70   71 1    
   138   70   72 1    
   139   70  191 1    
   140   71  192 1    
   141   71  193 1    
   142   71  194 1    
   143   72   73 2    
   144   72   74 am   BACKBONE|DICT|INTERRES
   145   74   75 1    
   146   74  195 1    
   147   75   76 1    
   148   75   77 1    
   149   75  196 1    
   150   76  197 1    
   151   76  198 1    
   152   76  199 1    
   153   77   78 2    
   154   77   79 am   BACKBONE|DICT|INTERRES
   155   79   80 1    
   156   79  200 1    
   157   80   81 1    
   158   80   82 1    
   159   80  201 1    
   160   81  202 1    
   161   81  203 1    
   162   81  204 1    
   163   82   83 2    
   164   82   84 am   BACKBONE|DICT|INTERRES
   165   84   85 1    
   166   84  205 1    
   167   85   86 1    
   168   85   87 1    
   169   85  206 1    
   170   86  207 1    
   171   86  208 1    
   172   86  209 1    
   173   87   88 2    
   174   87   89 am   BACKBONE|DICT|INTERRES
   175   89   90 1    
   176   89  210 1    
   177   90   91 1    
   178   90   92 1    
   179   90  211 1    
   180   91  212 1    
   181   91  213 1    
   182   91  214 1    
   183   92   93 2    
   184   92   94 am   BACKBONE|DICT|INTERRES
   185   94   95 1    
   186   94  215 1    
   187   95   96 1    
   188   95   97 1    
   189   95  216 1    
   190   96  217 1    
   191   96  218 1    
   192   96  219 1    
   193   97   98 2    
   194   97   99 am   BACKBONE|DICT|INTERRES
   195   99  100 1    
   196   99  220 1    
   197  100  101 1    
   198  100  102 1    
   199  100  221 1    
   200  101  222 1    
   201  101  223 1    
   202  101  224 1    
   203  102  103 2    
   204  102  104 am   BACKBONE|DICT|INTERRES
   205  104  105 1    
   206  104  225 1    
   207  105  106 1    
   208  105  107 1    
   209  105  226 1    
   210  106  227 1    
   211  106  228 1    
   212  106  229 1    
   213  107  108 2    
   214  107  109 am   BACKBONE|DICT|INTERRES
   215  109  110 1    
   216  109  230 1    
   217  110  111 1    
   218  110  112 1    
   219  110  231 1    
   220  111  232 1    
   221  111  233 1    
   222  111  234 1    
   223  112  113 2    
   224  112  114 am   BACKBONE|DICT|INTERRES
   225  114  115 1    
   226  114  235 1    
   227  115  116 1    
   228  115  117 1    
   229  115  236 1    
   230  116  237 1    
   231  116  238 1    
   232  116  239 1    
   233  117  118 2    
   234  117  119 am   BACKBONE|DICT|INTERRES
   235  119  120 1    
   236  119  240 1    
   237  120  121 1    
   238  120  124 1    
   239  120  241 1    
   240  121  122 am   BACKBONE|DICT|INTERRES
   241  121  123 2    
   242  122  242 1    
   243  122  243 1    
   244  124  125 1    
   245  124  244 1    
   246  124  245 1    
   247  125  126 1    
   248  126  246 1    
   249  126  247 1    
@<TRIPOS>SUBSTRUCTURE
     1 UNK         1 GROUP             0       ****    0 ROOT    
