@<TRIPOS>MOLECULE
3R540
247   249    1
SMALL
USER_CHARGES


@<TRIPOS>ATOM
      1 CA         -2.7280   -9.6679  -46.9680 C.3       0 UNK        -0.1800 
      2 C          -1.4790  -10.2684  -46.3401 C.2       0 UNK         0.5000 
      3 O          -1.1385   -9.9307  -45.2062 O.2       0 UNK        -0.5000 
      4 N          -0.8035  -11.1750  -47.0601 N.am      1 UNK        -0.5000 
      5 CA          0.4343  -11.8460  -46.6356 C.3       1 UNK         0.1400 
      6 C6          1.1022  -12.6269  -47.7923 C.3       23 UNK        -0.0398 
      7 S7          0.0624  -13.9444  -48.5145 S.3       23 UNK        -0.2404 
      8 C8          1.3103  -14.7814  -49.5441 C.3       23 UNK        -0.0205 
      9 C9          0.7789  -16.0454  -50.2063 C.ar      23 UNK        -0.0193 
     10 C10        -0.3397  -15.9851  -51.0409 C.ar      23 UNK        -0.1150 
     11 C11        -0.7959  -17.1256  -51.7054 C.ar      23 UNK        -0.0193 
     12 C12        -0.1159  -18.3362  -51.5419 C.ar      23 UNK        -0.1150 
     13 C13         1.0063  -18.4128  -50.7095 C.ar      23 UNK        -0.0193 
     14 C14         1.4412  -17.2657  -50.0363 C.ar      23 UNK        -0.1150 
     15 C15         1.7907  -19.7140  -50.5869 C.3       23 UNK        -0.0205 
     16 S16         0.8016  -21.0958  -49.9367 S.3       23 UNK        -0.2404 
     17 C17         0.5482  -20.5954  -48.2056 C.3       23 UNK        -0.0398 
     18 CA         -0.6392  -21.3360  -47.5428 C.3       11 UNK         0.1400 
     19 N          -0.5888  -21.2340  -46.0816 N.am      11 UNK        -0.5000 
     20 C          -1.4143  -21.8636  -45.2332 C.2       10 UNK         0.5000 
     21 O          -2.2868  -22.6540  -45.5868 O.2       10 UNK        -0.5000 
     22 CA         -1.2821  -21.5127  -43.7406 C.3       10 UNK         0.1400 
     23 CB         -0.1369  -22.3013  -43.0887 C.3       10 UNK        -0.1800 
     24 N          -1.0885  -20.0807  -43.5148 N.am      10 UNK        -0.5000 
     25 C          -1.9723  -19.1298  -43.8496 C.2       9 UNK         0.5000 
     26 O          -3.0741  -19.3607  -44.3445 O.2       9 UNK        -0.5000 
     27 CA         -1.5267  -17.6719  -43.6503 C.3       9 UNK         0.1400 
     28 CB         -1.6343  -17.2677  -42.1716 C.3       9 UNK        -0.1800 
     29 N          -0.1685  -17.4358  -44.1447 N.am      9 UNK        -0.5000 
     30 C           0.2037  -17.5821  -45.4260 C.2       8 UNK         0.5000 
     31 O          -0.5746  -17.8658  -46.3361 O.2       8 UNK        -0.5000 
     32 CA          1.7068  -17.4611  -45.7317 C.3       8 UNK         0.1400 
     33 CB          2.1234  -15.9987  -45.9179 C.3       8 UNK        -0.1800 
     34 N           2.5280  -18.0687  -44.6876 N.am      8 UNK        -0.5000 
     35 C           2.6042  -19.3864  -44.4583 C.2       7 UNK         0.5000 
     36 O           2.0332  -20.2333  -45.1444 O.2       7 UNK        -0.5000 
     37 CA          3.4127  -19.8193  -43.2218 C.3       7 UNK         0.1400 
     38 CB          4.9107  -19.8945  -43.5517 C.3       7 UNK        -0.1800 
     39 N           3.2087  -18.9175  -42.0858 N.am      7 UNK        -0.5000 
     40 C           2.0440  -18.7731  -41.4368 C.2       6 UNK         0.5000 
     41 O           1.0408  -19.4379  -41.6896 O.2       6 UNK        -0.5000 
     42 CA          1.9740  -17.6756  -40.3587 C.3       6 UNK         0.1400 
     43 CB          2.3313  -18.2514  -38.9807 C.3       6 UNK        -0.1800 
     44 N           2.8471  -16.5361  -40.6503 N.am      6 UNK        -0.5000 
     45 C           2.6578  -15.6696  -41.6540 C.2       5 UNK         0.5000 
     46 O           1.7105  -15.7258  -42.4409 O.2       5 UNK        -0.5000 
     47 CA          3.7595  -14.6221  -41.8499 C.3       5 UNK         0.1400 
     48 CB          4.7697  -15.0959  -42.9105 C.3       5 UNK        -0.1800 
     49 N           3.1932  -13.3355  -42.2469 N.am      5 UNK        -0.5000 
     50 C           3.7653  -12.1540  -41.9750 C.2       4 UNK         0.5000 
     51 O           4.8183  -12.0377  -41.3458 O.2       4 UNK        -0.5000 
     52 CA          3.0618  -10.8826  -42.4775 C.3       4 UNK         0.1400 
     53 CB          3.5166  -10.5389  -43.9054 C.3       4 UNK        -0.1800 
     54 N           1.6057  -11.0020  -42.4434 N.am      4 UNK        -0.5000 
     55 C           0.8429  -10.6858  -41.3870 C.2       3 UNK         0.5000 
     56 O           1.2985  -10.2800  -40.3170 O.2       3 UNK        -0.5000 
     57 CA         -0.6849  -10.8211  -41.5455 C.3       3 UNK         0.1400 
     58 CB         -1.3245   -9.4433  -41.7764 C.3       3 UNK        -0.1800 
     59 N          -1.0579  -11.7093  -42.6461 N.am      3 UNK        -0.5000 
     60 C          -1.0819  -13.0466  -42.5508 C.2       2 UNK         0.5000 
     61 O          -0.8895  -13.6523  -41.4971 O.2       2 UNK        -0.5000 
     62 CA         -1.3445  -13.8442  -43.8457 C.3       2 UNK         0.1400 
     63 CB         -2.8278  -14.2315  -43.9457 C.3       2 UNK        -0.1800 
     64 N          -0.9642  -13.1359  -45.0677 N.am      2 UNK        -0.5000 
     65 C           0.2721  -12.7155  -45.3684 C.2       1 UNK         0.5000 
     66 O           1.2509  -12.9330  -44.6549 O.2       1 UNK        -0.5000 
     67 C          -1.9993  -20.8664  -48.1037 C.2       11 UNK         0.5000 
     68 O          -2.6464  -21.6117  -48.8422 O.2       11 UNK        -0.5000 
     69 N          -2.4273  -19.6632  -47.6972 N.am      12 UNK        -0.5000 
     70 CA         -3.7027  -19.0630  -48.0855 C.3       12 UNK         0.1400 
     71 CB         -3.7475  -17.6088  -47.5926 C.3       12 UNK        -0.1800 
     72 C          -4.9267  -19.8556  -47.5873 C.2       12 UNK         0.5000 
     73 O          -5.9185  -19.9510  -48.3101 O.2       12 UNK        -0.5000 
     74 N          -4.8338  -20.4213  -46.3755 N.am      13 UNK        -0.5000 
     75 CA         -5.8552  -21.2849  -45.7843 C.3       13 UNK         0.1400 
     76 CB         -5.5712  -21.4702  -44.2859 C.3       13 UNK        -0.1800 
     77 C          -5.9651  -22.6496  -46.4886 C.2       13 UNK         0.5000 
     78 O          -7.0798  -23.1375  -46.6796 O.2       13 UNK        -0.5000 
     79 N          -4.8187  -23.2417  -46.8546 N.am      14 UNK        -0.5000 
     80 CA         -4.7336  -24.5163  -47.5671 C.3       14 UNK         0.1400 
     81 CB         -3.2838  -25.0283  -47.5583 C.3       14 UNK        -0.1800 
     82 C          -5.2737  -24.4170  -49.0029 C.2       14 UNK         0.5000 
     83 O          -6.1402  -25.2105  -49.3744 O.2       14 UNK        -0.5000 
     84 N          -4.7659  -23.4315  -49.7601 N.am      15 UNK        -0.5000 
     85 CA         -5.1118  -23.1248  -51.1515 C.3       15 UNK         0.1400 
     86 CB         -6.5050  -22.4582  -51.2074 C.3       15 UNK        -0.1800 
     87 C          -4.9554  -24.3528  -52.0842 C.2       15 UNK         0.5000 
     88 O          -3.9791  -25.0956  -51.9439 O.2       15 UNK        -0.5000 
     89 N          -5.9172  -24.5517  -52.9988 N.am      16 UNK        -0.5000 
     90 CA         -6.0991  -25.7159  -53.8717 C.3       16 UNK         0.1400 
     91 CB         -6.6678  -26.8892  -53.0418 C.3       16 UNK        -0.1800 
     92 C          -4.8313  -26.0739  -54.6786 C.2       16 UNK         0.5000 
     93 O          -4.2569  -25.1965  -55.3237 O.2       16 UNK        -0.5000 
     94 N          -4.4124  -27.3435  -54.6302 N.am      17 UNK        -0.5000 
     95 CA         -3.1713  -27.8374  -55.2274 C.3       17 UNK         0.1400 
     96 CB         -3.3967  -29.2860  -55.6896 C.3       17 UNK        -0.1800 
     97 C          -1.9770  -27.7621  -54.2539 C.2       17 UNK         0.5000 
     98 O          -0.8453  -27.9961  -54.6785 O.2       17 UNK        -0.5000 
     99 N          -2.2364  -27.4678  -52.9716 N.am      18 UNK        -0.5000 
    100 CA        -1.2253  -27.4073  -51.9169 C.3       18 UNK         0.1400 
    101 CB        -1.9047  -27.5685  -50.5474 C.3       18 UNK        -0.1800 
    102 C         -0.4036  -26.1093  -51.9709 C.2       18 UNK         0.5000 
    103 O          0.8148  -26.1588  -51.7995 O.2       18 UNK        -0.5000 
    104 N         -1.0860  -24.9794  -52.1999 N.am      19 UNK        -0.5000 
    105 CA        -0.4911  -23.6455  -52.2797 C.3       19 UNK         0.1400 
    106 CB        -1.5824  -22.5651  -52.2495 C.3       19 UNK        -0.1800 
    107 C          0.5288  -23.4507  -53.4280 C.2       19 UNK         0.5000 
    108 O          1.6599  -23.0634  -53.1387 O.2       19 UNK        -0.5000 
    109 N          0.2206  -23.7383  -54.7024 N.am      20 UNK        -0.5000 
    110 CA        -1.0894  -23.9870  -55.3057 C.3       20 UNK         0.1400 
    111 CB        -0.8775  -24.8483  -56.5619 C.3       20 UNK        -0.1800 
    112 C         -1.7956  -22.6662  -55.6724 C.2       20 UNK         0.5000 
    113 O         -1.1866  -21.5956  -55.6059 O.2       20 UNK        -0.5000 
    114 N         -3.0736  -22.7840  -56.0503 N.am      21 UNK        -0.5000 
    115 CA        -4.0371  -21.7114  -56.3020 C.3       21 UNK         0.1400 
    116 CB        -3.5695  -20.7569  -57.4248 C.3       21 UNK        -0.1800 
    117 C         -4.4268  -21.0240  -54.9796 C.2       21 UNK         0.5000 
    118 O         -4.6817  -21.7257  -54.0025 O.2       21 UNK        -0.5000 
    119 N         -4.4949  -19.6880  -54.9582 N.am      22 UNK        -0.5000 
    120 CA        -4.8839  -18.8746  -53.7911 C.3       22 UNK         0.1400 
    121 C         -6.3976  -18.9460  -53.4104 C.2       22 UNK         0.5000 
    122 N         -7.2673  -19.4904  -54.2532 N.am      22 UNK        -0.7600 
    123 O         -6.8031  -18.4728  -52.3530 O.2       22 UNK        -0.5000 
    124 C124       -3.9337  -19.0812  -52.5702 C.3       23 UNK        -0.0398 
    125 S125       -3.5315  -17.5044  -51.7464 S.3       23 UNK        -0.2404 
    126 C126       -2.0063  -17.0308  -52.6186 C.3       23 UNK        -0.0205 
    127 H127       -2.6222   -8.5863  -47.0506 H         1 UNK         0.0600 
    128 H128       -3.5984   -9.8802  -46.3472 H         1 UNK         0.0600 
    129 H129       -2.9139  -10.0693  -47.9645 H         1 UNK         0.0600 
    130 H130       -1.1414  -11.4331  -47.9769 H         1 UNK         0.3000 
    131 H131        1.1284  -11.0510  -46.3543 H         1 UNK         0.0600 
    132 H132        2.0454  -13.0601  -47.4532 H         1 UNK         0.0800 
    133 H133        1.3689  -11.9332  -48.5908 H         1 UNK         0.0800 
    134 H134        2.1842  -15.0124  -48.9335 H         1 UNK         0.0800 
    135 H135        1.6500  -14.0948  -50.3207 H         1 UNK         0.0800 
    136 H136       -0.8514  -15.0428  -51.1790 H         1 UNK         0.1150 
    137 H137       -0.4538  -19.2174  -52.0685 H         1 UNK         0.1150 
    138 H138        2.3174  -17.3154  -49.4053 H         1 UNK         0.1150 
    139 H139        2.1600  -19.9904  -51.5754 H         1 UNK         0.0800 
    140 H140        2.6725  -19.5833  -49.9577 H         1 UNK         0.0800 
    141 H141        0.4183  -19.5142  -48.1495 H         1 UNK         0.0800 
    142 H142        1.4730  -20.8191  -47.6733 H         1 UNK         0.0800 
    143 H143       -0.5440  -22.3989  -47.7759 H         1 UNK         0.0600 
    144 H144        0.1382  -20.6412  -45.6952 H         1 UNK         0.3000 
    145 H145       -2.2132  -21.8009  -43.2487 H         1 UNK         0.0600 
    146 H146       -0.0856  -22.1073  -42.0172 H         1 UNK         0.0600 
    147 H147        0.8297  -22.0431  -43.5210 H         1 UNK         0.0600 
    148 H148       -0.2791  -23.3748  -43.2192 H         1 UNK         0.0600 
    149 H149       -0.2260  -19.8050  -43.0527 H         1 UNK         0.3000 
    150 H150       -2.1995  -17.0385  -44.2299 H         1 UNK         0.0600 
    151 H151       -2.6768  -17.2554  -41.8521 H         1 UNK         0.0600 
    152 H152       -1.2270  -16.2740  -41.9936 H         1 UNK         0.0600 
    153 H153       -1.1066  -17.9609  -41.5183 H         1 UNK         0.0600 
    154 H154        0.5273  -17.1507  -43.4653 H         1 UNK         0.3000 
    155 H155        1.8965  -17.9869  -46.6700 H         1 UNK         0.0600 
    156 H156        3.1510  -15.9193  -46.2720 H         1 UNK         0.0600 
    157 H157        1.4853  -15.5115  -46.6502 H         1 UNK         0.0600 
    158 H158        2.0411  -15.4325  -44.9920 H         1 UNK         0.0600 
    159 H159        2.9934  -17.4381  -44.0531 H         1 UNK         0.3000 
    160 H160        3.0740  -20.8164  -42.9327 H         1 UNK         0.0600 
    161 H161        5.4828  -20.2683  -42.7024 H         1 UNK         0.0600 
    162 H162        5.3146  -18.9191  -43.8260 H         1 UNK         0.0600 
    163 H163        5.0919  -20.5719  -44.3874 H         1 UNK         0.0600 
    164 H164        3.9920  -18.3466  -41.8060 H         1 UNK         0.3000 
    165 H165        0.9450  -17.3126  -40.3203 H         1 UNK         0.0600 
    166 H166        2.2143  -17.5019  -38.1977 H         1 UNK         0.0600 
    167 H167        1.6793  -19.0885  -38.7271 H         1 UNK         0.0600 
    168 H168        3.3593  -18.6144  -38.9485 H         1 UNK         0.0600 
    169 H169        3.6540  -16.4267  -40.0526 H         1 UNK         0.3000 
    170 H170        4.2794  -14.5058  -40.8963 H         1 UNK         0.0600 
    171 H171        4.3076  -15.1814  -43.8944 H         1 UNK         0.0600 
    172 H172        5.6059  -14.4019  -42.9962 H         1 UNK         0.0600 
    173 H173        5.1853  -16.0710  -42.6538 H         1 UNK         0.0600 
    174 H174        2.3323  -13.3753  -42.7828 H         1 UNK         0.3000 
    175 H175        3.3670  -10.0569  -41.8309 H         1 UNK         0.0600 
    176 H176        3.3151  -11.3490  -44.6060 H         1 UNK         0.0600 
    177 H177        3.0176   -9.6427  -44.2746 H         1 UNK         0.0600 
    178 H178        4.5900  -10.3479  -43.9329 H         1 UNK         0.0600 
    179 H179        1.1702  -11.4029  -43.2644 H         1 UNK         0.3000 
    180 H180       -1.0813  -11.2223  -40.6103 H         1 UNK         0.0600 
    181 H181       -2.4074   -9.5212  -41.8744 H         1 UNK         0.0600 
    182 H182       -0.9389   -8.9656  -42.6778 H         1 UNK         0.0600 
    183 H183       -1.1212   -8.7739  -40.9396 H         1 UNK         0.0600 
    184 H184       -1.2163  -11.2702  -43.5466 H         1 UNK         0.3000 
    185 H185       -0.7419  -14.7516  -43.7962 H         1 UNK         0.0600 
    186 H186       -3.4678  -13.3506  -44.0100 H         1 UNK         0.0600 
    187 H187       -3.0183  -14.8473  -44.8249 H         1 UNK         0.0600 
    188 H188       -3.1445  -14.8021  -43.0720 H         1 UNK         0.0600 
    189 H189       -1.7087  -12.9054  -45.7089 H         1 UNK         0.3000 
    190 H190       -1.8271  -19.1019  -47.0980 H         1 UNK         0.3000 
    191 H191       -3.7419  -19.0546  -49.1761 H         1 UNK         0.0600 
    192 H192       -2.9296  -17.0255  -48.0174 H         1 UNK         0.0600 
    193 H193       -3.6711  -17.5500  -46.5062 H         1 UNK         0.0600 
    194 H194       -4.6795  -17.1249  -47.8867 H         1 UNK         0.0600 
    195 H195       -4.0144  -20.2291  -45.8064 H         1 UNK         0.3000 
    196 H196       -6.8195  -20.7820  -45.8831 H         1 UNK         0.0600 
    197 H197       -5.5764  -20.5139  -43.7628 H         1 UNK         0.0600 
    198 H198       -4.6022  -21.9398  -44.1153 H         1 UNK         0.0600 
    199 H199       -6.3291  -22.1004  -43.8190 H         1 UNK         0.0600 
    200 H200       -3.9365  -22.8029  -46.6069 H         1 UNK         0.3000 
    201 H201       -5.3466  -25.2424  -47.0292 H         1 UNK         0.0600 
    202 H202       -2.9300  -25.1885  -46.5398 H         1 UNK         0.0600 
    203 H203       -2.6022  -24.3275  -48.0419 H         1 UNK         0.0600 
    204 H204       -3.2037  -25.9812  -48.0821 H         1 UNK         0.0600 
    205 H205       -4.0413  -22.8434  -49.3552 H         1 UNK         0.3000 
    206 H206       -4.3833  -22.3863  -51.4827 H         1 UNK         0.0600 
    207 H207       -7.3001  -23.1514  -50.9305 H         1 UNK         0.0600 
    208 H208       -6.5554  -21.6090  -50.5257 H         1 UNK         0.0600 
    209 H209       -6.7247  -22.0722  -52.2033 H         1 UNK         0.0600 
    210 H210       -6.6291  -23.8402  -53.0763 H         1 UNK         0.3000 
    211 H211       -6.8526  -25.4338  -54.6080 H         1 UNK         0.0600 
    212 H212       -5.9635  -27.2310  -52.2819 H         1 UNK         0.0600 
    213 H213       -6.9269  -27.7397  -53.6736 H         1 UNK         0.0600 
    214 H214       -7.5809  -26.5911  -52.5263 H         1 UNK         0.0600 
    215 H215       -4.9475  -28.0081  -54.0898 H         1 UNK         0.3000 
    216 H216       -2.9185  -27.2389  -56.1049 H         1 UNK         0.0600 
    217 H217       -2.5062  -29.6854  -56.1768 H         1 UNK         0.0600 
    218 H218       -4.2130  -29.3471  -56.4096 H         1 UNK         0.0600 
    219 H219       -3.6362  -29.9437  -54.8531 H         1 UNK         0.0600 
    220 H220       -3.1784  -27.2131  -52.7087 H         1 UNK         0.3000 
    221 H221       -0.5358  -28.2444  -52.0475 H         1 UNK         0.0600 
    222 H222       -2.6294  -26.7762  -50.3589 H         1 UNK         0.0600 
    223 H223       -2.4269  -28.5227  -50.4766 H         1 UNK         0.0600 
    224 H224       -1.1704  -27.5389  -49.7414 H         1 UNK         0.0600 
    225 H225       -2.0991  -25.0363  -52.2651 H         1 UNK         0.3000 
    226 H226        0.0810  -23.5245  -51.3584 H         1 UNK         0.0600 
    227 H227       -2.3960  -22.7819  -52.9384 H         1 UNK         0.0600 
    228 H228       -2.0114  -22.4882  -51.2519 H         1 UNK         0.0600 
    229 H229       -1.1809  -21.5834  -52.5032 H         1 UNK         0.0600 
    230 H230        0.9528  -23.5896  -55.3796 H         1 UNK         0.3000 
    231 H231       -1.7299  -24.5395  -54.6210 H         1 UNK         0.0600 
    232 H232       -1.8290  -25.1190  -57.0211 H         1 UNK         0.0600 
    233 H233       -0.3614  -25.7776  -56.3205 H         1 UNK         0.0600 
    234 H234       -0.2875  -24.3247  -57.3152 H         1 UNK         0.0600 
    235 H235       -3.4967  -23.7080  -55.9637 H         1 UNK         0.3000 
    236 H236       -4.9419  -22.2076  -56.6555 H         1 UNK         0.0600 
    237 H237       -2.7238  -20.1393  -57.1216 H         1 UNK         0.0600 
    238 H238       -3.2686  -21.3166  -58.3105 H         1 UNK         0.0600 
    239 H239       -4.3743  -20.0876  -57.7308 H         1 UNK         0.0600 
    240 H240       -4.2822  -19.1772  -55.8029 H         1 UNK         0.3000 
    241 H241       -4.7527  -17.8524  -54.1476 H         1 UNK         0.0600 
    242 H242       -6.9627  -19.8692  -55.1348 H         1 UNK         0.3800 
    243 H243       -8.2437  -19.5190  -54.0052 H         1 UNK         0.3800 
    244 H244       -2.9995  -19.5563  -52.8730 H         1 UNK         0.0800 
    245 H245       -4.3709  -19.7632  -51.8384 H         1 UNK         0.0800 
    246 H246       -1.8542  -17.6444  -53.5078 H         1 UNK         0.0800 
    247 H247       -2.1201  -16.0083  -52.9821 H         1 UNK         0.0800 
@<TRIPOS>BOND
     1    1    2 1    
     2    1  127 1    
     3    1  128 1    
     4    1  129 1    
     5    2    3 2    
     6    2    4 am   BACKBONE|DICT|INTERRES
     7    4    5 1    
     8    4  130 1    
     9    5    6 1    
    10    5   65 1    
    11    5  131 1    
    12    6    7 1    
    13    6  132 1    
    14    6  133 1    
    15    7    8 1    
    16    8    9 1    
    17    8  134 1    
    18    8  135 1    
    19    9   10 ar   
    20    9   14 ar   
    21   10   11 ar   
    22   10  136 1    
    23   11   12 ar   
    24   11  126 1    
    25   12   13 ar   
    26   12  137 1    
    27   13   14 ar   
    28   13   15 1    
    29   14  138 1    
    30   15   16 1    
    31   15  139 1    
    32   15  140 1    
    33   16   17 1    
    34   17   18 1    
    35   17  141 1    
    36   17  142 1    
    37   18   19 1    
    38   18   67 1    
    39   18  143 1    
    40   19   20 am   BACKBONE|DICT|INTERRES
    41   19  144 1    
    42   20   21 2    
    43   20   22 1    
    44   22   23 1    
    45   22   24 1    
    46   22  145 1    
    47   23  146 1    
    48   23  147 1    
    49   23  148 1    
    50   24   25 am   BACKBONE|DICT|INTERRES
    51   24  149 1    
    52   25   26 2    
    53   25   27 1    
    54   27   28 1    
    55   27   29 1    
    56   27  150 1    
    57   28  151 1    
    58   28  152 1    
    59   28  153 1    
    60   29   30 am   BACKBONE|DICT|INTERRES
    61   29  154 1    
    62   30   31 2    
    63   30   32 1    
    64   32   33 1    
    65   32   34 1    
    66   32  155 1    
    67   33  156 1    
    68   33  157 1    
    69   33  158 1    
    70   34   35 am   BACKBONE|DICT|INTERRES
    71   34  159 1    
    72   35   36 2    
    73   35   37 1    
    74   37   38 1    
    75   37   39 1    
    76   37  160 1    
    77   38  161 1    
    78   38  162 1    
    79   38  163 1    
    80   39   40 am   BACKBONE|DICT|INTERRES
    81   39  164 1    
    82   40   41 2    
    83   40   42 1    
    84   42   43 1    
    85   42   44 1    
    86   42  165 1    
    87   43  166 1    
    88   43  167 1    
    89   43  168 1    
    90   44   45 am   BACKBONE|DICT|INTERRES
    91   44  169 1    
    92   45   46 2    
    93   45   47 1    
    94   47   48 1    
    95   47   49 1    
    96   47  170 1    
    97   48  171 1    
    98   48  172 1    
    99   48  173 1    
   100   49   50 am   BACKBONE|DICT|INTERRES
   101   49  174 1    
   102   50   51 2    
   103   50   52 1    
   104   52   53 1    
   105   52   54 1    
   106   52  175 1    
   107   53  176 1    
   108   53  177 1    
   109   53  178 1    
   110   54   55 am   BACKBONE|DICT|INTERRES
   111   54  179 1    
   112   55   56 2    
   113   55   57 1    
   114   57   58 1    
   115   57   59 1    
   116   57  180 1    
   117   58  181 1    
   118   58  182 1    
   119   58  183 1    
   120   59   60 am   BACKBONE|DICT|INTERRES
   121   59  184 1    
   122   60   61 2    
   123   60   62 1    
   124   62   63 1    
   125   62   64 1    
   126   62  185 1    
   127   63  186 1    
   128   63  187 1    
   129   63  188 1    
   130   64   65 am   BACKBONE|DICT|INTERRES
   131   64  189 1    
   132   65   66 2    
   133   67   68 2    
   134   67   69 am   BACKBONE|DICT|INTERRES
   135   69   70 1    
   136   69  190 1    
   137   70   71 1    
   138   70   72 1    
   139   70  191 1    
   140   71  192 1    
   141   71  193 1    
   142   71  194 1    
   143   72   73 2    
   144   72   74 am   BACKBONE|DICT|INTERRES
   145   74   75 1    
   146   74  195 1    
   147   75   76 1    
   148   75   77 1    
   149   75  196 1    
   150   76  197 1    
   151   76  198 1    
   152   76  199 1    
   153   77   78 2    
   154   77   79 am   BACKBONE|DICT|INTERRES
   155   79   80 1    
   156   79  200 1    
   157   80   81 1    
   158   80   82 1    
   159   80  201 1    
   160   81  202 1    
   161   81  203 1    
   162   81  204 1    
   163   82   83 2    
   164   82   84 am   BACKBONE|DICT|INTERRES
   165   84   85 1    
   166   84  205 1    
   167   85   86 1    
   168   85   87 1    
   169   85  206 1    
   170   86  207 1    
   171   86  208 1    
   172   86  209 1    
   173   87   88 2    
   174   87   89 am   BACKBONE|DICT|INTERRES
   175   89   90 1    
   176   89  210 1    
   177   90   91 1    
   178   90   92 1    
   179   90  211 1    
   180   91  212 1    
   181   91  213 1    
   182   91  214 1    
   183   92   93 2    
   184   92   94 am   BACKBONE|DICT|INTERRES
   185   94   95 1    
   186   94  215 1    
   187   95   96 1    
   188   95   97 1    
   189   95  216 1    
   190   96  217 1    
   191   96  218 1    
   192   96  219 1    
   193   97   98 2    
   194   97   99 am   BACKBONE|DICT|INTERRES
   195   99  100 1    
   196   99  220 1    
   197  100  101 1    
   198  100  102 1    
   199  100  221 1    
   200  101  222 1    
   201  101  223 1    
   202  101  224 1    
   203  102  103 2    
   204  102  104 am   BACKBONE|DICT|INTERRES
   205  104  105 1    
   206  104  225 1    
   207  105  106 1    
   208  105  107 1    
   209  105  226 1    
   210  106  227 1    
   211  106  228 1    
   212  106  229 1    
   213  107  108 2    
   214  107  109 am   BACKBONE|DICT|INTERRES
   215  109  110 1    
   216  109  230 1    
   217  110  111 1    
   218  110  112 1    
   219  110  231 1    
   220  111  232 1    
   221  111  233 1    
   222  111  234 1    
   223  112  113 2    
   224  112  114 am   BACKBONE|DICT|INTERRES
   225  114  115 1    
   226  114  235 1    
   227  115  116 1    
   228  115  117 1    
   229  115  236 1    
   230  116  237 1    
   231  116  238 1    
   232  116  239 1    
   233  117  118 2    
   234  117  119 am   BACKBONE|DICT|INTERRES
   235  119  120 1    
   236  119  240 1    
   237  120  121 1    
   238  120  124 1    
   239  120  241 1    
   240  121  122 am   BACKBONE|DICT|INTERRES
   241  121  123 2    
   242  122  242 1    
   243  122  243 1    
   244  124  125 1    
   245  124  244 1    
   246  124  245 1    
   247  125  126 1    
   248  126  246 1    
   249  126  247 1    
@<TRIPOS>SUBSTRUCTURE
     1 UNK         1 GROUP             0       ****    0 ROOT    
