@<TRIPOS>MOLECULE
3R540
247   249    1
SMALL
USER_CHARGES


@<TRIPOS>ATOM
      1 CA         -1.7917  -11.4503  -52.0490 C.3       0 UNK        -0.1800 
      2 C          -0.3473  -11.6022  -51.5920 C.2       0 UNK         0.5000 
      3 O           0.4964  -10.7750  -51.9384 O.2       0 UNK        -0.5000 
      4 N          -0.0617  -12.6618  -50.8262 N.am      1 UNK        -0.5000 
      5 CA          1.2477  -12.9692  -50.2450 C.3       1 UNK         0.1400 
      6 C6          1.2652  -14.3610  -49.5669 C.3       23 UNK        -0.0398 
      7 S7          0.8005  -15.7271  -50.6810 S.3       23 UNK        -0.2404 
      8 C8          1.3431  -17.1336  -49.6550 C.3       23 UNK        -0.0205 
      9 C9          0.6304  -18.4465  -49.9611 C.ar      23 UNK        -0.0193 
     10 C10        -0.7461  -18.4847  -50.2038 C.ar      23 UNK        -0.1150 
     11 C11        -1.4132  -19.7010  -50.3585 C.ar      23 UNK        -0.0193 
     12 C12        -0.6897  -20.8935  -50.2789 C.ar      23 UNK        -0.1150 
     13 C13         0.6905  -20.8769  -50.0493 C.ar      23 UNK        -0.0193 
     14 C14         1.3436  -19.6471  -49.9060 C.ar      23 UNK        -0.1150 
     15 C15         1.4548  -22.1955  -49.9479 C.3       23 UNK        -0.0205 
     16 S16         2.7031  -22.2609  -48.6106 S.3       23 UNK        -0.2404 
     17 C17         1.7382  -21.7713  -47.1380 C.3       23 UNK        -0.0398 
     18 CA          1.2367  -22.9463  -46.2657 C.3       11 UNK         0.1400 
     19 N           0.6462  -22.4575  -45.0208 N.am      11 UNK        -0.5000 
     20 C           0.2797  -23.2148  -43.9789 C.2       10 UNK         0.5000 
     21 O           0.4832  -24.4267  -43.9050 O.2       10 UNK        -0.5000 
     22 CA         -0.4764  -22.4981  -42.8432 C.3       10 UNK         0.1400 
     23 CB          0.5033  -21.8233  -41.8717 C.3       10 UNK        -0.1800 
     24 N          -1.4354  -21.5070  -43.3378 N.am      10 UNK        -0.5000 
     25 C          -2.5141  -21.8038  -44.0782 C.2       9 UNK         0.5000 
     26 O          -2.8351  -22.9507  -44.3906 O.2       9 UNK        -0.5000 
     27 CA         -3.3531  -20.6191  -44.5908 C.3       9 UNK         0.1400 
     28 CB         -4.2920  -20.1016  -43.4912 C.3       9 UNK        -0.1800 
     29 N          -2.5359  -19.5164  -45.0975 N.am      9 UNK        -0.5000 
     30 C          -1.6946  -19.6131  -46.1369 C.2       8 UNK         0.5000 
     31 O          -1.5210  -20.6476  -46.7778 O.2       8 UNK        -0.5000 
     32 CA         -0.8490  -18.3706  -46.4674 C.3       8 UNK         0.1400 
     33 CB         -1.6935  -17.2794  -47.1361 C.3       8 UNK        -0.1800 
     34 N          -0.1976  -17.8092  -45.2869 N.am      8 UNK        -0.5000 
     35 C           0.6653  -18.4671  -44.5006 C.2       7 UNK         0.5000 
     36 O           1.0523  -19.6155  -44.7117 O.2       7 UNK        -0.5000 
     37 CA          1.1456  -17.7275  -43.2436 C.3       7 UNK         0.1400 
     38 CB          2.3178  -16.8023  -43.5843 C.3       7 UNK        -0.1800 
     39 N           0.0716  -16.9475  -42.6315 N.am      7 UNK        -0.5000 
     40 C          -0.9718  -17.4864  -41.9865 C.2       6 UNK         0.5000 
     41 O          -1.1185  -18.6967  -41.8079 O.2       6 UNK        -0.5000 
     42 CA         -2.0508  -16.5024  -41.5002 C.3       6 UNK         0.1400 
     43 CB         -1.5920  -15.7680  -40.2312 C.3       6 UNK        -0.1800 
     44 N          -2.4189  -15.5228  -42.5252 N.am      6 UNK        -0.5000 
     45 C          -3.0299  -15.8345  -43.6765 C.2       5 UNK         0.5000 
     46 O          -3.3479  -16.9811  -43.9878 O.2       5 UNK        -0.5000 
     47 CA         -3.3270  -14.6817  -44.6529 C.3       5 UNK         0.1400 
     48 CB         -4.7140  -14.0874  -44.3680 C.3       5 UNK        -0.1800 
     49 N          -2.3361  -13.6031  -44.6552 N.am      5 UNK        -0.5000 
     50 C          -1.0299  -13.7237  -44.9330 C.2       4 UNK         0.5000 
     51 O          -0.4646  -14.8046  -45.1215 O.2       4 UNK        -0.5000 
     52 CA         -0.2665  -12.3884  -45.0546 C.3       4 UNK         0.1400 
     53 CB         -0.4027  -11.5160  -43.7869 C.3       4 UNK        -0.1800 
     54 N           1.1369  -12.5350  -45.4529 N.am      4 UNK        -0.5000 
     55 C           2.1670  -12.9946  -44.7245 C.2       3 UNK         0.5000 
     56 O           2.0657  -13.3870  -43.5615 O.2       3 UNK        -0.5000 
     57 CA          3.5613  -13.0051  -45.3944 C.3       3 UNK         0.1400 
     58 CB          4.0708  -14.4408  -45.5929 C.3       3 UNK        -0.1800 
     59 N           3.6003  -12.3226  -46.6891 N.am      3 UNK        -0.5000 
     60 C           3.5961  -10.9949  -46.8713 C.2       2 UNK         0.5000 
     61 O           3.6246  -10.1780  -45.9506 O.2       2 UNK        -0.5000 
     62 CA          3.5198  -10.4983  -48.3307 C.3       2 UNK         0.1400 
     63 CB          4.9160  -10.1066  -48.8384 C.3       2 UNK        -0.1800 
     64 N           2.9297  -11.4720  -49.2589 N.am      2 UNK        -0.5000 
     65 C           1.6603  -11.8996  -49.2128 C.2       1 UNK         0.5000 
     66 O           0.8480  -11.5334  -48.3594 O.2       1 UNK        -0.5000 
     67 C           0.2493  -23.8585  -47.0201 C.2       11 UNK         0.5000 
     68 O           0.5904  -25.0035  -47.3170 O.2       11 UNK        -0.5000 
     69 N          -0.9642  -23.3551  -47.2882 N.am      12 UNK        -0.5000 
     70 CA         -2.0244  -24.0564  -48.0152 C.3       12 UNK         0.1400 
     71 CB         -3.2283  -23.1274  -48.1978 C.3       12 UNK        -0.1800 
     72 C          -2.4629  -25.3749  -47.3598 C.2       12 UNK         0.5000 
     73 O          -2.7355  -26.3358  -48.0771 O.2       12 UNK        -0.5000 
     74 N          -2.4710  -25.4209  -46.0209 N.am      13 UNK        -0.5000 
     75 CA         -2.7596  -26.6206  -45.2323 C.3       13 UNK         0.1400 
     76 CB         -2.8140  -26.2446  -43.7438 C.3       13 UNK        -0.1800 
     77 C          -1.7641  -27.7779  -45.4607 C.2       13 UNK         0.5000 
     78 O          -2.1450  -28.9362  -45.2856 O.2       13 UNK        -0.5000 
     79 N          -0.5239  -27.4536  -45.8500 N.am      14 UNK        -0.5000 
     80 CA          0.5232  -28.4200  -46.1708 C.3       14 UNK         0.1400 
     81 CB          1.8578  -27.9220  -45.5925 C.3       14 UNK        -0.1800 
     82 C           0.6404  -28.6429  -47.6883 C.2       14 UNK         0.5000 
     83 O           0.7116  -29.7903  -48.1303 O.2       14 UNK        -0.5000 
     84 N           0.6883  -27.5468  -48.4562 N.am      15 UNK        -0.5000 
     85 CA          1.0013  -27.5498  -49.8854 C.3       15 UNK         0.1400 
     86 CB          1.5657  -26.1706  -50.2639 C.3       15 UNK        -0.1800 
     87 C          -0.1922  -27.8869  -50.7956 C.2       15 UNK         0.5000 
     88 O           0.0314  -28.3198  -51.9264 O.2       15 UNK        -0.5000 
     89 N          -1.4224  -27.6343  -50.3209 N.am      16 UNK        -0.5000 
     90 CA         -2.6898  -27.6941  -51.0672 C.3       16 UNK         0.1400 
     91 CB         -2.9953  -29.1316  -51.5384 C.3       16 UNK        -0.1800 
     92 C          -2.7841  -26.6534  -52.2093 C.2       16 UNK         0.5000 
     93 O          -3.5823  -26.8227  -53.1331 O.2       16 UNK        -0.5000 
     94 N          -1.9674  -25.5950  -52.1270 N.am      17 UNK        -0.5000 
     95 CA         -1.9096  -24.4880  -53.0785 C.3       17 UNK         0.1400 
     96 CB         -0.5290  -23.8228  -52.9605 C.3       17 UNK        -0.1800 
     97 C          -3.0295  -23.4613  -52.8294 C.2       17 UNK         0.5000 
     98 O          -3.5641  -23.3857  -51.7207 O.2       17 UNK        -0.5000 
     99 N          -3.3309  -22.6670  -53.8614 N.am      18 UNK        -0.5000 
    100 CA        -4.2896  -21.5659  -53.8343 C.3       18 UNK         0.1400 
    101 CB        -5.5087  -21.9370  -54.6933 C.3       18 UNK        -0.1800 
    102 C         -3.6098  -20.2982  -54.3742 C.2       18 UNK         0.5000 
    103 O         -2.7497  -20.3920  -55.2537 O.2       18 UNK        -0.5000 
    104 N         -4.0275  -19.1421  -53.8524 N.am      19 UNK        -0.5000 
    105 CA        -3.5784  -17.7975  -54.2043 C.3       19 UNK         0.1400 
    106 CB        -2.1179  -17.5561  -53.7655 C.3       19 UNK        -0.1800 
    107 C         -4.5296  -16.7986  -53.5255 C.2       19 UNK         0.5000 
    108 O         -5.3627  -17.2024  -52.7062 O.2       19 UNK        -0.5000 
    109 N         -4.3787  -15.5096  -53.8538 N.am      20 UNK        -0.5000 
    110 CA        -5.2366  -14.4079  -53.4003 C.3       20 UNK         0.1400 
    111 CB        -4.7901  -13.1131  -54.0964 C.3       20 UNK        -0.1800 
    112 C         -5.2995  -14.2037  -51.8718 C.2       20 UNK         0.5000 
    113 O         -6.3034  -13.6889  -51.3785 O.2       20 UNK        -0.5000 
    114 N         -4.2488  -14.6181  -51.1489 N.am      21 UNK        -0.5000 
    115 CA        -4.2060  -14.5943  -49.6835 C.3       21 UNK         0.1400 
    116 CB        -2.7449  -14.6194  -49.2125 C.3       21 UNK        -0.1800 
    117 C         -5.0152  -15.7327  -49.0286 C.2       21 UNK         0.5000 
    118 O         -5.3912  -15.5979  -47.8637 O.2       21 UNK        -0.5000 
    119 N         -5.2730  -16.8148  -49.7751 N.am      22 UNK        -0.5000 
    120 CA        -6.1292  -17.9353  -49.3529 C.3       22 UNK         0.1400 
    121 C         -7.5787  -17.7813  -49.8847 C.2       22 UNK         0.5000 
    122 N         -7.7738  -17.3094  -51.1106 N.am      22 UNK        -0.7600 
    123 O         -8.5349  -18.0890  -49.1788 O.2       22 UNK        -0.5000 
    124 C124       -5.5568  -19.3124  -49.7736 C.3       23 UNK        -0.0398 
    125 S125       -3.8905  -19.6106  -49.0987 S.3       23 UNK        -0.2404 
    126 C126       -2.9104  -19.7164  -50.6239 C.3       23 UNK        -0.0205 
    127 H127       -2.2143  -10.5263  -51.6546 H         1 UNK         0.0600 
    128 H128       -2.4146  -12.2791  -51.7122 H         1 UNK         0.0600 
    129 H129       -1.8375  -11.4097  -53.1371 H         1 UNK         0.0600 
    130 H130       -0.7963  -13.3087  -50.5860 H         1 UNK         0.3000 
    131 H131        1.9763  -12.9717  -51.0585 H         1 UNK         0.0600 
    132 H132        2.2615  -14.5725  -49.1736 H         1 UNK         0.0800 
    133 H133        0.5864  -14.3820  -48.7111 H         1 UNK         0.0800 
    134 H134        2.4220  -17.2468  -49.7719 H         1 UNK         0.0800 
    135 H135        1.1683  -16.9034  -48.6032 H         1 UNK         0.0800 
    136 H136       -1.3109  -17.5658  -50.2457 H         1 UNK         0.1150 
    137 H137       -1.2082  -21.8350  -50.3890 H         1 UNK         0.1150 
    138 H138        2.4067  -19.6270  -49.7129 H         1 UNK         0.1150 
    139 H139        0.7579  -23.0200  -49.8005 H         1 UNK         0.0800 
    140 H140        1.9531  -22.3823  -50.8998 H         1 UNK         0.0800 
    141 H141        2.3961  -21.1414  -46.5379 H         1 UNK         0.0800 
    142 H142        0.9126  -21.1232  -47.4259 H         1 UNK         0.0800 
    143 H143        2.1019  -23.5549  -45.9945 H         1 UNK         0.0600 
    144 H144        0.4879  -21.4553  -44.9665 H         1 UNK         0.3000 
    145 H145       -1.0362  -23.2552  -42.2901 H         1 UNK         0.0600 
    146 H146        1.2074  -22.5482  -41.4616 H         1 UNK         0.0600 
    147 H147        1.0844  -21.0420  -42.3619 H         1 UNK         0.0600 
    148 H148       -0.0239  -21.3697  -41.0322 H         1 UNK         0.0600 
    149 H149       -1.2514  -20.5374  -43.1094 H         1 UNK         0.3000 
    150 H150       -3.9660  -20.9815  -45.4187 H         1 UNK         0.0600 
    151 H151       -4.9125  -20.9062  -43.0946 H         1 UNK         0.0600 
    152 H152       -4.9624  -19.3335  -43.8770 H         1 UNK         0.0600 
    153 H153       -3.7359  -19.6708  -42.6575 H         1 UNK         0.0600 
    154 H154       -2.6497  -18.6178  -44.6352 H         1 UNK         0.3000 
    155 H155       -0.0658  -18.6766  -47.1627 H         1 UNK         0.0600 
    156 H156       -1.0910  -16.4042  -47.3780 H         1 UNK         0.0600 
    157 H157       -2.1397  -17.6349  -48.0601 H         1 UNK         0.0600 
    158 H158       -2.5162  -16.9649  -46.5001 H         1 UNK         0.0600 
    159 H159       -0.4239  -16.8466  -45.0586 H         1 UNK         0.3000 
    160 H160        1.4915  -18.4704  -42.5218 H         1 UNK         0.0600 
    161 H161        2.0206  -16.0510  -44.3155 H         1 UNK         0.0600 
    162 H162        3.1511  -17.3644  -44.0077 H         1 UNK         0.0600 
    163 H163        2.6868  -16.2836  -42.6994 H         1 UNK         0.0600 
    164 H164        0.0928  -15.9487  -42.7823 H         1 UNK         0.3000 
    165 H165       -2.9418  -17.0838  -41.2530 H         1 UNK         0.0600 
    166 H166       -2.3861  -15.1359  -39.8333 H         1 UNK         0.0600 
    167 H167       -1.3190  -16.4766  -39.4481 H         1 UNK         0.0600 
    168 H168       -0.7232  -15.1363  -40.4202 H         1 UNK         0.0600 
    169 H169       -2.1859  -14.5571  -42.3474 H         1 UNK         0.3000 
    170 H170       -3.3517  -15.0963  -45.6606 H         1 UNK         0.0600 
    171 H171       -5.4816  -14.8625  -44.3882 H         1 UNK         0.0600 
    172 H172       -4.7550  -13.6084  -43.3889 H         1 UNK         0.0600 
    173 H173       -4.9877  -13.3461  -45.1191 H         1 UNK         0.0600 
    174 H174       -2.7063  -12.6751  -44.5105 H         1 UNK         0.3000 
    175 H175       -0.7358  -11.8465  -45.8771 H         1 UNK         0.0600 
    176 H176       -0.0886  -12.0486  -42.8888 H         1 UNK         0.0600 
    177 H177        0.1988  -10.6103  -43.8661 H         1 UNK         0.0600 
    178 H178       -1.4339  -11.1991  -43.6304 H         1 UNK         0.0600 
    179 H179        1.3271  -12.2510  -46.4062 H         1 UNK         0.3000 
    180 H180        4.2485  -12.4933  -44.7174 H         1 UNK         0.0600 
    181 H181        3.3842  -15.0332  -46.1991 H         1 UNK         0.0600 
    182 H182        4.1903  -14.9444  -44.6336 H         1 UNK         0.0600 
    183 H183        5.0460  -14.4518  -46.0801 H         1 UNK         0.0600 
    184 H184        3.5992  -12.9119  -47.5075 H         1 UNK         0.3000 
    185 H185        2.8905   -9.6058  -48.3375 H         1 UNK         0.0600 
    186 H186        5.3740   -9.3609  -48.1871 H         1 UNK         0.0600 
    187 H187        5.5867  -10.9660  -48.8755 H         1 UNK         0.0600 
    188 H188        4.8660   -9.6747  -49.8381 H         1 UNK         0.0600 
    189 H189        3.5392  -11.8182  -49.9864 H         1 UNK         0.3000 
    190 H190       -1.1693  -22.3933  -47.0171 H         1 UNK         0.3000 
    191 H191       -1.6337  -24.2988  -49.0054 H         1 UNK         0.0600 
    192 H192       -2.9498  -22.2576  -48.7878 H         1 UNK         0.0600 
    193 H193       -3.6187  -22.7764  -47.2422 H         1 UNK         0.0600 
    194 H194       -4.0390  -23.6287  -48.7281 H         1 UNK         0.0600 
    195 H195       -2.2905  -24.5669  -45.5023 H         1 UNK         0.3000 
    196 H196       -3.7472  -26.9794  -45.5288 H         1 UNK         0.0600 
    197 H197       -3.0373  -27.1156  -43.1264 H         1 UNK         0.0600 
    198 H198       -3.5909  -25.5043  -43.5523 H         1 UNK         0.0600 
    199 H199       -1.8653  -25.8313  -43.3997 H         1 UNK         0.0600 
    200 H200       -0.2995  -26.4770  -45.9981 H         1 UNK         0.3000 
    201 H201        0.3027  -29.3842  -45.7078 H         1 UNK         0.0600 
    202 H202        1.8028  -27.8255  -44.5080 H         1 UNK         0.0600 
    203 H203        2.1396  -26.9493  -45.9979 H         1 UNK         0.0600 
    204 H204        2.6659  -28.6193  -45.8170 H         1 UNK         0.0600 
    205 H205        0.6357  -26.6318  -48.0105 H         1 UNK         0.3000 
    206 H206        1.7783  -28.2946  -50.0712 H         1 UNK         0.0600 
    207 H207        2.4435  -25.9235  -49.6662 H         1 UNK         0.0600 
    208 H208        1.8669  -26.1420  -51.3119 H         1 UNK         0.0600 
    209 H209        0.8277  -25.3830  -50.1131 H         1 UNK         0.0600 
    210 H210       -1.5141  -27.2862  -49.3717 H         1 UNK         0.3000 
    211 H211       -3.4708  -27.4194  -50.3579 H         1 UNK         0.0600 
    212 H212       -2.3193  -29.4542  -52.3304 H         1 UNK         0.0600 
    213 H213       -4.0107  -29.2063  -51.9291 H         1 UNK         0.0600 
    214 H214       -2.9132  -29.8416  -50.7155 H         1 UNK         0.0600 
    215 H215       -1.3771  -25.5207  -51.3144 H         1 UNK         0.3000 
    216 H216       -2.0207  -24.8849  -54.0899 H         1 UNK         0.0600 
    217 H217        0.2698  -24.5311  -53.1818 H         1 UNK         0.0600 
    218 H218       -0.3581  -23.4305  -51.9591 H         1 UNK         0.0600 
    219 H219       -0.4281  -22.9917  -53.6598 H         1 UNK         0.0600 
    220 H220       -2.7902  -22.7326  -54.7136 H         1 UNK         0.3000 
    221 H221       -4.6299  -21.3742  -52.8151 H         1 UNK         0.0600 
    222 H222       -5.2288  -22.1260  -55.7305 H         1 UNK         0.0600 
    223 H223       -6.0001  -22.8319  -54.3110 H         1 UNK         0.0600 
    224 H224       -6.2475  -21.1346  -54.6920 H         1 UNK         0.0600 
    225 H225       -4.7883  -19.1325  -53.1839 H         1 UNK         0.3000 
    226 H226       -3.6635  -17.6761  -55.2858 H         1 UNK         0.0600 
    227 H227       -1.4430  -18.3163  -54.1578 H         1 UNK         0.0600 
    228 H228       -1.7544  -16.5955  -54.1313 H         1 UNK         0.0600 
    229 H229       -2.0106  -17.5457  -52.6823 H         1 UNK         0.0600 
    230 H230       -3.6622  -15.2629  -54.5213 H         1 UNK         0.3000 
    231 H231       -6.2531  -14.6341  -53.7291 H         1 UNK         0.0600 
    232 H232       -5.4024  -12.2659  -53.7840 H         1 UNK         0.0600 
    233 H233       -4.8830  -13.1956  -55.1795 H         1 UNK         0.0600 
    234 H234       -3.7525  -12.8716  -53.8665 H         1 UNK         0.0600 
    235 H235       -3.4637  -15.0303  -51.6298 H         1 UNK         0.3000 
    236 H236       -4.6445  -13.6552  -49.3386 H         1 UNK         0.0600 
    237 H237       -2.2196  -13.7227  -49.5335 H         1 UNK         0.0600 
    238 H238       -2.6853  -14.6462  -48.1238 H         1 UNK         0.0600 
    239 H239       -2.2099  -15.4875  -49.5961 H         1 UNK         0.0600 
    240 H240       -4.9875  -16.8221  -50.7455 H         1 UNK         0.3000 
    241 H241       -6.1952  -17.9430  -48.2630 H         1 UNK         0.0600 
    242 H242       -6.9851  -17.1200  -51.7211 H         1 UNK         0.3800 
    243 H243       -8.7132  -17.2018  -51.4581 H         1 UNK         0.3800 
    244 H244       -6.2016  -20.1154  -49.4124 H         1 UNK         0.0800 
    245 H245       -5.5394  -19.4065  -50.8603 H         1 UNK         0.0800 
    246 H246       -3.1833  -20.6249  -51.1592 H         1 UNK         0.0800 
    247 H247       -3.1746  -18.8764  -51.2627 H         1 UNK         0.0800 
@<TRIPOS>BOND
     1    1    2 1    
     2    1  127 1    
     3    1  128 1    
     4    1  129 1    
     5    2    3 2    
     6    2    4 am   BACKBONE|DICT|INTERRES
     7    4    5 1    
     8    4  130 1    
     9    5    6 1    
    10    5   65 1    
    11    5  131 1    
    12    6    7 1    
    13    6  132 1    
    14    6  133 1    
    15    7    8 1    
    16    8    9 1    
    17    8  134 1    
    18    8  135 1    
    19    9   10 ar   
    20    9   14 ar   
    21   10   11 ar   
    22   10  136 1    
    23   11   12 ar   
    24   11  126 1    
    25   12   13 ar   
    26   12  137 1    
    27   13   14 ar   
    28   13   15 1    
    29   14  138 1    
    30   15   16 1    
    31   15  139 1    
    32   15  140 1    
    33   16   17 1    
    34   17   18 1    
    35   17  141 1    
    36   17  142 1    
    37   18   19 1    
    38   18   67 1    
    39   18  143 1    
    40   19   20 am   BACKBONE|DICT|INTERRES
    41   19  144 1    
    42   20   21 2    
    43   20   22 1    
    44   22   23 1    
    45   22   24 1    
    46   22  145 1    
    47   23  146 1    
    48   23  147 1    
    49   23  148 1    
    50   24   25 am   BACKBONE|DICT|INTERRES
    51   24  149 1    
    52   25   26 2    
    53   25   27 1    
    54   27   28 1    
    55   27   29 1    
    56   27  150 1    
    57   28  151 1    
    58   28  152 1    
    59   28  153 1    
    60   29   30 am   BACKBONE|DICT|INTERRES
    61   29  154 1    
    62   30   31 2    
    63   30   32 1    
    64   32   33 1    
    65   32   34 1    
    66   32  155 1    
    67   33  156 1    
    68   33  157 1    
    69   33  158 1    
    70   34   35 am   BACKBONE|DICT|INTERRES
    71   34  159 1    
    72   35   36 2    
    73   35   37 1    
    74   37   38 1    
    75   37   39 1    
    76   37  160 1    
    77   38  161 1    
    78   38  162 1    
    79   38  163 1    
    80   39   40 am   BACKBONE|DICT|INTERRES
    81   39  164 1    
    82   40   41 2    
    83   40   42 1    
    84   42   43 1    
    85   42   44 1    
    86   42  165 1    
    87   43  166 1    
    88   43  167 1    
    89   43  168 1    
    90   44   45 am   BACKBONE|DICT|INTERRES
    91   44  169 1    
    92   45   46 2    
    93   45   47 1    
    94   47   48 1    
    95   47   49 1    
    96   47  170 1    
    97   48  171 1    
    98   48  172 1    
    99   48  173 1    
   100   49   50 am   BACKBONE|DICT|INTERRES
   101   49  174 1    
   102   50   51 2    
   103   50   52 1    
   104   52   53 1    
   105   52   54 1    
   106   52  175 1    
   107   53  176 1    
   108   53  177 1    
   109   53  178 1    
   110   54   55 am   BACKBONE|DICT|INTERRES
   111   54  179 1    
   112   55   56 2    
   113   55   57 1    
   114   57   58 1    
   115   57   59 1    
   116   57  180 1    
   117   58  181 1    
   118   58  182 1    
   119   58  183 1    
   120   59   60 am   BACKBONE|DICT|INTERRES
   121   59  184 1    
   122   60   61 2    
   123   60   62 1    
   124   62   63 1    
   125   62   64 1    
   126   62  185 1    
   127   63  186 1    
   128   63  187 1    
   129   63  188 1    
   130   64   65 am   BACKBONE|DICT|INTERRES
   131   64  189 1    
   132   65   66 2    
   133   67   68 2    
   134   67   69 am   BACKBONE|DICT|INTERRES
   135   69   70 1    
   136   69  190 1    
   137   70   71 1    
   138   70   72 1    
   139   70  191 1    
   140   71  192 1    
   141   71  193 1    
   142   71  194 1    
   143   72   73 2    
   144   72   74 am   BACKBONE|DICT|INTERRES
   145   74   75 1    
   146   74  195 1    
   147   75   76 1    
   148   75   77 1    
   149   75  196 1    
   150   76  197 1    
   151   76  198 1    
   152   76  199 1    
   153   77   78 2    
   154   77   79 am   BACKBONE|DICT|INTERRES
   155   79   80 1    
   156   79  200 1    
   157   80   81 1    
   158   80   82 1    
   159   80  201 1    
   160   81  202 1    
   161   81  203 1    
   162   81  204 1    
   163   82   83 2    
   164   82   84 am   BACKBONE|DICT|INTERRES
   165   84   85 1    
   166   84  205 1    
   167   85   86 1    
   168   85   87 1    
   169   85  206 1    
   170   86  207 1    
   171   86  208 1    
   172   86  209 1    
   173   87   88 2    
   174   87   89 am   BACKBONE|DICT|INTERRES
   175   89   90 1    
   176   89  210 1    
   177   90   91 1    
   178   90   92 1    
   179   90  211 1    
   180   91  212 1    
   181   91  213 1    
   182   91  214 1    
   183   92   93 2    
   184   92   94 am   BACKBONE|DICT|INTERRES
   185   94   95 1    
   186   94  215 1    
   187   95   96 1    
   188   95   97 1    
   189   95  216 1    
   190   96  217 1    
   191   96  218 1    
   192   96  219 1    
   193   97   98 2    
   194   97   99 am   BACKBONE|DICT|INTERRES
   195   99  100 1    
   196   99  220 1    
   197  100  101 1    
   198  100  102 1    
   199  100  221 1    
   200  101  222 1    
   201  101  223 1    
   202  101  224 1    
   203  102  103 2    
   204  102  104 am   BACKBONE|DICT|INTERRES
   205  104  105 1    
   206  104  225 1    
   207  105  106 1    
   208  105  107 1    
   209  105  226 1    
   210  106  227 1    
   211  106  228 1    
   212  106  229 1    
   213  107  108 2    
   214  107  109 am   BACKBONE|DICT|INTERRES
   215  109  110 1    
   216  109  230 1    
   217  110  111 1    
   218  110  112 1    
   219  110  231 1    
   220  111  232 1    
   221  111  233 1    
   222  111  234 1    
   223  112  113 2    
   224  112  114 am   BACKBONE|DICT|INTERRES
   225  114  115 1    
   226  114  235 1    
   227  115  116 1    
   228  115  117 1    
   229  115  236 1    
   230  116  237 1    
   231  116  238 1    
   232  116  239 1    
   233  117  118 2    
   234  117  119 am   BACKBONE|DICT|INTERRES
   235  119  120 1    
   236  119  240 1    
   237  120  121 1    
   238  120  124 1    
   239  120  241 1    
   240  121  122 am   BACKBONE|DICT|INTERRES
   241  121  123 2    
   242  122  242 1    
   243  122  243 1    
   244  124  125 1    
   245  124  244 1    
   246  124  245 1    
   247  125  126 1    
   248  126  246 1    
   249  126  247 1    
@<TRIPOS>SUBSTRUCTURE
     1 UNK         1 GROUP             0       ****    0 ROOT    
