@<TRIPOS>MOLECULE
3R540
247   249    1
SMALL
USER_CHARGES


@<TRIPOS>ATOM
      1 CA          8.4945  -10.6436  -45.9837 C.3       0 UNK        -0.1800 
      2 C           7.1412  -11.3386  -46.0405 C.2       0 UNK         0.5000 
      3 O           6.2496  -11.0075  -45.2585 O.2       0 UNK        -0.5000 
      4 N           6.9885  -12.3044  -46.9550 N.am      1 UNK        -0.5000 
      5 CA          5.7405  -13.0307  -47.2026 C.3       1 UNK         0.1400 
      6 C6          6.0009  -14.3239  -48.0115 C.3       23 UNK        -0.0398 
      7 S7          4.6044  -15.5025  -47.9730 S.3       23 UNK        -0.2404 
      8 C8          4.1617  -15.5427  -49.7359 C.3       23 UNK        -0.0205 
      9 C9          3.1455  -16.6314  -50.0414 C.ar      23 UNK        -0.0193 
     10 C10         1.7997  -16.3089  -50.2416 C.ar      23 UNK        -0.1150 
     11 C11         0.8679  -17.3048  -50.5664 C.ar      23 UNK        -0.0193 
     12 C12         1.3084  -18.6238  -50.6993 C.ar      23 UNK        -0.1150 
     13 C13         2.6442  -18.9658  -50.4750 C.ar      23 UNK        -0.0193 
     14 C14         3.5597  -17.9622  -50.1494 C.ar      23 UNK        -0.1150 
     15 C15         3.0971  -20.4151  -50.5980 C.3       23 UNK        -0.0205 
     16 S16         2.8455  -21.3528  -49.0541 S.3       23 UNK        -0.2404 
     17 C17         1.0268  -21.4506  -48.9994 C.3       23 UNK        -0.0398 
     18 CA          0.4897  -22.5404  -48.0440 C.3       11 UNK         0.1400 
     19 N           0.7487  -22.2472  -46.6294 N.am      11 UNK        -0.5000 
     20 C           0.4534  -23.0750  -45.6152 C.2       10 UNK         0.5000 
     21 O           0.0034  -24.2108  -45.7685 O.2       10 UNK        -0.5000 
     22 CA          0.6278  -22.5267  -44.1876 C.3       10 UNK         0.1400 
     23 CB          2.0950  -22.5998  -43.7399 C.3       10 UNK        -0.1800 
     24 N           0.1253  -21.1592  -44.0477 N.am      10 UNK        -0.5000 
     25 C          -1.1607  -20.8060  -44.1907 C.2       9 UNK         0.5000 
     26 O          -2.0676  -21.6113  -44.3988 O.2       9 UNK        -0.5000 
     27 CA         -1.4860  -19.3006  -44.1434 C.3       9 UNK         0.1400 
     28 CB         -1.5924  -18.8030  -42.6949 C.3       9 UNK        -0.1800 
     29 N          -0.5106  -18.4921  -44.8746 N.am      9 UNK        -0.5000 
     30 C          -0.2966  -18.5777  -46.1957 C.2       8 UNK         0.5000 
     31 O          -0.9467  -19.3014  -46.9491 O.2       8 UNK        -0.5000 
     32 CA          0.8757  -17.7603  -46.7607 C.3       8 UNK         0.1400 
     33 CB          0.4432  -16.3184  -47.0469 C.3       8 UNK        -0.1800 
     34 N           2.0349  -17.7640  -45.8681 N.am      8 UNK        -0.5000 
     35 C           2.7621  -18.8557  -45.5916 C.2       7 UNK         0.5000 
     36 O           2.5344  -19.9655  -46.0692 O.2       7 UNK        -0.5000 
     37 CA          3.8886  -18.6961  -44.5549 C.3       7 UNK         0.1400 
     38 CB          5.1197  -18.0178  -45.1734 C.3       7 UNK        -0.1800 
     39 N           3.4572  -17.9415  -43.3787 N.am      7 UNK        -0.5000 
     40 C           2.5163  -18.3503  -42.5154 C.2       6 UNK         0.5000 
     41 O           1.9591  -19.4447  -42.5806 O.2       6 UNK        -0.5000 
     42 CA          2.0947  -17.3494  -41.4227 C.3       6 UNK         0.1400 
     43 CB          2.9493  -17.5375  -40.1606 C.3       6 UNK        -0.1800 
     44 N           2.1749  -15.9529  -41.8599 N.am      6 UNK        -0.5000 
     45 C           1.4499  -15.4234  -42.8542 C.2       5 UNK         0.5000 
     46 O           0.6209  -16.0593  -43.5102 O.2       5 UNK        -0.5000 
     47 CA          1.7753  -13.9635  -43.2129 C.3       5 UNK         0.1400 
     48 CB          2.9933  -13.9120  -44.1515 C.3       5 UNK        -0.1800 
     49 N           0.6451  -13.2772  -43.8413 N.am      5 UNK        -0.5000 
     50 C          -0.4437  -12.8590  -43.1782 C.2       4 UNK         0.5000 
     51 O          -0.6003  -13.0336  -41.9682 O.2       4 UNK        -0.5000 
     52 CA         -1.5252  -12.0786  -43.9569 C.3       4 UNK         0.1400 
     53 CB         -1.5915  -10.6226  -43.4661 C.3       4 UNK        -0.1800 
     54 N          -1.3104  -12.0614  -45.4036 N.am      4 UNK        -0.5000 
     55 C          -1.7796  -12.9762  -46.2612 C.2       3 UNK         0.5000 
     56 O          -2.4863  -13.9272  -45.9267 O.2       3 UNK        -0.5000 
     57 CA         -1.3936  -12.8062  -47.7478 C.3       3 UNK         0.1400 
     58 CB         -2.5333  -12.1204  -48.5175 C.3       3 UNK        -0.1800 
     59 N          -0.1455  -12.0723  -48.0047 N.am      3 UNK        -0.5000 
     60 C           1.0531  -12.3963  -47.5060 C.2       2 UNK         0.5000 
     61 O           1.2204  -13.2977  -46.6830 O.2       2 UNK        -0.5000 
     62 CA          2.2606  -11.5642  -47.9593 C.3       2 UNK         0.1400 
     63 CB          2.2077  -10.1398  -47.3769 C.3       2 UNK        -0.1800 
     64 N           3.4459  -12.2576  -47.4753 N.am      2 UNK        -0.5000 
     65 C           4.7042  -12.1141  -47.8897 C.2       1 UNK         0.5000 
     66 O           5.0565  -11.3279  -48.7728 O.2       1 UNK        -0.5000 
     67 C          -1.0119  -22.7696  -48.3097 C.2       11 UNK         0.5000 
     68 O          -1.3627  -23.7541  -48.9577 O.2       11 UNK        -0.5000 
     69 N          -1.8700  -21.8830  -47.7842 N.am      12 UNK        -0.5000 
     70 CA         -3.3259  -21.9728  -47.8972 C.3       12 UNK         0.1400 
     71 CB         -3.9738  -20.7088  -47.3139 C.3       12 UNK        -0.1800 
     72 C          -3.9046  -23.2380  -47.2423 C.2       12 UNK         0.5000 
     73 O          -4.7769  -23.8759  -47.8325 O.2       12 UNK        -0.5000 
     74 N          -3.3848  -23.5966  -46.0604 N.am      13 UNK        -0.5000 
     75 CA         -3.7256  -24.8217  -45.3393 C.3       13 UNK         0.1400 
     76 CB         -3.1048  -24.7872  -43.9347 C.3       13 UNK        -0.1800 
     77 C          -3.2991  -26.0889  -46.1011 C.2       13 UNK         0.5000 
     78 O          -4.1057  -27.0089  -46.2384 O.2       13 UNK        -0.5000 
     79 N          -2.0634  -26.0988  -46.6228 N.am      14 UNK        -0.5000 
     80 CA         -1.5113  -27.1848  -47.4389 C.3       14 UNK         0.1400 
     81 CB         -0.0183  -26.9274  -47.6920 C.3       14 UNK        -0.1800 
     82 C          -2.2631  -27.3816  -48.7696 C.2       14 UNK         0.5000 
     83 O          -2.4621  -28.5191  -49.1968 O.2       14 UNK        -0.5000 
     84 N          -2.7000  -26.2712  -49.3763 N.am      15 UNK        -0.5000 
     85 CA         -3.5203  -26.2308  -50.5871 C.3       15 UNK         0.1400 
     86 CB         -3.3549  -24.8515  -51.2384 C.3       15 UNK        -0.1800 
     87 C          -5.0144  -26.5277  -50.3400 C.2       15 UNK         0.5000 
     88 O          -5.7789  -26.5667  -51.3057 O.2       15 UNK        -0.5000 
     89 N          -5.4096  -26.7024  -49.0687 N.am      16 UNK        -0.5000 
     90 CA         -6.7671  -26.9647  -48.5810 C.3       16 UNK         0.1400 
     91 CB         -7.2309  -28.3730  -49.0068 C.3       16 UNK        -0.1800 
     92 C          -7.7681  -25.8559  -48.9676 C.2       16 UNK         0.5000 
     93 O          -8.9030  -26.1506  -49.3467 O.2       16 UNK        -0.5000 
     94 N          -7.3099  -24.5972  -48.8979 N.am      17 UNK        -0.5000 
     95 CA         -7.9895  -23.3351  -49.2215 C.3       17 UNK         0.1400 
     96 CB         -9.2323  -23.1271  -48.3365 C.3       17 UNK        -0.1800 
     97 C          -8.3346  -23.1314  -50.7128 C.2       17 UNK         0.5000 
     98 O          -8.2587  -22.0018  -51.1964 O.2       17 UNK        -0.5000 
     99 N          -8.6980  -24.2089  -51.4179 N.am      18 UNK        -0.5000 
    100 CA        -9.1821  -24.2240  -52.8002 C.3       18 UNK         0.1400 
    101 CB        -9.6160  -25.6555  -53.1507 C.3       18 UNK        -0.1800 
    102 C         -8.1814  -23.6985  -53.8474 C.2       18 UNK         0.5000 
    103 O         -8.6106  -23.1747  -54.8764 O.2       18 UNK        -0.5000 
    104 N         -6.8800  -23.8416  -53.5715 N.am      19 UNK        -0.5000 
    105 CA        -5.7842  -23.4033  -54.4377 C.3       19 UNK         0.1400 
    106 CB        -5.1385  -24.6380  -55.0941 C.3       19 UNK        -0.1800 
    107 C         -4.7766  -22.5378  -53.6577 C.2       19 UNK         0.5000 
    108 O         -3.5792  -22.5832  -53.9412 O.2       19 UNK        -0.5000 
    109 N         -5.2713  -21.7771  -52.6693 N.am      20 UNK        -0.5000 
    110 CA        -4.4673  -20.9586  -51.7560 C.3       20 UNK         0.1400 
    111 CB        -5.3669  -20.4414  -50.6246 C.3       20 UNK        -0.1800 
    112 C         -3.7279  -19.7768  -52.4093 C.2       20 UNK         0.5000 
    113 O         -2.7624  -19.2900  -51.8231 O.2       20 UNK        -0.5000 
    114 N         -4.2081  -19.3128  -53.5729 N.am      21 UNK        -0.5000 
    115 CA        -3.7073  -18.2068  -54.4064 C.3       21 UNK         0.1400 
    116 CB        -2.2513  -18.4466  -54.8502 C.3       21 UNK        -0.1800 
    117 C         -3.8778  -16.8022  -53.7897 C.2       21 UNK         0.5000 
    118 O         -4.2773  -15.8787  -54.4997 O.2       21 UNK        -0.5000 
    119 N         -3.6057  -16.6674  -52.4879 N.am      22 UNK        -0.5000 
    120 CA        -3.8105  -15.4469  -51.6903 C.3       22 UNK         0.1400 
    121 C         -5.2996  -15.1623  -51.3269 C.2       22 UNK         0.5000 
    122 N         -6.2368  -16.0712  -51.5693 N.am      22 UNK        -0.7600 
    123 O         -5.6124  -14.0883  -50.8207 O.2       22 UNK        -0.5000 
    124 C124       -2.9293  -15.4501  -50.4149 C.3       23 UNK        -0.0398 
    125 S125       -1.1447  -15.2914  -50.7671 S.3       23 UNK        -0.2404 
    126 C126       -0.6257  -17.0399  -50.7515 C.3       23 UNK        -0.0205 
    127 H127        8.9403  -10.7701  -44.9971 H         1 UNK         0.0600 
    128 H128        8.3759   -9.5764  -46.1712 H         1 UNK         0.0600 
    129 H129        9.1879  -11.0438  -46.7239 H         1 UNK         0.0600 
    130 H130        7.7484  -12.5063  -47.5888 H         1 UNK         0.3000 
    131 H131        5.3458  -13.3237  -46.2267 H         1 UNK         0.0600 
    132 H132        6.8583  -14.8505  -47.5899 H         1 UNK         0.0800 
    133 H133        6.2780  -14.0876  -49.0404 H         1 UNK         0.0800 
    134 H134        3.7785  -14.5649  -50.0323 H         1 UNK         0.0800 
    135 H135        5.0576  -15.7182  -50.3334 H         1 UNK         0.0800 
    136 H136        1.4897  -15.2802  -50.1335 H         1 UNK         0.1150 
    137 H137        0.5961  -19.3939  -50.9601 H         1 UNK         0.1150 
    138 H138        4.5976  -18.2144  -49.9829 H         1 UNK         0.1150 
    139 H139        2.5707  -20.9056  -51.4180 H         1 UNK         0.0800 
    140 H140        4.1562  -20.4506  -50.8574 H         1 UNK         0.0800 
    141 H141        0.6799  -21.6406  -50.0171 H         1 UNK         0.0800 
    142 H142        0.6355  -20.4738  -48.7155 H         1 UNK         0.0800 
    143 H143        1.0008  -23.4766  -48.2781 H         1 UNK         0.0600 
    144 H144        1.1801  -21.3505  -46.4226 H         1 UNK         0.3000 
    145 H145        0.0435  -23.1616  -43.5184 H         1 UNK         0.0600 
    146 H146        2.4735  -23.6201  -43.8116 H         1 UNK         0.0600 
    147 H147        2.7387  -21.9682  -44.3515 H         1 UNK         0.0600 
    148 H148        2.2059  -22.2838  -42.7026 H         1 UNK         0.0600 
    149 H149        0.8092  -20.4447  -43.8178 H         1 UNK         0.3000 
    150 H150       -2.4568  -19.1551  -44.6213 H         1 UNK         0.0600 
    151 H151       -1.8338  -17.7403  -42.6581 H         1 UNK         0.0600 
    152 H152       -0.6637  -18.9551  -42.1463 H         1 UNK         0.0600 
    153 H153       -2.3787  -19.3358  -42.1589 H         1 UNK         0.0600 
    154 H154        0.0352  -17.8258  -44.3377 H         1 UNK         0.3000 
    155 H155        1.1792  -18.2173  -47.7046 H         1 UNK         0.0600 
    156 H156       -0.4001  -16.2914  -47.7375 H         1 UNK         0.0600 
    157 H157        1.2563  -15.7573  -47.5055 H         1 UNK         0.0600 
    158 H158        0.1409  -15.7938  -46.1403 H         1 UNK         0.0600 
    159 H159        2.2467  -16.8977  -45.3976 H         1 UNK         0.3000 
    160 H160        4.1804  -19.6966  -44.2281 H         1 UNK         0.0600 
    161 H161        5.4251  -18.5201  -46.0925 H         1 UNK         0.0600 
    162 H162        5.9683  -18.0456  -44.4899 H         1 UNK         0.0600 
    163 H163        4.9230  -16.9741  -45.4181 H         1 UNK         0.0600 
    164 H164        3.8683  -17.0304  -43.2438 H         1 UNK         0.3000 
    165 H165        1.0550  -17.5587  -41.1646 H         1 UNK         0.0600 
    166 H166        2.6076  -16.8906  -39.3524 H         1 UNK         0.0600 
    167 H167        2.8901  -18.5651  -39.7994 H         1 UNK         0.0600 
    168 H168        4.0007  -17.3156  -40.3482 H         1 UNK         0.0600 
    169 H169        2.8405  -15.3693  -41.3738 H         1 UNK         0.3000 
    170 H170        2.0284  -13.4276  -42.2956 H         1 UNK         0.0600 
    171 H171        3.2090  -12.8901  -44.4641 H         1 UNK         0.0600 
    172 H172        3.8870  -14.2914  -43.6550 H         1 UNK         0.0600 
    173 H173        2.8403  -14.5161  -45.0466 H         1 UNK         0.0600 
    174 H174        0.6852  -13.1806  -44.8516 H         1 UNK         0.3000 
    175 H175       -2.4850  -12.5510  -43.7376 H         1 UNK         0.0600 
    176 H176       -0.6533  -10.0953  -43.6433 H         1 UNK         0.0600 
    177 H177       -2.3866  -10.0725  -43.9699 H         1 UNK         0.0600 
    178 H178       -1.7967  -10.5769  -42.3958 H         1 UNK         0.0600 
    179 H179       -0.7313  -11.3192  -45.7671 H         1 UNK         0.3000 
    180 H180       -1.2628  -13.8117  -48.1508 H         1 UNK         0.0600 
    181 H181       -2.3448  -12.1278  -49.5913 H         1 UNK         0.0600 
    182 H182       -2.6610  -11.0835  -48.2044 H         1 UNK         0.0600 
    183 H183       -3.4838  -12.6299  -48.3528 H         1 UNK         0.0600 
    184 H184       -0.2089  -11.3053  -48.6582 H         1 UNK         0.3000 
    185 H185        2.2767  -11.5303  -49.0503 H         1 UNK         0.0600 
    186 H186        2.1801  -10.1540  -46.2864 H         1 UNK         0.0600 
    187 H187        3.0764   -9.5551  -47.6797 H         1 UNK         0.0600 
    188 H188        1.3236   -9.6034  -47.7228 H         1 UNK         0.0600 
    189 H189        3.2161  -12.9793  -46.8015 H         1 UNK         0.3000 
    190 H190       -1.5025  -21.0668  -47.3004 H         1 UNK         0.3000 
    191 H191       -3.5648  -22.0192  -48.9598 H         1 UNK         0.0600 
    192 H192       -3.7667  -20.6036  -46.2492 H         1 UNK         0.0600 
    193 H193       -5.0573  -20.7331  -47.4360 H         1 UNK         0.0600 
    194 H194       -3.6081  -19.8114  -47.8133 H         1 UNK         0.0600 
    195 H195       -2.7120  -22.9781  -45.6157 H         1 UNK         0.3000 
    196 H196       -4.8115  -24.8507  -45.2280 H         1 UNK         0.0600 
    197 H197       -3.3621  -25.6849  -43.3715 H         1 UNK         0.0600 
    198 H198       -3.4672  -23.9307  -43.3659 H         1 UNK         0.0600 
    199 H199       -2.0172  -24.7240  -43.9745 H         1 UNK         0.0600 
    200 H200       -1.4461  -25.3120  -46.4392 H         1 UNK         0.3000 
    201 H201       -1.6044  -28.1103  -46.8672 H         1 UNK         0.0600 
    202 H202        0.5355  -26.8691  -46.7548 H         1 UNK         0.0600 
    203 H203        0.1430  -25.9946  -48.2332 H         1 UNK         0.0600 
    204 H204        0.4234  -27.7314  -48.2820 H         1 UNK         0.0600 
    205 H205       -2.4219  -25.3708  -48.9950 H         1 UNK         0.3000 
    206 H206       -3.1496  -26.9841  -51.2850 H         1 UNK         0.0600 
    207 H207       -3.8838  -24.8125  -52.1882 H         1 UNK         0.0600 
    208 H208       -3.7498  -24.0568  -50.6044 H         1 UNK         0.0600 
    209 H209       -2.3077  -24.6300  -51.4448 H         1 UNK         0.0600 
    210 H210       -4.7055  -26.6225  -48.3458 H         1 UNK         0.3000 
    211 H211       -6.7074  -26.9519  -47.4919 H         1 UNK         0.0600 
    212 H212       -7.3615  -28.4476  -50.0869 H         1 UNK         0.0600 
    213 H213       -8.1848  -28.6277  -48.5435 H         1 UNK         0.0600 
    214 H214       -6.5107  -29.1326  -48.7027 H         1 UNK         0.0600 
    215 H215       -6.3487  -24.4766  -48.5807 H         1 UNK         0.3000 
    216 H216       -7.2779  -22.5537  -48.9563 H         1 UNK         0.0600 
    217 H217       -9.6611  -22.1371  -48.4970 H         1 UNK         0.0600 
    218 H218       -8.9801  -23.2040  -47.2789 H         1 UNK         0.0600 
    219 H219      -10.0137  -23.8568  -48.5500 H         1 UNK         0.0600 
    220 H220       -8.7534  -25.0864  -50.9087 H         1 UNK         0.3000 
    221 H221      -10.0625  -23.5798  -52.8433 H         1 UNK         0.0600 
    222 H222       -8.7808  -26.3540  -53.0823 H         1 UNK         0.0600 
    223 H223      -10.4009  -26.0054  -52.4798 H         1 UNK         0.0600 
    224 H224      -10.0093  -25.7098  -54.1668 H         1 UNK         0.0600 
    225 H225       -6.6199  -24.2932  -52.7046 H         1 UNK         0.3000 
    226 H226       -6.1629  -22.7619  -55.2358 H         1 UNK         0.0600 
    227 H227       -5.8690  -25.1944  -55.6816 H         1 UNK         0.0600 
    228 H228       -4.3329  -24.3520  -55.7713 H         1 UNK         0.0600 
    229 H229       -4.7221  -25.3192  -54.3519 H         1 UNK         0.0600 
    230 H230       -6.2690  -21.7961  -52.4983 H         1 UNK         0.3000 
    231 H231       -3.7011  -21.6023  -51.3198 H         1 UNK         0.0600 
    232 H232       -6.2315  -19.9005  -51.0111 H         1 UNK         0.0600 
    233 H233       -5.7299  -21.2633  -50.0113 H         1 UNK         0.0600 
    234 H234       -4.8260  -19.7617  -49.9655 H         1 UNK         0.0600 
    235 H235       -5.0299  -19.7752  -53.9348 H         1 UNK         0.3000 
    236 H236       -4.3236  -18.2235  -55.3067 H         1 UNK         0.0600 
    237 H237       -1.5550  -18.4121  -54.0122 H         1 UNK         0.0600 
    238 H238       -2.1427  -19.4163  -55.3361 H         1 UNK         0.0600 
    239 H239       -1.9340  -17.6866  -55.5652 H         1 UNK         0.0600 
    240 H240       -3.2623  -17.4880  -51.9974 H         1 UNK         0.3000 
    241 H241       -3.4971  -14.5989  -52.3023 H         1 UNK         0.0600 
    242 H242       -7.1955  -15.8683  -51.3332 H         1 UNK         0.3800 
    243 H243       -6.0002  -16.9517  -51.9952 H         1 UNK         0.3800 
    244 H244       -3.1882  -14.6089  -49.7720 H         1 UNK         0.0800 
    245 H245       -3.1203  -16.3425  -49.8171 H         1 UNK         0.0800 
    246 H246       -0.9364  -17.4833  -51.6970 H         1 UNK         0.0800 
    247 H247       -1.1584  -17.5710  -49.9613 H         1 UNK         0.0800 
@<TRIPOS>BOND
     1    1    2 1    
     2    1  127 1    
     3    1  128 1    
     4    1  129 1    
     5    2    3 2    
     6    2    4 am   BACKBONE|DICT|INTERRES
     7    4    5 1    
     8    4  130 1    
     9    5    6 1    
    10    5   65 1    
    11    5  131 1    
    12    6    7 1    
    13    6  132 1    
    14    6  133 1    
    15    7    8 1    
    16    8    9 1    
    17    8  134 1    
    18    8  135 1    
    19    9   10 ar   
    20    9   14 ar   
    21   10   11 ar   
    22   10  136 1    
    23   11   12 ar   
    24   11  126 1    
    25   12   13 ar   
    26   12  137 1    
    27   13   14 ar   
    28   13   15 1    
    29   14  138 1    
    30   15   16 1    
    31   15  139 1    
    32   15  140 1    
    33   16   17 1    
    34   17   18 1    
    35   17  141 1    
    36   17  142 1    
    37   18   19 1    
    38   18   67 1    
    39   18  143 1    
    40   19   20 am   BACKBONE|DICT|INTERRES
    41   19  144 1    
    42   20   21 2    
    43   20   22 1    
    44   22   23 1    
    45   22   24 1    
    46   22  145 1    
    47   23  146 1    
    48   23  147 1    
    49   23  148 1    
    50   24   25 am   BACKBONE|DICT|INTERRES
    51   24  149 1    
    52   25   26 2    
    53   25   27 1    
    54   27   28 1    
    55   27   29 1    
    56   27  150 1    
    57   28  151 1    
    58   28  152 1    
    59   28  153 1    
    60   29   30 am   BACKBONE|DICT|INTERRES
    61   29  154 1    
    62   30   31 2    
    63   30   32 1    
    64   32   33 1    
    65   32   34 1    
    66   32  155 1    
    67   33  156 1    
    68   33  157 1    
    69   33  158 1    
    70   34   35 am   BACKBONE|DICT|INTERRES
    71   34  159 1    
    72   35   36 2    
    73   35   37 1    
    74   37   38 1    
    75   37   39 1    
    76   37  160 1    
    77   38  161 1    
    78   38  162 1    
    79   38  163 1    
    80   39   40 am   BACKBONE|DICT|INTERRES
    81   39  164 1    
    82   40   41 2    
    83   40   42 1    
    84   42   43 1    
    85   42   44 1    
    86   42  165 1    
    87   43  166 1    
    88   43  167 1    
    89   43  168 1    
    90   44   45 am   BACKBONE|DICT|INTERRES
    91   44  169 1    
    92   45   46 2    
    93   45   47 1    
    94   47   48 1    
    95   47   49 1    
    96   47  170 1    
    97   48  171 1    
    98   48  172 1    
    99   48  173 1    
   100   49   50 am   BACKBONE|DICT|INTERRES
   101   49  174 1    
   102   50   51 2    
   103   50   52 1    
   104   52   53 1    
   105   52   54 1    
   106   52  175 1    
   107   53  176 1    
   108   53  177 1    
   109   53  178 1    
   110   54   55 am   BACKBONE|DICT|INTERRES
   111   54  179 1    
   112   55   56 2    
   113   55   57 1    
   114   57   58 1    
   115   57   59 1    
   116   57  180 1    
   117   58  181 1    
   118   58  182 1    
   119   58  183 1    
   120   59   60 am   BACKBONE|DICT|INTERRES
   121   59  184 1    
   122   60   61 2    
   123   60   62 1    
   124   62   63 1    
   125   62   64 1    
   126   62  185 1    
   127   63  186 1    
   128   63  187 1    
   129   63  188 1    
   130   64   65 am   BACKBONE|DICT|INTERRES
   131   64  189 1    
   132   65   66 2    
   133   67   68 2    
   134   67   69 am   BACKBONE|DICT|INTERRES
   135   69   70 1    
   136   69  190 1    
   137   70   71 1    
   138   70   72 1    
   139   70  191 1    
   140   71  192 1    
   141   71  193 1    
   142   71  194 1    
   143   72   73 2    
   144   72   74 am   BACKBONE|DICT|INTERRES
   145   74   75 1    
   146   74  195 1    
   147   75   76 1    
   148   75   77 1    
   149   75  196 1    
   150   76  197 1    
   151   76  198 1    
   152   76  199 1    
   153   77   78 2    
   154   77   79 am   BACKBONE|DICT|INTERRES
   155   79   80 1    
   156   79  200 1    
   157   80   81 1    
   158   80   82 1    
   159   80  201 1    
   160   81  202 1    
   161   81  203 1    
   162   81  204 1    
   163   82   83 2    
   164   82   84 am   BACKBONE|DICT|INTERRES
   165   84   85 1    
   166   84  205 1    
   167   85   86 1    
   168   85   87 1    
   169   85  206 1    
   170   86  207 1    
   171   86  208 1    
   172   86  209 1    
   173   87   88 2    
   174   87   89 am   BACKBONE|DICT|INTERRES
   175   89   90 1    
   176   89  210 1    
   177   90   91 1    
   178   90   92 1    
   179   90  211 1    
   180   91  212 1    
   181   91  213 1    
   182   91  214 1    
   183   92   93 2    
   184   92   94 am   BACKBONE|DICT|INTERRES
   185   94   95 1    
   186   94  215 1    
   187   95   96 1    
   188   95   97 1    
   189   95  216 1    
   190   96  217 1    
   191   96  218 1    
   192   96  219 1    
   193   97   98 2    
   194   97   99 am   BACKBONE|DICT|INTERRES
   195   99  100 1    
   196   99  220 1    
   197  100  101 1    
   198  100  102 1    
   199  100  221 1    
   200  101  222 1    
   201  101  223 1    
   202  101  224 1    
   203  102  103 2    
   204  102  104 am   BACKBONE|DICT|INTERRES
   205  104  105 1    
   206  104  225 1    
   207  105  106 1    
   208  105  107 1    
   209  105  226 1    
   210  106  227 1    
   211  106  228 1    
   212  106  229 1    
   213  107  108 2    
   214  107  109 am   BACKBONE|DICT|INTERRES
   215  109  110 1    
   216  109  230 1    
   217  110  111 1    
   218  110  112 1    
   219  110  231 1    
   220  111  232 1    
   221  111  233 1    
   222  111  234 1    
   223  112  113 2    
   224  112  114 am   BACKBONE|DICT|INTERRES
   225  114  115 1    
   226  114  235 1    
   227  115  116 1    
   228  115  117 1    
   229  115  236 1    
   230  116  237 1    
   231  116  238 1    
   232  116  239 1    
   233  117  118 2    
   234  117  119 am   BACKBONE|DICT|INTERRES
   235  119  120 1    
   236  119  240 1    
   237  120  121 1    
   238  120  124 1    
   239  120  241 1    
   240  121  122 am   BACKBONE|DICT|INTERRES
   241  121  123 2    
   242  122  242 1    
   243  122  243 1    
   244  124  125 1    
   245  124  244 1    
   246  124  245 1    
   247  125  126 1    
   248  126  246 1    
   249  126  247 1    
@<TRIPOS>SUBSTRUCTURE
     1 UNK         1 GROUP             0       ****    0 ROOT    
