@<TRIPOS>MOLECULE
3R540
247   249    1
SMALL
USER_CHARGES


@<TRIPOS>ATOM
      1 CA          6.4139  -13.4465  -43.6631 C.3       0 UNK        -0.1800 
      2 C           5.1443  -13.3679  -44.4956 C.2       0 UNK         0.5000 
      3 O           4.0451  -13.4232  -43.9433 O.2       0 UNK        -0.5000 
      4 N           5.2797  -13.2515  -45.8239 N.am      1 UNK        -0.5000 
      5 CA          4.1487  -13.1426  -46.7556 C.3       1 UNK         0.1400 
      6 C6          4.5352  -13.4375  -48.2251 C.3       23 UNK        -0.0398 
      7 S7          5.1932  -15.1222  -48.4475 S.3       23 UNK        -0.2404 
      8 C8          5.0248  -15.3474  -50.2465 C.3       23 UNK        -0.0205 
      9 C9          3.7472  -16.0827  -50.6326 C.ar      23 UNK        -0.0193 
     10 C10         2.6133  -15.3791  -51.0516 C.ar      23 UNK        -0.1150 
     11 C11         1.4696  -16.0634  -51.4811 C.ar      23 UNK        -0.0193 
     12 C12         1.4614  -17.4628  -51.4750 C.ar      23 UNK        -0.1150 
     13 C13         2.5862  -18.1772  -51.0535 C.ar      23 UNK        -0.0193 
     14 C14         3.7228  -17.4806  -50.6313 C.ar      23 UNK        -0.1150 
     15 C15         2.6038  -19.6981  -51.1031 C.3       23 UNK        -0.0205 
     16 S16         2.2373  -20.4403  -49.4825 S.3       23 UNK        -0.2404 
     17 C17         0.4850  -20.9168  -49.6606 C.3       23 UNK        -0.0398 
     18 CA          0.0795  -21.9827  -48.6116 C.3       11 UNK         0.1400 
     19 N           0.1653  -21.4733  -47.2414 N.am      11 UNK        -0.5000 
     20 C           0.0869  -22.2120  -46.1268 C.2       10 UNK         0.5000 
     21 O          -0.2295  -23.4010  -46.1149 O.2       10 UNK        -0.5000 
     22 CA          0.4150  -21.5011  -44.8044 C.3       10 UNK         0.1400 
     23 CB          1.9115  -21.1559  -44.7261 C.3       10 UNK        -0.1800 
     24 N          -0.3673  -20.2761  -44.6881 N.am      10 UNK        -0.5000 
     25 C          -1.3997  -20.0972  -43.8545 C.2       9 UNK         0.5000 
     26 O          -1.7289  -20.9071  -42.9876 O.2       9 UNK        -0.5000 
     27 CA         -2.2291  -18.8055  -44.0231 C.3       9 UNK         0.1400 
     28 CB         -1.8466  -17.7801  -42.9472 C.3       9 UNK        -0.1800 
     29 N          -2.1095  -18.1863  -45.3475 N.am      9 UNK        -0.5000 
     30 C          -2.4959  -18.7692  -46.4924 C.2       8 UNK         0.5000 
     31 O          -3.0102  -19.8853  -46.5452 O.2       8 UNK        -0.5000 
     32 CA         -2.1999  -18.0271  -47.8106 C.3       8 UNK         0.1400 
     33 CB         -3.4052  -17.1661  -48.2151 C.3       8 UNK        -0.1800 
     34 N          -0.9881  -17.2003  -47.8024 N.am      8 UNK        -0.5000 
     35 C           0.2417  -17.6015  -47.4472 C.2       7 UNK         0.5000 
     36 O           0.4775  -18.7287  -47.0106 O.2       7 UNK        -0.5000 
     37 CA          1.3918  -16.5851  -47.5740 C.3       7 UNK         0.1400 
     38 CB          0.9162  -15.1422  -47.8275 C.3       7 UNK        -0.1800 
     39 N           2.1990  -16.6145  -46.3582 N.am      7 UNK        -0.5000 
     40 C           3.2642  -17.4041  -46.1578 C.2       6 UNK         0.5000 
     41 O           3.7377  -18.1508  -47.0136 O.2       6 UNK        -0.5000 
     42 CA          3.9297  -17.3541  -44.7691 C.3       6 UNK         0.1400 
     43 CB          5.4063  -16.9425  -44.8815 C.3       6 UNK        -0.1800 
     44 N           3.2387  -16.4438  -43.8499 N.am      6 UNK        -0.5000 
     45 C           2.3215  -16.8404  -42.9584 C.2       5 UNK         0.5000 
     46 O           1.9874  -18.0123  -42.7874 O.2       5 UNK        -0.5000 
     47 CA          1.6484  -15.7370  -42.1266 C.3       5 UNK         0.1400 
     48 CB          2.5472  -15.3248  -40.9507 C.3       5 UNK        -0.1800 
     49 N           1.3012  -14.5430  -42.8952 N.am      5 UNK        -0.5000 
     50 C           0.4567  -14.4740  -43.9321 C.2       4 UNK         0.5000 
     51 O          -0.0544  -15.4620  -44.4602 O.2       4 UNK        -0.5000 
     52 CA          0.1452  -13.0773  -44.5094 C.3       4 UNK         0.1400 
     53 CB         -1.3427  -12.7163  -44.3379 C.3       4 UNK        -0.1800 
     54 N           1.0250  -12.0021  -44.0337 N.am      4 UNK        -0.5000 
     55 C           1.0990  -11.4261  -42.8235 C.2       3 UNK         0.5000 
     56 O           0.3545  -11.7087  -41.8854 O.2       3 UNK        -0.5000 
     57 CA          2.2328  -10.4022  -42.6010 C.3       3 UNK         0.1400 
     58 CB          3.1601  -10.8633  -41.4633 C.3       3 UNK        -0.1800 
     59 N           3.0463  -10.2036  -43.8019 N.am      3 UNK        -0.5000 
     60 C           2.8054   -9.2999  -44.7614 C.2       2 UNK         0.5000 
     61 O           1.9086   -8.4588  -44.7017 O.2       2 UNK        -0.5000 
     62 CA          3.7001   -9.3748  -46.0156 C.3       2 UNK         0.1400 
     63 CB          4.8878   -8.4091  -45.8879 C.3       2 UNK        -0.1800 
     64 N           4.2075  -10.7257  -46.2790 N.am      2 UNK        -0.5000 
     65 C           3.4506  -11.7719  -46.6445 C.2       1 UNK         0.5000 
     66 O           2.2384  -11.6958  -46.8382 O.2       1 UNK        -0.5000 
     67 C          -1.2942  -22.5948  -48.9369 C.2       11 UNK         0.5000 
     68 O          -1.3478  -23.7307  -49.4102 O.2       11 UNK        -0.5000 
     69 N          -2.3794  -21.8612  -48.6517 N.am      12 UNK        -0.5000 
     70 CA         -3.7420  -22.3295  -48.9055 C.3       12 UNK         0.1400 
     71 CB         -4.7220  -21.1484  -48.9567 C.3       12 UNK        -0.1800 
     72 C          -4.1808  -23.3641  -47.8612 C.2       12 UNK         0.5000 
     73 O          -4.9207  -24.2828  -48.2040 O.2       12 UNK        -0.5000 
     74 N          -3.6878  -23.2293  -46.6214 N.am      13 UNK        -0.5000 
     75 CA         -3.9167  -24.1772  -45.5302 C.3       13 UNK         0.1400 
     76 CB         -3.3418  -23.6127  -44.2240 C.3       13 UNK        -0.1800 
     77 C          -3.3430  -25.5737  -45.8336 C.2       13 UNK         0.5000 
     78 O          -4.0401  -26.5696  -45.6380 O.2       13 UNK        -0.5000 
     79 N          -2.1145  -25.6208  -46.3702 N.am      14 UNK        -0.5000 
     80 CA         -1.4528  -26.8432  -46.8368 C.3       14 UNK         0.1400 
     81 CB          0.0043  -26.5219  -47.2011 C.3       14 UNK        -0.1800 
     82 C          -2.1719  -27.5095  -48.0273 C.2       14 UNK         0.5000 
     83 O          -2.1446  -28.7346  -48.1472 O.2       14 UNK        -0.5000 
     84 N          -2.8267  -26.6941  -48.8629 N.am      15 UNK        -0.5000 
     85 CA         -3.6526  -27.1189  -49.9937 C.3       15 UNK         0.1400 
     86 CB         -3.5716  -26.0369  -51.0811 C.3       15 UNK        -0.1800 
     87 C          -5.1203  -27.4016  -49.6031 C.2       15 UNK         0.5000 
     88 O          -5.9360  -27.6492  -50.4920 O.2       15 UNK        -0.5000 
     89 N          -5.4498  -27.3324  -48.3026 N.am      16 UNK        -0.5000 
     90 CA         -6.7761  -27.5416  -47.7056 C.3       16 UNK         0.1400 
     91 CB         -7.1832  -29.0257  -47.8122 C.3       16 UNK        -0.1800 
     92 C          -7.8600  -26.5835  -48.2510 C.2       16 UNK         0.5000 
     93 O          -9.0288  -26.9614  -48.3463 O.2       16 UNK        -0.5000 
     94 N          -7.4377  -25.3655  -48.6199 N.am      17 UNK        -0.5000 
     95 CA         -8.2031  -24.2759  -49.2334 C.3       17 UNK         0.1400 
     96 CB         -9.3022  -23.7697  -48.2771 C.3       17 UNK        -0.1800 
     97 C          -8.7463  -24.5853  -50.6465 C.2       17 UNK         0.5000 
     98 O          -9.5557  -23.8115  -51.1607 O.2       17 UNK        -0.5000 
     99 N          -8.2915  -25.6826  -51.2690 N.am      18 UNK        -0.5000 
    100 CA        -8.6944  -26.0919  -52.6166 C.3       18 UNK         0.1400 
    101 CB        -8.5056  -27.6106  -52.7536 C.3       18 UNK        -0.1800 
    102 C         -7.9171  -25.3520  -53.7222 C.2       18 UNK         0.5000 
    103 O         -8.3706  -25.3278  -54.8672 O.2       18 UNK        -0.5000 
    104 N         -6.7648  -24.7732  -53.3691 N.am      19 UNK        -0.5000 
    105 CA        -5.8440  -24.0572  -54.2437 C.3       19 UNK         0.1400 
    106 CB        -5.0725  -25.0638  -55.1242 C.3       19 UNK        -0.1800 
    107 C         -4.8930  -23.2204  -53.3708 C.2       19 UNK         0.5000 
    108 O         -5.0486  -23.1959  -52.1475 O.2       19 UNK        -0.5000 
    109 N         -3.9169  -22.5678  -54.0183 N.am      20 UNK        -0.5000 
    110 CA        -2.7654  -21.8718  -53.4249 C.3       20 UNK         0.1400 
    111 CB        -1.8498  -22.8766  -52.6983 C.3       20 UNK        -0.1800 
    112 C         -3.1094  -20.6407  -52.5570 C.2       20 UNK         0.5000 
    113 O         -2.2796  -20.2033  -51.7574 O.2       20 UNK        -0.5000 
    114 N         -4.3071  -20.0776  -52.7569 N.am      21 UNK        -0.5000 
    115 CA        -4.7232  -18.7943  -52.1980 C.3       21 UNK         0.1400 
    116 CB        -6.2577  -18.7298  -52.1859 C.3       21 UNK        -0.1800 
    117 C         -4.1280  -17.6346  -53.0156 C.2       21 UNK         0.5000 
    118 O         -3.9262  -17.7732  -54.2251 O.2       21 UNK        -0.5000 
    119 N         -3.8717  -16.5101  -52.3412 N.am      22 UNK        -0.5000 
    120 CA        -3.2345  -15.3161  -52.9243 C.3       22 UNK         0.1400 
    121 C         -4.2007  -14.3839  -53.7139 C.2       22 UNK         0.5000 
    122 N         -5.5063  -14.6242  -53.7201 N.am      22 UNK        -0.7600 
    123 O         -3.7556  -13.4275  -54.3424 O.2       22 UNK        -0.5000 
    124 C124       -2.4341  -14.5177  -51.8633 C.3       23 UNK        -0.0398 
    125 S125       -1.2124  -15.5443  -50.9774 S.3       23 UNK        -0.2404 
    126 C126        0.2650  -15.2944  -52.0073 C.3       23 UNK        -0.0205 
    127 H127        7.3082  -13.4421  -44.2865 H         1 UNK         0.0600 
    128 H128        6.4665  -12.5979  -42.9812 H         1 UNK         0.0600 
    129 H129        6.4158  -14.3613  -43.0707 H         1 UNK         0.0600 
    130 H130        6.2009  -13.2471  -46.2389 H         1 UNK         0.3000 
    131 H131        3.4167  -13.8916  -46.4494 H         1 UNK         0.0600 
    132 H132        3.6656  -13.3249  -48.8753 H         1 UNK         0.0800 
    133 H133        5.2807  -12.7240  -48.5803 H         1 UNK         0.0800 
    134 H134        5.0804  -14.3826  -50.7529 H         1 UNK         0.0800 
    135 H135        5.8849  -15.9169  -50.6016 H         1 UNK         0.0800 
    136 H136        2.6320  -14.2987  -51.0696 H         1 UNK         0.1150 
    137 H137        0.5830  -17.9940  -51.8153 H         1 UNK         0.1150 
    138 H138        4.5977  -18.0299  -50.3123 H         1 UNK         0.1150 
    139 H139        1.9103  -20.0645  -51.8611 H         1 UNK         0.0800 
    140 H140        3.5925  -20.0341  -51.4190 H         1 UNK         0.0800 
    141 H141        0.3374  -21.3059  -50.6687 H         1 UNK         0.0800 
    142 H142       -0.1374  -20.0243  -49.5804 H         1 UNK         0.0800 
    143 H143        0.7997  -22.8010  -48.6835 H         1 UNK         0.0600 
    144 H144        0.4172  -20.4894  -47.1581 H         1 UNK         0.3000 
    145 H145        0.1836  -22.1891  -43.9887 H         1 UNK         0.0600 
    146 H146        2.1579  -20.7025  -43.7659 H         1 UNK         0.0600 
    147 H147        2.5253  -22.0511  -44.8317 H         1 UNK         0.0600 
    148 H148        2.2105  -20.4568  -45.5085 H         1 UNK         0.0600 
    149 H149       -0.1742  -19.5598  -45.3813 H         1 UNK         0.3000 
    150 H150       -3.2783  -19.0724  -43.8806 H         1 UNK         0.0600 
    151 H151       -2.0363  -18.1736  -41.9479 H         1 UNK         0.0600 
    152 H152       -2.4184  -16.8577  -43.0502 H         1 UNK         0.0600 
    153 H153       -0.7881  -17.5301  -43.0024 H         1 UNK         0.0600 
    154 H154       -1.6510  -17.2856  -45.3861 H         1 UNK         0.3000 
    155 H155       -2.0590  -18.7861  -48.5821 H         1 UNK         0.0600 
    156 H156       -3.2755  -16.7458  -49.2111 H         1 UNK         0.0600 
    157 H157       -3.5610  -16.3411  -47.5190 H         1 UNK         0.0600 
    158 H158       -4.3211  -17.7586  -48.2342 H         1 UNK         0.0600 
    159 H159       -1.0940  -16.2598  -48.1544 H         1 UNK         0.3000 
    160 H160        2.0013  -16.8934  -48.4236 H         1 UNK         0.0600 
    161 H161        0.1903  -14.8129  -47.0864 H         1 UNK         0.0600 
    162 H162        0.4534  -15.0480  -48.8060 H         1 UNK         0.0600 
    163 H163        1.7463  -14.4416  -47.8226 H         1 UNK         0.0600 
    164 H164        1.8174  -16.1243  -45.5612 H         1 UNK         0.3000 
    165 H165        3.9062  -18.3702  -44.3694 H         1 UNK         0.0600 
    166 H166        5.5259  -16.0193  -45.4450 H         1 UNK         0.0600 
    167 H167        5.8610  -16.8078  -43.9000 H         1 UNK         0.0600 
    168 H168        5.9808  -17.7090  -45.4028 H         1 UNK         0.0600 
    169 H169        3.4533  -15.4548  -43.9206 H         1 UNK         0.3000 
    170 H170        0.7221  -16.1457  -41.7190 H         1 UNK         0.0600 
    171 H171        2.8169  -16.1889  -40.3420 H         1 UNK         0.0600 
    172 H172        3.4732  -14.8621  -41.2954 H         1 UNK         0.0600 
    173 H173        2.0407  -14.6133  -40.2980 H         1 UNK         0.0600 
    174 H174        1.7020  -13.6755  -42.5708 H         1 UNK         0.3000 
    175 H175        0.3370  -13.1423  -45.5791 H         1 UNK         0.0600 
    176 H176       -1.9787  -13.4477  -44.8380 H         1 UNK         0.0600 
    177 H177       -1.6402  -12.6946  -43.2894 H         1 UNK         0.0600 
    178 H178       -1.5653  -11.7419  -44.7726 H         1 UNK         0.0600 
    179 H179        1.6901  -11.6866  -44.7280 H         1 UNK         0.3000 
    180 H180        1.7712   -9.4576  -42.3063 H         1 UNK         0.0600 
    181 H181        3.6266  -11.8237  -41.6865 H         1 UNK         0.0600 
    182 H182        2.6103  -10.9756  -40.5281 H         1 UNK         0.0600 
    183 H183        3.9546  -10.1386  -41.2846 H         1 UNK         0.0600 
    184 H184        3.7936  -10.8681  -43.9441 H         1 UNK         0.3000 
    185 H185        3.0961   -9.0654  -46.8713 H         1 UNK         0.0600 
    186 H186        5.4881   -8.3993  -46.7978 H         1 UNK         0.0600 
    187 H187        4.5441   -7.3881  -45.7162 H         1 UNK         0.0600 
    188 H188        5.5402   -8.6799  -45.0568 H         1 UNK         0.0600 
    189 H189        5.1954  -10.8749  -46.1324 H         1 UNK         0.3000 
    190 H190       -2.2864  -20.9837  -48.1571 H         1 UNK         0.3000 
    191 H191       -3.7577  -22.8101  -49.8845 H         1 UNK         0.0600 
    192 H192       -4.3252  -20.3338  -49.5589 H         1 UNK         0.0600 
    193 H193       -5.6666  -21.4564  -49.4063 H         1 UNK         0.0600 
    194 H194       -4.9491  -20.7556  -47.9660 H         1 UNK         0.0600 
    195 H195       -3.0957  -22.4342  -46.4260 H         1 UNK         0.3000 
    196 H196       -4.9965  -24.2833  -45.4062 H         1 UNK         0.0600 
    197 H197       -3.5308  -24.2894  -43.3898 H         1 UNK         0.0600 
    198 H198       -3.7982  -22.6546  -43.9746 H         1 UNK         0.0600 
    199 H199       -2.2639  -23.4627  -44.2856 H         1 UNK         0.0600 
    200 H200       -1.5814  -24.7594  -46.4572 H         1 UNK         0.3000 
    201 H201       -1.4496  -27.5582  -46.0116 H         1 UNK         0.0600 
    202 H202        0.5497  -26.1366  -46.3393 H         1 UNK         0.0600 
    203 H203        0.0639  -25.7758  -47.9947 H         1 UNK         0.0600 
    204 H204        0.5290  -27.4137  -47.5459 H         1 UNK         0.0600 
    205 H205       -2.7824  -25.6982  -48.6925 H         1 UNK         0.3000 
    206 H206       -3.2484  -28.0439  -50.4093 H         1 UNK         0.0600 
    207 H207       -2.5416  -25.8679  -51.3954 H         1 UNK         0.0600 
    208 H208       -4.1403  -26.3169  -51.9685 H         1 UNK         0.0600 
    209 H209       -3.9686  -25.0893  -50.7200 H         1 UNK         0.0600 
    210 H210       -4.7229  -27.0772  -47.6453 H         1 UNK         0.3000 
    211 H211       -6.6711  -27.3033  -46.6463 H         1 UNK         0.0600 
    212 H212       -7.3641  -29.3220  -48.8460 H         1 UNK         0.0600 
    213 H213       -8.0966  -29.2237  -47.2503 H         1 UNK         0.0600 
    214 H214       -6.4081  -29.6765  -47.4073 H         1 UNK         0.0600 
    215 H215       -6.4493  -25.1514  -48.4852 H         1 UNK         0.3000 
    216 H216       -7.4896  -23.4617  -49.3681 H         1 UNK         0.0600 
    217 H217       -8.8924  -23.5376  -47.2941 H         1 UNK         0.0600 
    218 H218      -10.0963  -24.5050  -48.1459 H         1 UNK         0.0600 
    219 H219       -9.7633  -22.8575  -48.6573 H         1 UNK         0.0600 
    220 H220       -7.6186  -26.2764  -50.7974 H         1 UNK         0.3000 
    221 H221       -9.7554  -25.8718  -52.7527 H         1 UNK         0.0600 
    222 H222       -7.4546  -27.8935  -52.6878 H         1 UNK         0.0600 
    223 H223       -9.0477  -28.1487  -51.9757 H         1 UNK         0.0600 
    224 H224       -8.8790  -27.9643  -53.7154 H         1 UNK         0.0600 
    225 H225       -6.4877  -24.7737  -52.3953 H         1 UNK         0.3000 
    226 H226       -6.4127  -23.3722  -54.8755 H         1 UNK         0.0600 
    227 H227       -5.7493  -25.6775  -55.7184 H         1 UNK         0.0600 
    228 H228       -4.4103  -24.5579  -55.8271 H         1 UNK         0.0600 
    229 H229       -4.4608  -25.7349  -54.5199 H         1 UNK         0.0600 
    230 H230       -3.9026  -22.6236  -55.0272 H         1 UNK         0.3000 
    231 H231       -2.1969  -21.4744  -54.2668 H         1 UNK         0.0600 
    232 H232       -1.5719  -23.7024  -53.3529 H         1 UNK         0.0600 
    233 H233       -2.3380  -23.2984  -51.8213 H         1 UNK         0.0600 
    234 H234       -0.9254  -22.4048  -52.3664 H         1 UNK         0.0600 
    235 H235       -4.9090  -20.4809  -53.4586 H         1 UNK         0.3000 
    236 H236       -4.3632  -18.7142  -51.1710 H         1 UNK         0.0600 
    237 H237       -6.6073  -17.7968  -51.7423 H         1 UNK         0.0600 
    238 H238       -6.6722  -18.7915  -53.1930 H         1 UNK         0.0600 
    239 H239       -6.6799  -19.5459  -51.5987 H         1 UNK         0.0600 
    240 H240       -4.0767  -16.4621  -51.3547 H         1 UNK         0.3000 
    241 H241       -2.5094  -15.6617  -53.6639 H         1 UNK         0.0600 
    242 H242       -5.8860  -15.4090  -53.2163 H         1 UNK         0.3800 
    243 H243       -6.1206  -14.0163  -54.2394 H         1 UNK         0.3800 
    244 H244       -1.9183  -13.6716  -52.3209 H         1 UNK         0.0800 
    245 H245       -3.1129  -14.0911  -51.1231 H         1 UNK         0.0800 
    246 H246        0.0534  -15.6210  -53.0264 H         1 UNK         0.0800 
    247 H247        0.4857  -14.2273  -52.0617 H         1 UNK         0.0800 
@<TRIPOS>BOND
     1    1    2 1    
     2    1  127 1    
     3    1  128 1    
     4    1  129 1    
     5    2    3 2    
     6    2    4 am   BACKBONE|DICT|INTERRES
     7    4    5 1    
     8    4  130 1    
     9    5    6 1    
    10    5   65 1    
    11    5  131 1    
    12    6    7 1    
    13    6  132 1    
    14    6  133 1    
    15    7    8 1    
    16    8    9 1    
    17    8  134 1    
    18    8  135 1    
    19    9   10 ar   
    20    9   14 ar   
    21   10   11 ar   
    22   10  136 1    
    23   11   12 ar   
    24   11  126 1    
    25   12   13 ar   
    26   12  137 1    
    27   13   14 ar   
    28   13   15 1    
    29   14  138 1    
    30   15   16 1    
    31   15  139 1    
    32   15  140 1    
    33   16   17 1    
    34   17   18 1    
    35   17  141 1    
    36   17  142 1    
    37   18   19 1    
    38   18   67 1    
    39   18  143 1    
    40   19   20 am   BACKBONE|DICT|INTERRES
    41   19  144 1    
    42   20   21 2    
    43   20   22 1    
    44   22   23 1    
    45   22   24 1    
    46   22  145 1    
    47   23  146 1    
    48   23  147 1    
    49   23  148 1    
    50   24   25 am   BACKBONE|DICT|INTERRES
    51   24  149 1    
    52   25   26 2    
    53   25   27 1    
    54   27   28 1    
    55   27   29 1    
    56   27  150 1    
    57   28  151 1    
    58   28  152 1    
    59   28  153 1    
    60   29   30 am   BACKBONE|DICT|INTERRES
    61   29  154 1    
    62   30   31 2    
    63   30   32 1    
    64   32   33 1    
    65   32   34 1    
    66   32  155 1    
    67   33  156 1    
    68   33  157 1    
    69   33  158 1    
    70   34   35 am   BACKBONE|DICT|INTERRES
    71   34  159 1    
    72   35   36 2    
    73   35   37 1    
    74   37   38 1    
    75   37   39 1    
    76   37  160 1    
    77   38  161 1    
    78   38  162 1    
    79   38  163 1    
    80   39   40 am   BACKBONE|DICT|INTERRES
    81   39  164 1    
    82   40   41 2    
    83   40   42 1    
    84   42   43 1    
    85   42   44 1    
    86   42  165 1    
    87   43  166 1    
    88   43  167 1    
    89   43  168 1    
    90   44   45 am   BACKBONE|DICT|INTERRES
    91   44  169 1    
    92   45   46 2    
    93   45   47 1    
    94   47   48 1    
    95   47   49 1    
    96   47  170 1    
    97   48  171 1    
    98   48  172 1    
    99   48  173 1    
   100   49   50 am   BACKBONE|DICT|INTERRES
   101   49  174 1    
   102   50   51 2    
   103   50   52 1    
   104   52   53 1    
   105   52   54 1    
   106   52  175 1    
   107   53  176 1    
   108   53  177 1    
   109   53  178 1    
   110   54   55 am   BACKBONE|DICT|INTERRES
   111   54  179 1    
   112   55   56 2    
   113   55   57 1    
   114   57   58 1    
   115   57   59 1    
   116   57  180 1    
   117   58  181 1    
   118   58  182 1    
   119   58  183 1    
   120   59   60 am   BACKBONE|DICT|INTERRES
   121   59  184 1    
   122   60   61 2    
   123   60   62 1    
   124   62   63 1    
   125   62   64 1    
   126   62  185 1    
   127   63  186 1    
   128   63  187 1    
   129   63  188 1    
   130   64   65 am   BACKBONE|DICT|INTERRES
   131   64  189 1    
   132   65   66 2    
   133   67   68 2    
   134   67   69 am   BACKBONE|DICT|INTERRES
   135   69   70 1    
   136   69  190 1    
   137   70   71 1    
   138   70   72 1    
   139   70  191 1    
   140   71  192 1    
   141   71  193 1    
   142   71  194 1    
   143   72   73 2    
   144   72   74 am   BACKBONE|DICT|INTERRES
   145   74   75 1    
   146   74  195 1    
   147   75   76 1    
   148   75   77 1    
   149   75  196 1    
   150   76  197 1    
   151   76  198 1    
   152   76  199 1    
   153   77   78 2    
   154   77   79 am   BACKBONE|DICT|INTERRES
   155   79   80 1    
   156   79  200 1    
   157   80   81 1    
   158   80   82 1    
   159   80  201 1    
   160   81  202 1    
   161   81  203 1    
   162   81  204 1    
   163   82   83 2    
   164   82   84 am   BACKBONE|DICT|INTERRES
   165   84   85 1    
   166   84  205 1    
   167   85   86 1    
   168   85   87 1    
   169   85  206 1    
   170   86  207 1    
   171   86  208 1    
   172   86  209 1    
   173   87   88 2    
   174   87   89 am   BACKBONE|DICT|INTERRES
   175   89   90 1    
   176   89  210 1    
   177   90   91 1    
   178   90   92 1    
   179   90  211 1    
   180   91  212 1    
   181   91  213 1    
   182   91  214 1    
   183   92   93 2    
   184   92   94 am   BACKBONE|DICT|INTERRES
   185   94   95 1    
   186   94  215 1    
   187   95   96 1    
   188   95   97 1    
   189   95  216 1    
   190   96  217 1    
   191   96  218 1    
   192   96  219 1    
   193   97   98 2    
   194   97   99 am   BACKBONE|DICT|INTERRES
   195   99  100 1    
   196   99  220 1    
   197  100  101 1    
   198  100  102 1    
   199  100  221 1    
   200  101  222 1    
   201  101  223 1    
   202  101  224 1    
   203  102  103 2    
   204  102  104 am   BACKBONE|DICT|INTERRES
   205  104  105 1    
   206  104  225 1    
   207  105  106 1    
   208  105  107 1    
   209  105  226 1    
   210  106  227 1    
   211  106  228 1    
   212  106  229 1    
   213  107  108 2    
   214  107  109 am   BACKBONE|DICT|INTERRES
   215  109  110 1    
   216  109  230 1    
   217  110  111 1    
   218  110  112 1    
   219  110  231 1    
   220  111  232 1    
   221  111  233 1    
   222  111  234 1    
   223  112  113 2    
   224  112  114 am   BACKBONE|DICT|INTERRES
   225  114  115 1    
   226  114  235 1    
   227  115  116 1    
   228  115  117 1    
   229  115  236 1    
   230  116  237 1    
   231  116  238 1    
   232  116  239 1    
   233  117  118 2    
   234  117  119 am   BACKBONE|DICT|INTERRES
   235  119  120 1    
   236  119  240 1    
   237  120  121 1    
   238  120  124 1    
   239  120  241 1    
   240  121  122 am   BACKBONE|DICT|INTERRES
   241  121  123 2    
   242  122  242 1    
   243  122  243 1    
   244  124  125 1    
   245  124  244 1    
   246  124  245 1    
   247  125  126 1    
   248  126  246 1    
   249  126  247 1    
@<TRIPOS>SUBSTRUCTURE
     1 UNK         1 GROUP             0       ****    0 ROOT    
