@<TRIPOS>MOLECULE
3R540
247   249    1
SMALL
USER_CHARGES


@<TRIPOS>ATOM
      1 CA          5.8333  -11.9665  -51.4863 C.3       0 UNK        -0.1800 
      2 C           4.6776  -12.8980  -51.1514 C.2       0 UNK         0.5000 
      3 O           3.7121  -12.4757  -50.5140 O.2       0 UNK        -0.5000 
      4 N           4.7605  -14.1603  -51.5884 N.am      1 UNK        -0.5000 
      5 CA          3.7741  -15.2238  -51.3557 C.3       1 UNK         0.1400 
      6 C6          4.4121  -16.6340  -51.4774 C.3       23 UNK        -0.0398 
      7 S7          5.8348  -16.9252  -50.3635 S.3       23 UNK        -0.2404 
      8 C8          5.0669  -17.1020  -48.7167 C.3       23 UNK        -0.0205 
      9 C9          3.8760  -18.0481  -48.7173 C.ar      23 UNK        -0.0193 
     10 C10         2.5814  -17.5276  -48.6748 C.ar      23 UNK        -0.1150 
     11 C11         1.4737  -18.3724  -48.7442 C.ar      23 UNK        -0.0193 
     12 C12         1.6644  -19.7547  -48.8100 C.ar      23 UNK        -0.1150 
     13 C13         2.9560  -20.2924  -48.8348 C.ar      23 UNK        -0.0193 
     14 C14         4.0590  -19.4322  -48.7925 C.ar      23 UNK        -0.1150 
     15 C15         3.1550  -21.7981  -48.9562 C.3       23 UNK        -0.0205 
     16 S16         4.0156  -22.5348  -47.5276 S.3       23 UNK        -0.2404 
     17 C17         2.8929  -22.1701  -46.1361 C.3       23 UNK        -0.0398 
     18 CA          2.0236  -23.3820  -45.7078 C.3       11 UNK         0.1400 
     19 N           1.8497  -23.4412  -44.2507 N.am      11 UNK        -0.5000 
     20 C           1.4009  -24.5097  -43.5729 C.2       10 UNK         0.5000 
     21 O           1.0816  -25.5674  -44.1164 O.2       10 UNK        -0.5000 
     22 CA          1.2429  -24.3709  -42.0437 C.3       10 UNK         0.1400 
     23 CB          2.4673  -24.9559  -41.3243 C.3       10 UNK        -0.1800 
     24 N           1.0364  -22.9932  -41.5890 N.am      10 UNK        -0.5000 
     25 C          -0.0215  -22.2322  -41.9002 C.2       9 UNK         0.5000 
     26 O          -0.9608  -22.6306  -42.5893 O.2       9 UNK        -0.5000 
     27 CA         -0.0075  -20.7609  -41.4322 C.3       9 UNK         0.1400 
     28 CB          1.0754  -20.4352  -40.3795 C.3       9 UNK        -0.1800 
     29 N           0.1048  -19.8592  -42.5811 N.am      9 UNK        -0.5000 
     30 C           1.0662  -19.8761  -43.5182 C.2       8 UNK         0.5000 
     31 O           2.0572  -20.6066  -43.4831 O.2       8 UNK        -0.5000 
     32 CA          0.8587  -18.9442  -44.7213 C.3       8 UNK         0.1400 
     33 CB         -0.2172  -19.5375  -45.6468 C.3       8 UNK        -0.1800 
     34 N           0.4642  -17.5923  -44.3298 N.am      8 UNK        -0.5000 
     35 C           1.2051  -16.7365  -43.6107 C.2       7 UNK         0.5000 
     36 O           2.3282  -16.9928  -43.1762 O.2       7 UNK        -0.5000 
     37 CA          0.5860  -15.3547  -43.3365 C.3       7 UNK         0.1400 
     38 CB          0.9263  -14.3804  -44.4759 C.3       7 UNK        -0.1800 
     39 N          -0.8674  -15.4422  -43.1968 N.am      7 UNK        -0.5000 
     40 C          -1.5097  -15.6540  -42.0410 C.2       6 UNK         0.5000 
     41 O          -0.9495  -15.7054  -40.9455 O.2       6 UNK        -0.5000 
     42 CA         -3.0374  -15.8529  -42.1180 C.3       6 UNK         0.1400 
     43 CB         -3.7628  -14.5096  -41.9467 C.3       6 UNK        -0.1800 
     44 N          -3.4901  -16.4835  -43.3608 N.am      6 UNK        -0.5000 
     45 C          -3.1958  -17.7366  -43.7332 C.2       5 UNK         0.5000 
     46 O          -2.5038  -18.5067  -43.0649 O.2       5 UNK        -0.5000 
     47 CA         -3.7308  -18.1973  -45.1043 C.3       5 UNK         0.1400 
     48 CB         -5.1716  -18.7054  -44.9521 C.3       5 UNK        -0.1800 
     49 N          -3.6830  -17.2114  -46.1973 N.am      5 UNK        -0.5000 
     50 C          -2.6684  -16.3903  -46.5048 C.2       4 UNK         0.5000 
     51 O          -1.6349  -16.3151  -45.8350 O.2       4 UNK        -0.5000 
     52 CA         -2.8149  -15.4967  -47.7545 C.3       4 UNK         0.1400 
     53 CB         -4.1786  -14.7817  -47.8039 C.3       4 UNK        -0.1800 
     54 N          -1.7175  -14.5277  -47.7110 N.am      4 UNK        -0.5000 
     55 C          -1.1521  -13.7731  -48.6605 C.2       3 UNK         0.5000 
     56 O          -0.1577  -13.0899  -48.4092 O.2       3 UNK        -0.5000 
     57 CA         -1.7216  -13.7243  -50.0893 C.3       3 UNK         0.1400 
     58 CB         -2.6531  -12.5100  -50.2772 C.3       3 UNK        -0.1800 
     59 N          -0.5897  -13.5927  -51.0012 N.am      3 UNK        -0.5000 
     60 C          -0.5807  -13.8553  -52.3118 C.2       2 UNK         0.5000 
     61 O          -1.5450  -14.3136  -52.9280 O.2       2 UNK        -0.5000 
     62 CA          0.7292  -13.5622  -53.0620 C.3       2 UNK         0.1400 
     63 CB          0.7941  -12.0804  -53.4625 C.3       2 UNK        -0.1800 
     64 N           1.9085  -13.8913  -52.2603 N.am      2 UNK        -0.5000 
     65 C           2.5374  -15.0727  -52.2771 C.2       1 UNK         0.5000 
     66 O           2.1982  -16.0028  -53.0087 O.2       1 UNK        -0.5000 
     67 C           0.6796  -23.4262  -46.4714 C.2       11 UNK         0.5000 
     68 O           0.6673  -23.7705  -47.6534 O.2       11 UNK        -0.5000 
     69 N          -0.4428  -23.1438  -45.7879 N.am      12 UNK        -0.5000 
     70 CA         -1.7994  -23.2606  -46.3311 C.3       12 UNK         0.1400 
     71 CB         -2.8155  -22.7658  -45.2927 C.3       12 UNK        -0.1800 
     72 C          -2.1554  -24.6878  -46.7935 C.2       12 UNK         0.5000 
     73 O          -2.9673  -24.8362  -47.7043 O.2       12 UNK        -0.5000 
     74 N          -1.5178  -25.7095  -46.2030 N.am      13 UNK        -0.5000 
     75 CA         -1.6465  -27.1076  -46.6178 C.3       13 UNK         0.1400 
     76 CB         -0.9715  -28.0087  -45.5734 C.3       13 UNK        -0.1800 
     77 C          -1.0654  -27.3755  -48.0211 C.2       13 UNK         0.5000 
     78 O          -1.5991  -28.2164  -48.7452 O.2       13 UNK        -0.5000 
     79 N          -0.0002  -26.6482  -48.3862 N.am      14 UNK        -0.5000 
     80 CA          0.6215  -26.7001  -49.7089 C.3       14 UNK         0.1400 
     81 CB          2.1049  -26.3152  -49.5892 C.3       14 UNK        -0.1800 
     82 C          -0.1005  -25.7755  -50.7040 C.2       14 UNK         0.5000 
     83 O          -0.2835  -26.1486  -51.8624 O.2       14 UNK        -0.5000 
     84 N          -0.5148  -24.5945  -50.2280 N.am      15 UNK        -0.5000 
     85 CA         -1.1592  -23.5358  -51.0082 C.3       15 UNK         0.1400 
     86 CB         -0.7497  -22.1794  -50.4143 C.3       15 UNK        -0.1800 
     87 C          -2.6914  -23.6831  -51.1481 C.2       15 UNK         0.5000 
     88 O          -3.3692  -22.6916  -51.4236 O.2       15 UNK        -0.5000 
     89 N          -3.2147  -24.9064  -50.9761 N.am      16 UNK        -0.5000 
     90 CA         -4.6097  -25.3135  -51.1946 C.3       16 UNK         0.1400 
     91 CB         -4.9286  -25.3239  -52.7040 C.3       16 UNK        -0.1800 
     92 C          -5.6221  -24.4870  -50.3729 C.2       16 UNK         0.5000 
     93 O          -6.5810  -23.9427  -50.9221 O.2       16 UNK        -0.5000 
     94 N          -5.3468  -24.3868  -49.0673 N.am      17 UNK        -0.5000 
     95 CA         -6.0483  -23.6389  -48.0192 C.3       17 UNK         0.1400 
     96 CB         -7.5682  -23.9011  -48.0166 C.3       17 UNK        -0.1800 
     97 C          -5.7231  -22.1341  -47.9924 C.2       17 UNK         0.5000 
     98 O          -6.0264  -21.4960  -46.9853 O.2       17 UNK        -0.5000 
     99 N          -5.0948  -21.5988  -49.0535 N.am      18 UNK        -0.5000 
    100 CA        -4.6236  -20.2143  -49.2050 C.3       18 UNK         0.1400 
    101 CB        -3.3690  -19.9926  -48.3386 C.3       18 UNK        -0.1800 
    102 C         -5.7164  -19.1457  -48.9648 C.2       18 UNK         0.5000 
    103 O         -5.4449  -18.0940  -48.3777 O.2       18 UNK        -0.5000 
    104 N         -6.9461  -19.4597  -49.3943 N.am      19 UNK        -0.5000 
    105 CA        -8.1583  -18.6746  -49.1776 C.3       19 UNK         0.1400 
    106 CB        -9.3761  -19.5284  -49.5697 C.3       19 UNK        -0.1800 
    107 C         -8.1250  -17.3370  -49.9396 C.2       19 UNK         0.5000 
    108 O         -8.4512  -17.2982  -51.1268 O.2       19 UNK        -0.5000 
    109 N         -7.7003  -16.2779  -49.2368 N.am      20 UNK        -0.5000 
    110 CA        -7.5769  -14.8787  -49.6713 C.3       20 UNK         0.1400 
    111 CB        -8.9433  -14.3133  -50.1101 C.3       20 UNK        -0.1800 
    112 C         -6.4818  -14.6074  -50.7266 C.2       20 UNK         0.5000 
    113 O         -6.2793  -13.4480  -51.0895 O.2       20 UNK        -0.5000 
    114 N         -5.7698  -15.6464  -51.1732 N.am      21 UNK        -0.5000 
    115 CA        -4.6883  -15.5931  -52.1473 C.3       21 UNK         0.1400 
    116 CB        -5.2442  -15.3353  -53.5605 C.3       21 UNK        -0.1800 
    117 C         -3.9245  -16.9217  -52.1051 C.2       21 UNK         0.5000 
    118 O         -4.5058  -17.9530  -51.7616 O.2       21 UNK        -0.5000 
    119 N         -2.6478  -16.8723  -52.4824 N.am      22 UNK        -0.5000 
    120 CA        -1.7424  -18.0264  -52.5959 C.3       22 UNK         0.1400 
    121 C         -0.7184  -17.9092  -53.7615 C.2       22 UNK         0.5000 
    122 N         -0.7070  -16.8338  -54.5419 N.am      22 UNK        -0.7600 
    123 O          0.0517  -18.8361  -53.9968 O.2       22 UNK        -0.5000 
    124 C124       -1.0885  -18.4189  -51.2424 C.3       23 UNK        -0.0398 
    125 S125       -0.2999  -17.0251  -50.3710 S.3       23 UNK        -0.2404 
    126 C126        0.0804  -17.7716  -48.7609 C.3       23 UNK        -0.0205 
    127 H127        5.4765  -11.1247  -52.0797 H         1 UNK         0.0600 
    128 H128        6.6137  -12.4758  -52.0522 H         1 UNK         0.0600 
    129 H129        6.2772  -11.5760  -50.5706 H         1 UNK         0.0600 
    130 H130        5.5726  -14.4400  -52.1198 H         1 UNK         0.3000 
    131 H131        3.4043  -15.1204  -50.3343 H         1 UNK         0.0600 
    132 H132        3.6676  -17.4138  -51.3106 H         1 UNK         0.0800 
    133 H133        4.7675  -16.7912  -52.4972 H         1 UNK         0.0800 
    134 H134        4.7714  -16.1149  -48.3579 H         1 UNK         0.0800 
    135 H135        5.8176  -17.4662  -48.0140 H         1 UNK         0.0800 
    136 H136        2.4290  -16.4590  -48.6211 H         1 UNK         0.1150 
    137 H137        0.8068  -20.4090  -48.8536 H         1 UNK         0.1150 
    138 H138        5.0595  -19.8397  -48.8332 H         1 UNK         0.1150 
    139 H139        2.2028  -22.3068  -49.1006 H         1 UNK         0.0800 
    140 H140        3.7399  -22.0000  -49.8544 H         1 UNK         0.0800 
    141 H141        2.2931  -21.2855  -46.3456 H         1 UNK         0.0800 
    142 H142        3.5483  -21.8778  -45.3147 H         1 UNK         0.0800 
    143 H143        2.5579  -24.2945  -45.9817 H         1 UNK         0.0600 
    144 H144        2.0512  -22.5850  -43.7424 H         1 UNK         0.3000 
    145 H145        0.3655  -24.9529  -41.7540 H         1 UNK         0.0600 
    146 H146        2.3327  -24.9444  -40.2425 H         1 UNK         0.0600 
    147 H147        2.6350  -25.9929  -41.6183 H         1 UNK         0.0600 
    148 H148        3.3750  -24.3976  -41.5569 H         1 UNK         0.0600 
    149 H149        1.7832  -22.5776  -41.0514 H         1 UNK         0.3000 
    150 H150       -0.9819  -20.5712  -40.9799 H         1 UNK         0.0600 
    151 H151        0.9731  -21.0720  -39.5000 H         1 UNK         0.0600 
    152 H152        0.9830  -19.4036  -40.0395 H         1 UNK         0.0600 
    153 H153        2.0867  -20.5601  -40.7679 H         1 UNK         0.0600 
    154 H154       -0.7010  -19.2599  -42.7394 H         1 UNK         0.3000 
    155 H155        1.7961  -18.8664  -45.2762 H         1 UNK         0.0600 
    156 H156       -1.0517  -19.9549  -45.0854 H         1 UNK         0.0600 
    157 H157        0.1876  -20.3396  -46.2610 H         1 UNK         0.0600 
    158 H158       -0.6271  -18.7874  -46.3160 H         1 UNK         0.0600 
    159 H159       -0.4203  -17.2566  -44.6957 H         1 UNK         0.3000 
    160 H160        1.0231  -14.9636  -42.4153 H         1 UNK         0.0600 
    161 H161        0.4997  -13.3942  -44.2926 H         1 UNK         0.0600 
    162 H162        0.5545  -14.7333  -45.4384 H         1 UNK         0.0600 
    163 H163        2.0057  -14.2554  -44.5702 H         1 UNK         0.0600 
    164 H164       -1.3970  -15.4818  -44.0602 H         1 UNK         0.3000 
    165 H165       -3.3246  -16.5040  -41.2897 H         1 UNK         0.0600 
    166 H166       -4.8438  -14.6461  -41.9120 H         1 UNK         0.0600 
    167 H167       -3.4681  -14.0223  -41.0164 H         1 UNK         0.0600 
    168 H168       -3.5359  -13.8230  -42.7633 H         1 UNK         0.0600 
    169 H169       -4.0530  -15.9191  -43.9798 H         1 UNK         0.3000 
    170 H170       -3.1129  -19.0384  -45.4125 H         1 UNK         0.0600 
    171 H171       -5.2392  -19.4723  -44.1792 H         1 UNK         0.0600 
    172 H172       -5.8555  -17.9004  -44.6809 H         1 UNK         0.0600 
    173 H173       -5.5342  -19.1510  -45.8766 H         1 UNK         0.0600 
    174 H174       -4.4611  -17.2632  -46.8482 H         1 UNK         0.3000 
    175 H175       -2.7064  -16.1468  -48.6239 H         1 UNK         0.0600 
    176 H176       -4.2723  -14.0379  -47.0120 H         1 UNK         0.0600 
    177 H177       -4.3278  -14.2830  -48.7568 H         1 UNK         0.0600 
    178 H178       -5.0096  -15.4788  -47.6999 H         1 UNK         0.0600 
    179 H179       -1.2567  -14.5515  -46.8105 H         1 UNK         0.3000 
    180 H180       -2.2557  -14.6488  -50.3048 H         1 UNK         0.0600 
    181 H181       -2.0945  -11.5740  -50.2403 H         1 UNK         0.0600 
    182 H182       -3.4154  -12.4496  -49.5026 H         1 UNK         0.0600 
    183 H183       -3.1672  -12.5501  -51.2375 H         1 UNK         0.0600 
    184 H184        0.2556  -13.2645  -50.5517 H         1 UNK         0.3000 
    185 H185        0.7285  -14.1556  -53.9788 H         1 UNK         0.0600 
    186 H186       -0.0687  -11.8018  -54.0691 H         1 UNK         0.0600 
    187 H187        0.8084  -11.4256  -52.5902 H         1 UNK         0.0600 
    188 H188        1.6868  -11.8717  -54.0523 H         1 UNK         0.0600 
    189 H189        2.2806  -13.1702  -51.6496 H         1 UNK         0.3000 
    190 H190       -0.3729  -22.9112  -44.8052 H         1 UNK         0.3000 
    191 H191       -1.8640  -22.6088  -47.2034 H         1 UNK         0.0600 
    192 H192       -2.8115  -23.3904  -44.3988 H         1 UNK         0.0600 
    193 H193       -3.8278  -22.7830  -45.6960 H         1 UNK         0.0600 
    194 H194       -2.6089  -21.7409  -44.9863 H         1 UNK         0.0600 
    195 H195       -0.8500  -25.5135  -45.4684 H         1 UNK         0.3000 
    196 H196       -2.7098  -27.3549  -46.6461 H         1 UNK         0.0600 
    197 H197       -1.0881  -29.0618  -45.8324 H         1 UNK         0.0600 
    198 H198       -1.4102  -27.8661  -44.5856 H         1 UNK         0.0600 
    199 H199        0.0976  -27.8056  -45.4976 H         1 UNK         0.0600 
    200 H200        0.3447  -25.9372  -47.7550 H         1 UNK         0.3000 
    201 H201        0.5688  -27.7206  -50.0945 H         1 UNK         0.0600 
    202 H202        2.6320  -26.9861  -48.9109 H         1 UNK         0.0600 
    203 H203        2.2347  -25.2972  -49.2200 H         1 UNK         0.0600 
    204 H204        2.6018  -26.3766  -50.5582 H         1 UNK         0.0600 
    205 H205       -0.2877  -24.3635  -49.2659 H         1 UNK         0.3000 
    206 H206       -0.7689  -23.5676  -52.0274 H         1 UNK         0.0600 
    207 H207        0.3176  -22.0105  -50.5513 H         1 UNK         0.0600 
    208 H208       -1.2667  -21.3521  -50.8990 H         1 UNK         0.0600 
    209 H209       -0.9623  -22.1304  -49.3478 H         1 UNK         0.0600 
    210 H210       -2.5770  -25.6458  -50.7180 H         1 UNK         0.3000 
    211 H211       -4.6913  -26.3402  -50.8347 H         1 UNK         0.0600 
    212 H212       -4.8854  -24.3225  -53.1339 H         1 UNK         0.0600 
    213 H213       -5.9285  -25.7176  -52.8901 H         1 UNK         0.0600 
    214 H214       -4.2262  -25.9532  -53.2504 H         1 UNK         0.0600 
    215 H215       -4.4693  -24.7925  -48.7443 H         1 UNK         0.3000 
    216 H216       -5.6569  -24.0401  -47.0833 H         1 UNK         0.0600 
    217 H217       -8.0271  -23.4963  -47.1138 H         1 UNK         0.0600 
    218 H218       -7.7871  -24.9685  -48.0410 H         1 UNK         0.0600 
    219 H219       -8.0670  -23.4324  -48.8650 H         1 UNK         0.0600 
    220 H220       -4.8846  -22.2087  -49.8349 H         1 UNK         0.3000 
    221 H221       -4.3235  -20.1084  -50.2477 H         1 UNK         0.0600 
    222 H222       -3.5701  -20.1982  -47.2892 H         1 UNK         0.0600 
    223 H223       -2.5583  -20.6457  -48.6524 H         1 UNK         0.0600 
    224 H224       -3.0058  -18.9685  -48.4170 H         1 UNK         0.0600 
    225 H225       -7.0637  -20.3365  -49.8799 H         1 UNK         0.3000 
    226 H226       -8.2355  -18.4620  -48.1091 H         1 UNK         0.0600 
    227 H227      -10.3040  -18.9736  -49.4253 H         1 UNK         0.0600 
    228 H228       -9.3361  -19.8357  -50.6155 H         1 UNK         0.0600 
    229 H229       -9.4381  -20.4293  -48.9587 H         1 UNK         0.0600 
    230 H230       -7.3786  -16.4570  -48.2952 H         1 UNK         0.3000 
    231 H231       -7.2690  -14.3253  -48.7831 H         1 UNK         0.0600 
    232 H232       -9.7027  -14.4766  -49.3453 H         1 UNK         0.0600 
    233 H233       -9.2943  -14.7692  -51.0361 H         1 UNK         0.0600 
    234 H234       -8.8843  -13.2379  -50.2817 H         1 UNK         0.0600 
    235 H235       -5.9750  -16.5758  -50.8271 H         1 UNK         0.3000 
    236 H236       -4.0100  -14.7850  -51.8732 H         1 UNK         0.0600 
    237 H237       -5.7458  -14.3700  -53.6245 H         1 UNK         0.0600 
    238 H238       -4.4425  -15.3288  -54.3000 H         1 UNK         0.0600 
    239 H239       -5.9591  -16.1048  -53.8548 H         1 UNK         0.0600 
    240 H240       -2.2355  -15.9682  -52.7016 H         1 UNK         0.3000 
    241 H241       -2.3557  -18.8774  -52.8988 H         1 UNK         0.0600 
    242 H242       -0.0342  -16.7903  -55.2904 H         1 UNK         0.3800 
    243 H243       -1.3132  -16.0471  -54.3700 H         1 UNK         0.3800 
    244 H244       -1.8584  -18.8334  -50.5924 H         1 UNK         0.0800 
    245 H245       -0.3492  -19.2102  -51.3745 H         1 UNK         0.0800 
    246 H246        0.0155  -17.0033  -47.9896 H         1 UNK         0.0800 
    247 H247       -0.6709  -18.5227  -48.5223 H         1 UNK         0.0800 
@<TRIPOS>BOND
     1    1    2 1    
     2    1  127 1    
     3    1  128 1    
     4    1  129 1    
     5    2    3 2    
     6    2    4 am   BACKBONE|DICT|INTERRES
     7    4    5 1    
     8    4  130 1    
     9    5    6 1    
    10    5   65 1    
    11    5  131 1    
    12    6    7 1    
    13    6  132 1    
    14    6  133 1    
    15    7    8 1    
    16    8    9 1    
    17    8  134 1    
    18    8  135 1    
    19    9   10 ar   
    20    9   14 ar   
    21   10   11 ar   
    22   10  136 1    
    23   11   12 ar   
    24   11  126 1    
    25   12   13 ar   
    26   12  137 1    
    27   13   14 ar   
    28   13   15 1    
    29   14  138 1    
    30   15   16 1    
    31   15  139 1    
    32   15  140 1    
    33   16   17 1    
    34   17   18 1    
    35   17  141 1    
    36   17  142 1    
    37   18   19 1    
    38   18   67 1    
    39   18  143 1    
    40   19   20 am   BACKBONE|DICT|INTERRES
    41   19  144 1    
    42   20   21 2    
    43   20   22 1    
    44   22   23 1    
    45   22   24 1    
    46   22  145 1    
    47   23  146 1    
    48   23  147 1    
    49   23  148 1    
    50   24   25 am   BACKBONE|DICT|INTERRES
    51   24  149 1    
    52   25   26 2    
    53   25   27 1    
    54   27   28 1    
    55   27   29 1    
    56   27  150 1    
    57   28  151 1    
    58   28  152 1    
    59   28  153 1    
    60   29   30 am   BACKBONE|DICT|INTERRES
    61   29  154 1    
    62   30   31 2    
    63   30   32 1    
    64   32   33 1    
    65   32   34 1    
    66   32  155 1    
    67   33  156 1    
    68   33  157 1    
    69   33  158 1    
    70   34   35 am   BACKBONE|DICT|INTERRES
    71   34  159 1    
    72   35   36 2    
    73   35   37 1    
    74   37   38 1    
    75   37   39 1    
    76   37  160 1    
    77   38  161 1    
    78   38  162 1    
    79   38  163 1    
    80   39   40 am   BACKBONE|DICT|INTERRES
    81   39  164 1    
    82   40   41 2    
    83   40   42 1    
    84   42   43 1    
    85   42   44 1    
    86   42  165 1    
    87   43  166 1    
    88   43  167 1    
    89   43  168 1    
    90   44   45 am   BACKBONE|DICT|INTERRES
    91   44  169 1    
    92   45   46 2    
    93   45   47 1    
    94   47   48 1    
    95   47   49 1    
    96   47  170 1    
    97   48  171 1    
    98   48  172 1    
    99   48  173 1    
   100   49   50 am   BACKBONE|DICT|INTERRES
   101   49  174 1    
   102   50   51 2    
   103   50   52 1    
   104   52   53 1    
   105   52   54 1    
   106   52  175 1    
   107   53  176 1    
   108   53  177 1    
   109   53  178 1    
   110   54   55 am   BACKBONE|DICT|INTERRES
   111   54  179 1    
   112   55   56 2    
   113   55   57 1    
   114   57   58 1    
   115   57   59 1    
   116   57  180 1    
   117   58  181 1    
   118   58  182 1    
   119   58  183 1    
   120   59   60 am   BACKBONE|DICT|INTERRES
   121   59  184 1    
   122   60   61 2    
   123   60   62 1    
   124   62   63 1    
   125   62   64 1    
   126   62  185 1    
   127   63  186 1    
   128   63  187 1    
   129   63  188 1    
   130   64   65 am   BACKBONE|DICT|INTERRES
   131   64  189 1    
   132   65   66 2    
   133   67   68 2    
   134   67   69 am   BACKBONE|DICT|INTERRES
   135   69   70 1    
   136   69  190 1    
   137   70   71 1    
   138   70   72 1    
   139   70  191 1    
   140   71  192 1    
   141   71  193 1    
   142   71  194 1    
   143   72   73 2    
   144   72   74 am   BACKBONE|DICT|INTERRES
   145   74   75 1    
   146   74  195 1    
   147   75   76 1    
   148   75   77 1    
   149   75  196 1    
   150   76  197 1    
   151   76  198 1    
   152   76  199 1    
   153   77   78 2    
   154   77   79 am   BACKBONE|DICT|INTERRES
   155   79   80 1    
   156   79  200 1    
   157   80   81 1    
   158   80   82 1    
   159   80  201 1    
   160   81  202 1    
   161   81  203 1    
   162   81  204 1    
   163   82   83 2    
   164   82   84 am   BACKBONE|DICT|INTERRES
   165   84   85 1    
   166   84  205 1    
   167   85   86 1    
   168   85   87 1    
   169   85  206 1    
   170   86  207 1    
   171   86  208 1    
   172   86  209 1    
   173   87   88 2    
   174   87   89 am   BACKBONE|DICT|INTERRES
   175   89   90 1    
   176   89  210 1    
   177   90   91 1    
   178   90   92 1    
   179   90  211 1    
   180   91  212 1    
   181   91  213 1    
   182   91  214 1    
   183   92   93 2    
   184   92   94 am   BACKBONE|DICT|INTERRES
   185   94   95 1    
   186   94  215 1    
   187   95   96 1    
   188   95   97 1    
   189   95  216 1    
   190   96  217 1    
   191   96  218 1    
   192   96  219 1    
   193   97   98 2    
   194   97   99 am   BACKBONE|DICT|INTERRES
   195   99  100 1    
   196   99  220 1    
   197  100  101 1    
   198  100  102 1    
   199  100  221 1    
   200  101  222 1    
   201  101  223 1    
   202  101  224 1    
   203  102  103 2    
   204  102  104 am   BACKBONE|DICT|INTERRES
   205  104  105 1    
   206  104  225 1    
   207  105  106 1    
   208  105  107 1    
   209  105  226 1    
   210  106  227 1    
   211  106  228 1    
   212  106  229 1    
   213  107  108 2    
   214  107  109 am   BACKBONE|DICT|INTERRES
   215  109  110 1    
   216  109  230 1    
   217  110  111 1    
   218  110  112 1    
   219  110  231 1    
   220  111  232 1    
   221  111  233 1    
   222  111  234 1    
   223  112  113 2    
   224  112  114 am   BACKBONE|DICT|INTERRES
   225  114  115 1    
   226  114  235 1    
   227  115  116 1    
   228  115  117 1    
   229  115  236 1    
   230  116  237 1    
   231  116  238 1    
   232  116  239 1    
   233  117  118 2    
   234  117  119 am   BACKBONE|DICT|INTERRES
   235  119  120 1    
   236  119  240 1    
   237  120  121 1    
   238  120  124 1    
   239  120  241 1    
   240  121  122 am   BACKBONE|DICT|INTERRES
   241  121  123 2    
   242  122  242 1    
   243  122  243 1    
   244  124  125 1    
   245  124  244 1    
   246  124  245 1    
   247  125  126 1    
   248  126  246 1    
   249  126  247 1    
@<TRIPOS>SUBSTRUCTURE
     1 UNK         1 GROUP             0       ****    0 ROOT    
