@<TRIPOS>MOLECULE
3R540
247   249    1
SMALL
USER_CHARGES


@<TRIPOS>ATOM
      1 CA          6.2985  -11.0386  -49.8065 C.3       0 UNK        -0.1800 
      2 C           5.1660  -11.5672  -48.9371 C.2       0 UNK         0.5000 
      3 O           5.4139  -12.0285  -47.8226 O.2       0 UNK        -0.5000 
      4 N           3.9292  -11.5109  -49.4455 N.am      1 UNK        -0.5000 
      5 CA          2.7129  -11.9208  -48.7383 C.3       1 UNK         0.1400 
      6 C6          1.4993  -12.0289  -49.6945 C.3       23 UNK        -0.0398 
      7 S7          1.5439  -13.5475  -50.7029 S.3       23 UNK        -0.2404 
      8 C8          0.4542  -14.6127  -49.7064 C.3       23 UNK        -0.0205 
      9 C9          0.0770  -15.8893  -50.4392 C.ar      23 UNK        -0.0193 
     10 C10        -0.9862  -15.8829  -51.3466 C.ar      23 UNK        -0.1150 
     11 C11        -1.3813  -17.0612  -51.9850 C.ar      23 UNK        -0.0193 
     12 C12        -0.7079  -18.2534  -51.7065 C.ar      23 UNK        -0.1150 
     13 C13         0.3451  -18.2776  -50.7873 C.ar      23 UNK        -0.0193 
     14 C14         0.7491  -17.0859  -50.1743 C.ar      23 UNK        -0.1150 
     15 C15         0.9925  -19.6074  -50.4149 C.3       23 UNK        -0.0205 
     16 S16         0.9882  -19.9270  -48.6157 S.3       23 UNK        -0.2404 
     17 C17        -0.7260  -19.5248  -48.1290 C.3       23 UNK        -0.0398 
     18 CA         -1.4818  -20.6999  -47.4746 C.3       11 UNK         0.1400 
     19 N          -0.8226  -21.2055  -46.2700 N.am      11 UNK        -0.5000 
     20 C          -1.0357  -22.4098  -45.7272 C.2       10 UNK         0.5000 
     21 O          -1.7256  -23.2788  -46.2655 O.2       10 UNK        -0.5000 
     22 CA         -0.4052  -22.6575  -44.3404 C.3       10 UNK         0.1400 
     23 CB         -0.2031  -24.1553  -44.0303 C.3       10 UNK        -0.1800 
     24 N           0.8202  -21.8773  -44.1233 N.am      10 UNK        -0.5000 
     25 C           2.0066  -22.0344  -44.7313 C.2       9 UNK         0.5000 
     26 O           2.2667  -22.9539  -45.5045 O.2       9 UNK        -0.5000 
     27 CA          3.0943  -20.9795  -44.4508 C.3       9 UNK         0.1400 
     28 CB          3.2662  -20.0635  -45.6722 C.3       9 UNK        -0.1800 
     29 N           2.8254  -20.1511  -43.2752 N.am      9 UNK        -0.5000 
     30 C           2.9584  -20.5580  -42.0062 C.2       8 UNK         0.5000 
     31 O           3.3493  -21.6806  -41.6845 O.2       8 UNK        -0.5000 
     32 CA          2.5660  -19.5468  -40.9128 C.3       8 UNK         0.1400 
     33 CB          3.7327  -18.5929  -40.6153 C.3       8 UNK        -0.1800 
     34 N           1.3707  -18.7671  -41.2455 N.am      8 UNK        -0.5000 
     35 C           0.1434  -19.2828  -41.4067 C.2       7 UNK         0.5000 
     36 O          -0.1153  -20.4821  -41.3055 O.2       7 UNK        -0.5000 
     37 CA         -0.9785  -18.3015  -41.7861 C.3       7 UNK         0.1400 
     38 CB         -1.4218  -17.4649  -40.5770 C.3       7 UNK        -0.1800 
     39 N          -0.5915  -17.4214  -42.8872 N.am      7 UNK        -0.5000 
     40 C          -0.3797  -17.8359  -44.1436 C.2       6 UNK         0.5000 
     41 O          -0.5883  -18.9877  -44.5271 O.2       6 UNK        -0.5000 
     42 CA          0.1763  -16.8040  -45.1398 C.3       6 UNK         0.1400 
     43 CB         -0.9654  -16.0139  -45.7957 C.3       6 UNK        -0.1800 
     44 N           1.1273  -15.8777  -44.5273 N.am      6 UNK        -0.5000 
     45 C           2.3097  -16.2347  -44.0065 C.2       5 UNK         0.5000 
     46 O           2.7370  -17.3874  -44.0053 O.2       5 UNK        -0.5000 
     47 CA          3.1251  -15.1284  -43.3194 C.3       5 UNK         0.1400 
     48 CB          3.8386  -14.2433  -44.3528 C.3       5 UNK        -0.1800 
     49 N           2.2940  -14.3045  -42.4421 N.am      5 UNK        -0.5000 
     50 C           1.7200  -14.7446  -41.3130 C.2       4 UNK         0.5000 
     51 O           1.8477  -15.8898  -40.8810 O.2       4 UNK        -0.5000 
     52 CA          0.8224  -13.7464  -40.5608 C.3       4 UNK         0.1400 
     53 CB          1.6634  -12.8450  -39.6449 C.3       4 UNK        -0.1800 
     54 N           0.0289  -12.9146  -41.4662 N.am      4 UNK        -0.5000 
     55 C          -0.9638  -13.3756  -42.2398 C.2       3 UNK         0.5000 
     56 O          -1.3307  -14.5506  -42.2583 O.2       3 UNK        -0.5000 
     57 CA         -1.6133  -12.3563  -43.1944 C.3       3 UNK         0.1400 
     58 CB         -2.6411  -11.4901  -42.4507 C.3       3 UNK        -0.1800 
     59 N          -0.6358  -11.4921  -43.8670 N.am      3 UNK        -0.5000 
     60 C           0.3199  -11.9452  -44.6872 C.2       2 UNK         0.5000 
     61 O           0.4989  -13.1433  -44.9264 O.2       2 UNK        -0.5000 
     62 CA          1.2461  -10.9083  -45.3372 C.3       2 UNK         0.1400 
     63 CB          2.3626  -10.4763  -44.3701 C.3       2 UNK        -0.1800 
     64 N           1.8126  -11.5508  -46.5145 N.am      2 UNK        -0.5000 
     65 C           2.3799  -10.9678  -47.5716 C.2       1 UNK         0.5000 
     66 O           2.5821   -9.7550  -47.6722 O.2       1 UNK        -0.5000 
     67 C          -2.9165  -20.2572  -47.1367 C.2       11 UNK         0.5000 
     68 O          -3.8302  -20.5191  -47.9160 O.2       11 UNK        -0.5000 
     69 N          -3.0978  -19.6371  -45.9590 N.am      12 UNK        -0.5000 
     70 CA         -4.3974  -19.1975  -45.4368 C.3       12 UNK         0.1400 
     71 CB         -4.1731  -18.2983  -44.2127 C.3       12 UNK        -0.1800 
     72 C          -5.3303  -20.3729  -45.0812 C.2       12 UNK         0.5000 
     73 O          -6.5507  -20.2176  -45.1117 O.2       12 UNK        -0.5000 
     74 N          -4.7326  -21.5371  -44.7930 N.am      13 UNK        -0.5000 
     75 CA         -5.4098  -22.8212  -44.6079 C.3       13 UNK         0.1400 
     76 CB         -4.5028  -23.7245  -43.7550 C.3       13 UNK        -0.1800 
     77 C          -5.7602  -23.5136  -45.9442 C.2       13 UNK         0.5000 
     78 O          -6.3450  -24.5959  -45.9197 O.2       13 UNK        -0.5000 
     79 N          -5.3612  -22.9068  -47.0740 N.am      14 UNK        -0.5000 
     80 CA         -5.4866  -23.3509  -48.4672 C.3       14 UNK         0.1400 
     81 CB         -6.9496  -23.6607  -48.8418 C.3       14 UNK        -0.1800 
     82 C          -4.5426  -24.5036  -48.8590 C.2       14 UNK         0.5000 
     83 O          -4.4650  -24.8217  -50.0449 O.2       14 UNK        -0.5000 
     84 N          -3.8291  -25.0913  -47.8896 N.am      15 UNK        -0.5000 
     85 CA         -2.9657  -26.2581  -48.0567 C.3       15 UNK         0.1400 
     86 CB         -2.5308  -26.7741  -46.6755 C.3       15 UNK        -0.1800 
     87 C          -1.7523  -25.9738  -48.9543 C.2       15 UNK         0.5000 
     88 O          -1.5735  -26.6486  -49.9686 O.2       15 UNK        -0.5000 
     89 N          -0.9649  -24.9509  -48.5960 N.am      16 UNK        -0.5000 
     90 CA          0.2271  -24.5456  -49.3500 C.3       16 UNK         0.1400 
     91 CB          1.1486  -23.7205  -48.4482 C.3       16 UNK        -0.1800 
     92 C          -0.1057  -23.7844  -50.6465 C.2       16 UNK         0.5000 
     93 O           0.7337  -23.7188  -51.5444 O.2       16 UNK        -0.5000 
     94 N          -1.3333  -23.2567  -50.7362 N.am      17 UNK        -0.5000 
     95 CA         -1.8970  -22.6611  -51.9467 C.3       17 UNK         0.1400 
     96 CB         -2.9466  -21.6153  -51.5358 C.3       17 UNK        -0.1800 
     97 C          -2.5171  -23.7136  -52.8911 C.2       17 UNK         0.5000 
     98 O          -2.9837  -23.3451  -53.9703 O.2       17 UNK        -0.5000 
     99 N          -2.5740  -24.9860  -52.4610 N.am      18 UNK        -0.5000 
    100 CA        -3.1702  -26.1418  -53.1476 C.3       18 UNK         0.1400 
    101 CB        -2.3127  -26.5256  -54.3708 C.3       18 UNK        -0.1800 
    102 C         -4.6607  -25.9527  -53.5151 C.2       18 UNK         0.5000 
    103 O         -5.1494  -26.5922  -54.4480 O.2       18 UNK        -0.5000 
    104 N         -5.3369  -25.0428  -52.7968 N.am      19 UNK        -0.5000 
    105 CA        -6.6744  -24.5000  -53.0466 C.3       19 UNK         0.1400 
    106 CB        -7.7452  -25.5495  -52.6864 C.3       19 UNK        -0.1800 
    107 C         -6.8601  -23.9115  -54.4670 C.2       19 UNK         0.5000 
    108 O         -7.9792  -23.9290  -54.9841 O.2       19 UNK        -0.5000 
    109 N         -5.7739  -23.4173  -55.0832 N.am      20 UNK        -0.5000 
    110 CA        -5.7553  -23.0080  -56.4895 C.3       20 UNK         0.1400 
    111 CB        -5.3139  -24.1982  -57.3582 C.3       20 UNK        -0.1800 
    112 C         -4.8708  -21.7834  -56.7677 C.2       20 UNK         0.5000 
    113 O         -5.2335  -20.9770  -57.6261 O.2       20 UNK        -0.5000 
    114 N         -3.7373  -21.6449  -56.0621 N.am      21 UNK        -0.5000 
    115 CA        -2.7199  -20.6147  -56.3149 C.3       21 UNK         0.1400 
    116 CB        -1.5060  -20.8582  -55.4053 C.3       21 UNK        -0.1800 
    117 C         -3.2226  -19.1701  -56.1412 C.2       21 UNK         0.5000 
    118 O         -2.7236  -18.2677  -56.8146 O.2       21 UNK        -0.5000 
    119 N         -4.2021  -18.9850  -55.2498 N.am      22 UNK        -0.5000 
    120 CA        -4.8746  -17.7027  -54.9956 C.3       22 UNK         0.1400 
    121 C         -6.0562  -17.4080  -55.9685 C.2       22 UNK         0.5000 
    122 N         -6.3811  -18.2751  -56.9215 N.am      22 UNK        -0.7600 
    123 O         -6.6881  -16.3601  -55.8655 O.2       22 UNK        -0.5000 
    124 C124       -5.3151  -17.5727  -53.5121 C.3       23 UNK        -0.0398 
    125 S125       -4.0132  -17.8635  -52.2564 S.3       23 UNK        -0.2404 
    126 C126       -2.5421  -17.0536  -52.9655 C.3       23 UNK        -0.0205 
    127 H127        5.9356  -10.6731  -50.7675 H         1 UNK         0.0600 
    128 H128        6.8074  -10.2180  -49.3010 H         1 UNK         0.0600 
    129 H129        7.0261  -11.8278  -49.9959 H         1 UNK         0.0600 
    130 H130        3.7890  -11.1101  -50.3616 H         1 UNK         0.3000 
    131 H131        2.9024  -12.9074  -48.3082 H         1 UNK         0.0600 
    132 H132        1.4588  -11.1664  -50.3620 H         1 UNK         0.0800 
    133 H133        0.5553  -12.0115  -49.1462 H         1 UNK         0.0800 
    134 H134       -0.4587  -14.0728  -49.4502 H         1 UNK         0.0800 
    135 H135        0.9462  -14.8479  -48.7611 H         1 UNK         0.0800 
    136 H136       -1.5116  -14.9596  -51.5470 H         1 UNK         0.1150 
    137 H137       -1.0298  -19.1676  -52.1851 H         1 UNK         0.1150 
    138 H138        1.5582  -17.1006  -49.4576 H         1 UNK         0.1150 
    139 H139        0.4853  -20.4369  -50.9105 H         1 UNK         0.0800 
    140 H140        2.0220  -19.6159  -50.7745 H         1 UNK         0.0800 
    141 H141       -1.2877  -19.1853  -48.9995 H         1 UNK         0.0800 
    142 H142       -0.6799  -18.6701  -47.4538 H         1 UNK         0.0800 
    143 H143       -1.5457  -21.5093  -48.2050 H         1 UNK         0.0600 
    144 H144       -0.2940  -20.5274  -45.7321 H         1 UNK         0.3000 
    145 H145       -1.1253  -22.2737  -43.6164 H         1 UNK         0.0600 
    146 H146        0.2759  -24.2968  -43.0615 H         1 UNK         0.0600 
    147 H147       -1.1591  -24.6785  -43.9980 H         1 UNK         0.0600 
    148 H148        0.4084  -24.6500  -44.7852 H         1 UNK         0.0600 
    149 H149        0.7243  -21.0932  -43.4911 H         1 UNK         0.3000 
    150 H150        4.0334  -21.5131  -44.2910 H         1 UNK         0.0600 
    151 H151        3.4805  -20.6410  -46.5725 H         1 UNK         0.0600 
    152 H152        4.0917  -19.3661  -45.5298 H         1 UNK         0.0600 
    153 H153        2.3646  -19.4803  -45.8635 H         1 UNK         0.0600 
    154 H154        2.5728  -19.1819  -43.4549 H         1 UNK         0.3000 
    155 H155        2.3503  -20.1119  -40.0038 H         1 UNK         0.0600 
    156 H156        3.9685  -17.9660  -41.4760 H         1 UNK         0.0600 
    157 H157        4.6351  -19.1466  -40.3534 H         1 UNK         0.0600 
    158 H158        3.4999  -17.9356  -39.7774 H         1 UNK         0.0600 
    159 H159        1.4958  -17.7613  -41.3193 H         1 UNK         0.3000 
    160 H160       -1.8329  -18.8967  -42.1101 H         1 UNK         0.0600 
    161 H161       -2.2739  -16.8333  -40.8289 H         1 UNK         0.0600 
    162 H162       -0.6228  -16.8178  -40.2158 H         1 UNK         0.0600 
    163 H163       -1.7257  -18.1060  -39.7487 H         1 UNK         0.0600 
    164 H164       -0.4670  -16.4398  -42.6667 H         1 UNK         0.3000 
    165 H165        0.7061  -17.3530  -45.9208 H         1 UNK         0.0600 
    166 H166       -0.5871  -15.3459  -46.5696 H         1 UNK         0.0600 
    167 H167       -1.6884  -16.6812  -46.2666 H         1 UNK         0.0600 
    168 H168       -1.5035  -15.4075  -45.0660 H         1 UNK         0.0600 
    169 H169        0.8593  -14.8961  -44.5126 H         1 UNK         0.3000 
    170 H170        3.8884  -15.6105  -42.7048 H         1 UNK         0.0600 
    171 H171        4.4948  -14.8401  -44.9875 H         1 UNK         0.0600 
    172 H172        3.1346  -13.7297  -45.0066 H         1 UNK         0.0600 
    173 H173        4.4574  -13.4890  -43.8667 H         1 UNK         0.0600 
    174 H174        2.0990  -13.3640  -42.7481 H         1 UNK         0.3000 
    175 H175        0.1355  -14.3216  -39.9362 H         1 UNK         0.0600 
    176 H176        1.0299  -12.1855  -39.0514 H         1 UNK         0.0600 
    177 H177        2.2538  -13.4408  -38.9474 H         1 UNK         0.0600 
    178 H178        2.3560  -12.2235  -40.2138 H         1 UNK         0.0600 
    179 H179        0.2683  -11.9355  -41.5192 H         1 UNK         0.3000 
    180 H180       -2.1417  -12.9220  -43.9649 H         1 UNK         0.0600 
    181 H181       -2.1702  -10.8670  -41.6893 H         1 UNK         0.0600 
    182 H182       -3.3866  -12.1111  -41.9520 H         1 UNK         0.0600 
    183 H183       -3.1748  -10.8341  -43.1385 H         1 UNK         0.0600 
    184 H184       -0.7243  -10.4983  -43.7101 H         1 UNK         0.3000 
    185 H185        0.6546  -10.0432  -45.6434 H         1 UNK         0.0600 
    186 H186        2.9713  -11.3230  -44.0521 H         1 UNK         0.0600 
    187 H187        3.0262   -9.7460  -44.8332 H         1 UNK         0.0600 
    188 H188        1.9484  -10.0128  -43.4741 H         1 UNK         0.0600 
    189 H189        1.6442  -12.5502  -46.5187 H         1 UNK         0.3000 
    190 H190       -2.2869  -19.4620  -45.3734 H         1 UNK         0.3000 
    191 H191       -4.8898  -18.6060  -46.2116 H         1 UNK         0.0600 
    192 H192       -3.5256  -17.4541  -44.4497 H         1 UNK         0.0600 
    193 H193       -3.7223  -18.8515  -43.3899 H         1 UNK         0.0600 
    194 H194       -5.1180  -17.8903  -43.8515 H         1 UNK         0.0600 
    195 H195       -3.7246  -21.5598  -44.7930 H         1 UNK         0.3000 
    196 H196       -6.3435  -22.6582  -44.0656 H         1 UNK         0.0600 
    197 H197       -4.9951  -24.6703  -43.5254 H         1 UNK         0.0600 
    198 H198       -4.2543  -23.2520  -42.8045 H         1 UNK         0.0600 
    199 H199       -3.5699  -23.9587  -44.2684 H         1 UNK         0.0600 
    200 H200       -4.8778  -22.0211  -46.9808 H         1 UNK         0.3000 
    201 H201       -5.1785  -22.4985  -49.0726 H         1 UNK         0.0600 
    202 H202       -7.6085  -22.8332  -48.5788 H         1 UNK         0.0600 
    203 H203       -7.3188  -24.5579  -48.3449 H         1 UNK         0.0600 
    204 H204       -7.0498  -23.8257  -49.9145 H         1 UNK         0.0600 
    205 H205       -3.9166  -24.7279  -46.9525 H         1 UNK         0.3000 
    206 H206       -3.5559  -27.0409  -48.5379 H         1 UNK         0.0600 
    207 H207       -3.3934  -27.0644  -46.0754 H         1 UNK         0.0600 
    208 H208       -1.8909  -27.6522  -46.7704 H         1 UNK         0.0600 
    209 H209       -1.9744  -26.0216  -46.1158 H         1 UNK         0.0600 
    210 H210       -1.1933  -24.4216  -47.7582 H         1 UNK         0.3000 
    211 H211        0.7728  -25.4462  -49.6400 H         1 UNK         0.0600 
    212 H212        0.6600  -22.8166  -48.0910 H         1 UNK         0.0600 
    213 H213        2.0527  -23.4163  -48.9769 H         1 UNK         0.0600 
    214 H214        1.4590  -24.3026  -47.5814 H         1 UNK         0.0600 
    215 H215       -1.9611  -23.3831  -49.9564 H         1 UNK         0.3000 
    216 H216       -1.1054  -22.1507  -52.4986 H         1 UNK         0.0600 
    217 H217       -3.3438  -21.0925  -52.4067 H         1 UNK         0.0600 
    218 H218       -2.5184  -20.8606  -50.8756 H         1 UNK         0.0600 
    219 H219       -3.7896  -22.0728  -51.0184 H         1 UNK         0.0600 
    220 H220       -2.2061  -25.1919  -51.5410 H         1 UNK         0.3000 
    221 H221       -3.1346  -26.9698  -52.4383 H         1 UNK         0.0600 
    222 H222       -2.3573  -25.7633  -55.1495 H         1 UNK         0.0600 
    223 H223       -1.2675  -26.6601  -54.0922 H         1 UNK         0.0600 
    224 H224       -2.6523  -27.4638  -54.8110 H         1 UNK         0.0600 
    225 H225       -4.8607  -24.6688  -51.9816 H         1 UNK         0.3000 
    226 H226       -6.7911  -23.6598  -52.3615 H         1 UNK         0.0600 
    227 H227       -7.6007  -25.9261  -51.6736 H         1 UNK         0.0600 
    228 H228       -7.7193  -26.4005  -53.3677 H         1 UNK         0.0600 
    229 H229       -8.7476  -25.1223  -52.7312 H         1 UNK         0.0600 
    230 H230       -4.8832  -23.4351  -54.5974 H         1 UNK         0.3000 
    231 H231       -6.7623  -22.7209  -56.7998 H         1 UNK         0.0600 
    232 H232       -6.0073  -25.0340  -57.2624 H         1 UNK         0.0600 
    233 H233       -4.3228  -24.5541  -57.0737 H         1 UNK         0.0600 
    234 H234       -5.2779  -23.9246  -58.4135 H         1 UNK         0.0600 
    235 H235       -3.4925  -22.3392  -55.3594 H         1 UNK         0.3000 
    236 H236       -2.3954  -20.7249  -57.3516 H         1 UNK         0.0600 
    237 H237       -0.7017  -20.1568  -55.6311 H         1 UNK         0.0600 
    238 H238       -1.7645  -20.7292  -54.3545 H         1 UNK         0.0600 
    239 H239       -1.1062  -21.8639  -55.5356 H         1 UNK         0.0600 
    240 H240       -4.5548  -19.7861  -54.7481 H         1 UNK         0.3000 
    241 H241       -4.1619  -16.9000  -55.1898 H         1 UNK         0.0600 
    242 H242       -7.1452  -18.0586  -57.5419 H         1 UNK         0.3800 
    243 H243       -5.8652  -19.1382  -57.0523 H         1 UNK         0.3800 
    244 H244       -5.7202  -16.5759  -53.3295 H         1 UNK         0.0800 
    245 H245       -6.1300  -18.2680  -53.3042 H         1 UNK         0.0800 
    246 H246       -2.7946  -16.0319  -53.2532 H         1 UNK         0.0800 
    247 H247       -2.2294  -17.5681  -53.8735 H         1 UNK         0.0800 
@<TRIPOS>BOND
     1    1    2 1    
     2    1  127 1    
     3    1  128 1    
     4    1  129 1    
     5    2    3 2    
     6    2    4 am   BACKBONE|DICT|INTERRES
     7    4    5 1    
     8    4  130 1    
     9    5    6 1    
    10    5   65 1    
    11    5  131 1    
    12    6    7 1    
    13    6  132 1    
    14    6  133 1    
    15    7    8 1    
    16    8    9 1    
    17    8  134 1    
    18    8  135 1    
    19    9   10 ar   
    20    9   14 ar   
    21   10   11 ar   
    22   10  136 1    
    23   11   12 ar   
    24   11  126 1    
    25   12   13 ar   
    26   12  137 1    
    27   13   14 ar   
    28   13   15 1    
    29   14  138 1    
    30   15   16 1    
    31   15  139 1    
    32   15  140 1    
    33   16   17 1    
    34   17   18 1    
    35   17  141 1    
    36   17  142 1    
    37   18   19 1    
    38   18   67 1    
    39   18  143 1    
    40   19   20 am   BACKBONE|DICT|INTERRES
    41   19  144 1    
    42   20   21 2    
    43   20   22 1    
    44   22   23 1    
    45   22   24 1    
    46   22  145 1    
    47   23  146 1    
    48   23  147 1    
    49   23  148 1    
    50   24   25 am   BACKBONE|DICT|INTERRES
    51   24  149 1    
    52   25   26 2    
    53   25   27 1    
    54   27   28 1    
    55   27   29 1    
    56   27  150 1    
    57   28  151 1    
    58   28  152 1    
    59   28  153 1    
    60   29   30 am   BACKBONE|DICT|INTERRES
    61   29  154 1    
    62   30   31 2    
    63   30   32 1    
    64   32   33 1    
    65   32   34 1    
    66   32  155 1    
    67   33  156 1    
    68   33  157 1    
    69   33  158 1    
    70   34   35 am   BACKBONE|DICT|INTERRES
    71   34  159 1    
    72   35   36 2    
    73   35   37 1    
    74   37   38 1    
    75   37   39 1    
    76   37  160 1    
    77   38  161 1    
    78   38  162 1    
    79   38  163 1    
    80   39   40 am   BACKBONE|DICT|INTERRES
    81   39  164 1    
    82   40   41 2    
    83   40   42 1    
    84   42   43 1    
    85   42   44 1    
    86   42  165 1    
    87   43  166 1    
    88   43  167 1    
    89   43  168 1    
    90   44   45 am   BACKBONE|DICT|INTERRES
    91   44  169 1    
    92   45   46 2    
    93   45   47 1    
    94   47   48 1    
    95   47   49 1    
    96   47  170 1    
    97   48  171 1    
    98   48  172 1    
    99   48  173 1    
   100   49   50 am   BACKBONE|DICT|INTERRES
   101   49  174 1    
   102   50   51 2    
   103   50   52 1    
   104   52   53 1    
   105   52   54 1    
   106   52  175 1    
   107   53  176 1    
   108   53  177 1    
   109   53  178 1    
   110   54   55 am   BACKBONE|DICT|INTERRES
   111   54  179 1    
   112   55   56 2    
   113   55   57 1    
   114   57   58 1    
   115   57   59 1    
   116   57  180 1    
   117   58  181 1    
   118   58  182 1    
   119   58  183 1    
   120   59   60 am   BACKBONE|DICT|INTERRES
   121   59  184 1    
   122   60   61 2    
   123   60   62 1    
   124   62   63 1    
   125   62   64 1    
   126   62  185 1    
   127   63  186 1    
   128   63  187 1    
   129   63  188 1    
   130   64   65 am   BACKBONE|DICT|INTERRES
   131   64  189 1    
   132   65   66 2    
   133   67   68 2    
   134   67   69 am   BACKBONE|DICT|INTERRES
   135   69   70 1    
   136   69  190 1    
   137   70   71 1    
   138   70   72 1    
   139   70  191 1    
   140   71  192 1    
   141   71  193 1    
   142   71  194 1    
   143   72   73 2    
   144   72   74 am   BACKBONE|DICT|INTERRES
   145   74   75 1    
   146   74  195 1    
   147   75   76 1    
   148   75   77 1    
   149   75  196 1    
   150   76  197 1    
   151   76  198 1    
   152   76  199 1    
   153   77   78 2    
   154   77   79 am   BACKBONE|DICT|INTERRES
   155   79   80 1    
   156   79  200 1    
   157   80   81 1    
   158   80   82 1    
   159   80  201 1    
   160   81  202 1    
   161   81  203 1    
   162   81  204 1    
   163   82   83 2    
   164   82   84 am   BACKBONE|DICT|INTERRES
   165   84   85 1    
   166   84  205 1    
   167   85   86 1    
   168   85   87 1    
   169   85  206 1    
   170   86  207 1    
   171   86  208 1    
   172   86  209 1    
   173   87   88 2    
   174   87   89 am   BACKBONE|DICT|INTERRES
   175   89   90 1    
   176   89  210 1    
   177   90   91 1    
   178   90   92 1    
   179   90  211 1    
   180   91  212 1    
   181   91  213 1    
   182   91  214 1    
   183   92   93 2    
   184   92   94 am   BACKBONE|DICT|INTERRES
   185   94   95 1    
   186   94  215 1    
   187   95   96 1    
   188   95   97 1    
   189   95  216 1    
   190   96  217 1    
   191   96  218 1    
   192   96  219 1    
   193   97   98 2    
   194   97   99 am   BACKBONE|DICT|INTERRES
   195   99  100 1    
   196   99  220 1    
   197  100  101 1    
   198  100  102 1    
   199  100  221 1    
   200  101  222 1    
   201  101  223 1    
   202  101  224 1    
   203  102  103 2    
   204  102  104 am   BACKBONE|DICT|INTERRES
   205  104  105 1    
   206  104  225 1    
   207  105  106 1    
   208  105  107 1    
   209  105  226 1    
   210  106  227 1    
   211  106  228 1    
   212  106  229 1    
   213  107  108 2    
   214  107  109 am   BACKBONE|DICT|INTERRES
   215  109  110 1    
   216  109  230 1    
   217  110  111 1    
   218  110  112 1    
   219  110  231 1    
   220  111  232 1    
   221  111  233 1    
   222  111  234 1    
   223  112  113 2    
   224  112  114 am   BACKBONE|DICT|INTERRES
   225  114  115 1    
   226  114  235 1    
   227  115  116 1    
   228  115  117 1    
   229  115  236 1    
   230  116  237 1    
   231  116  238 1    
   232  116  239 1    
   233  117  118 2    
   234  117  119 am   BACKBONE|DICT|INTERRES
   235  119  120 1    
   236  119  240 1    
   237  120  121 1    
   238  120  124 1    
   239  120  241 1    
   240  121  122 am   BACKBONE|DICT|INTERRES
   241  121  123 2    
   242  122  242 1    
   243  122  243 1    
   244  124  125 1    
   245  124  244 1    
   246  124  245 1    
   247  125  126 1    
   248  126  246 1    
   249  126  247 1    
@<TRIPOS>SUBSTRUCTURE
     1 UNK         1 GROUP             0       ****    0 ROOT    
