@<TRIPOS>MOLECULE
3R540
247   249    1
SMALL
USER_CHARGES


@<TRIPOS>ATOM
      1 CA          2.1593   -8.4747  -49.9261 C.3       0 UNK        -0.1800 
      2 C           0.8929   -9.1150  -49.3592 C.2       0 UNK         0.5000 
      3 O          -0.1496   -8.4637  -49.3355 O.2       0 UNK        -0.5000 
      4 N           0.9162  -10.3773  -48.9074 N.am      1 UNK        -0.5000 
      5 CA          2.0816  -11.2559  -48.7722 C.3       1 UNK         0.1400 
      6 C6          1.6377  -12.7194  -48.5361 C.3       23 UNK        -0.0398 
      7 S7          3.0115  -13.9171  -48.6388 S.3       23 UNK        -0.2404 
      8 C8          2.3039  -15.3345  -47.7449 C.3       23 UNK        -0.0205 
      9 C9          1.3517  -16.1455  -48.6101 C.ar      23 UNK        -0.0193 
     10 C10         0.0067  -15.7797  -48.7207 C.ar      23 UNK        -0.1150 
     11 C11        -0.8831  -16.5704  -49.4527 C.ar      23 UNK        -0.0193 
     12 C12        -0.4103  -17.7102  -50.1053 C.ar      23 UNK        -0.1150 
     13 C13         0.9308  -18.0887  -50.0079 C.ar      23 UNK        -0.0193 
     14 C14         1.8074  -17.2979  -49.2589 C.ar      23 UNK        -0.1150 
     15 C15         1.4330  -19.3580  -50.6910 C.3       23 UNK        -0.0205 
     16 S16         0.4694  -20.8508  -50.2627 S.3       23 UNK        -0.2404 
     17 C17         0.4188  -20.7481  -48.4427 C.3       23 UNK        -0.0398 
     18 CA          0.1570  -22.0948  -47.7261 C.3       11 UNK         0.1400 
     19 N           0.3664  -21.9575  -46.2827 N.am      11 UNK        -0.5000 
     20 C           0.3420  -22.9527  -45.3867 C.2       10 UNK         0.5000 
     21 O           0.1810  -24.1357  -45.6805 O.2       10 UNK        -0.5000 
     22 CA          0.4708  -22.5515  -43.9054 C.3       10 UNK         0.1400 
     23 CB          1.9343  -22.2681  -43.5359 C.3       10 UNK        -0.1800 
     24 N          -0.3593  -21.3954  -43.5620 N.am      10 UNK        -0.5000 
     25 C          -1.6991  -21.3842  -43.6270 C.2       9 UNK         0.5000 
     26 O          -2.3776  -22.3600  -43.9452 O.2       9 UNK        -0.5000 
     27 CA         -2.3997  -20.0472  -43.3342 C.3       9 UNK         0.1400 
     28 CB         -2.4910  -19.7972  -41.8216 C.3       9 UNK        -0.1800 
     29 N          -1.7395  -18.9153  -43.9819 N.am      9 UNK        -0.5000 
     30 C          -1.6112  -18.7621  -45.3074 C.2       8 UNK         0.5000 
     31 O          -2.0728  -19.5443  -46.1372 O.2       8 UNK        -0.5000 
     32 CA         -0.7782  -17.5606  -45.7839 C.3       8 UNK         0.1400 
     33 CB         -1.5959  -16.2635  -45.6969 C.3       8 UNK        -0.1800 
     34 N           0.4724  -17.4155  -45.0370 N.am      8 UNK        -0.5000 
     35 C           1.4460  -18.3379  -45.0158 C.2       7 UNK         0.5000 
     36 O           1.4124  -19.3833  -45.6620 O.2       7 UNK        -0.5000 
     37 CA          2.6350  -18.0795  -44.0792 C.3       7 UNK         0.1400 
     38 CB          3.6948  -17.2153  -44.7659 C.3       7 UNK        -0.1800 
     39 N           2.2206  -17.4441  -42.8319 N.am      7 UNK        -0.5000 
     40 C           1.5415  -18.0728  -41.8634 C.2       6 UNK         0.5000 
     41 O           1.2315  -19.2644  -41.9048 O.2       6 UNK        -0.5000 
     42 CA          1.0903  -17.2030  -40.6765 C.3       6 UNK         0.1400 
     43 CB          2.2530  -16.9602  -39.7025 C.3       6 UNK        -0.1800 
     44 N           0.5400  -15.9169  -41.1097 N.am      6 UNK        -0.5000 
     45 C          -0.5780  -15.7846  -41.8365 C.2       5 UNK         0.5000 
     46 O          -1.2779  -16.7333  -42.1867 O.2       5 UNK        -0.5000 
     47 CA         -0.9761  -14.3632  -42.2686 C.3       5 UNK         0.1400 
     48 CB         -1.9389  -13.7453  -41.2439 C.3       5 UNK        -0.1800 
     49 N           0.1496  -13.4514  -42.4775 N.am      5 UNK        -0.5000 
     50 C           1.1324  -13.5981  -43.3773 C.2       4 UNK         0.5000 
     51 O           1.2561  -14.5911  -44.1001 O.2       4 UNK        -0.5000 
     52 CA          2.0889  -12.3930  -43.5032 C.3       4 UNK         0.1400 
     53 CB          2.5087  -11.8153  -42.1321 C.3       4 UNK        -0.1800 
     54 N           3.2682  -12.6306  -44.3387 N.am      4 UNK        -0.5000 
     55 C           4.3091  -13.4402  -44.0888 C.2       3 UNK         0.5000 
     56 O           4.3633  -14.2102  -43.1286 O.2       3 UNK        -0.5000 
     57 CA          5.5203  -13.3475  -45.0470 C.3       3 UNK         0.1400 
     58 CB          5.8023  -14.6800  -45.7542 C.3       3 UNK        -0.1800 
     59 N           5.3791  -12.3020  -46.0630 N.am      3 UNK        -0.5000 
     60 C           5.6252  -10.9999  -45.8634 C.2       2 UNK         0.5000 
     61 O           6.0599  -10.5403  -44.8071 O.2       2 UNK        -0.5000 
     62 CA          5.3089  -10.0456  -47.0323 C.3       2 UNK         0.1400 
     63 CB          6.5844   -9.7267  -47.8269 C.3       2 UNK        -0.1800 
     64 N           4.2880  -10.5537  -47.9552 N.am      2 UNK        -0.5000 
     65 C           3.0002  -10.7495  -47.6408 C.2       1 UNK         0.5000 
     66 O           2.5340  -10.5632  -46.5149 O.2       1 UNK        -0.5000 
     67 C          -1.2398  -22.6738  -48.0435 C.2       11 UNK         0.5000 
     68 O          -1.3406  -23.6484  -48.7915 O.2       11 UNK        -0.5000 
     69 N          -2.2840  -22.1014  -47.4262 N.am      12 UNK        -0.5000 
     70 CA         -3.6703  -22.5523  -47.5448 C.3       12 UNK         0.1400 
     71 CB         -4.6005  -21.5706  -46.8183 C.3       12 UNK        -0.1800 
     72 C          -3.8791  -23.9885  -47.0371 C.2       12 UNK         0.5000 
     73 O          -4.5404  -24.7721  -47.7171 O.2       12 UNK        -0.5000 
     74 N          -3.2860  -24.3186  -45.8813 N.am      13 UNK        -0.5000 
     75 CA         -3.3211  -25.6533  -45.2818 C.3       13 UNK         0.1400 
     76 CB         -2.7681  -25.5877  -43.8503 C.3       13 UNK        -0.1800 
     77 C          -2.5634  -26.7118  -46.1042 C.2       13 UNK         0.5000 
     78 O          -3.0054  -27.8596  -46.1579 O.2       13 UNK        -0.5000 
     79 N          -1.4453  -26.3168  -46.7287 N.am      14 UNK        -0.5000 
     80 CA         -0.6478  -27.1702  -47.6086 C.3       14 UNK         0.1400 
     81 CB          0.7154  -26.5134  -47.8760 C.3       14 UNK        -0.1800 
     82 C          -1.3700  -27.4889  -48.9291 C.2       14 UNK         0.5000 
     83 O          -1.3368  -28.6374  -49.3732 O.2       14 UNK        -0.5000 
     84 N          -2.0093  -26.4746  -49.5282 N.am      15 UNK        -0.5000 
     85 CA         -2.7877  -26.6100  -50.7587 C.3       15 UNK         0.1400 
     86 CB         -3.0338  -25.2195  -51.3632 C.3       15 UNK        -0.1800 
     87 C          -4.1136  -27.3573  -50.5318 C.2       15 UNK         0.5000 
     88 O          -4.3973  -28.3183  -51.2472 O.2       15 UNK        -0.5000 
     89 N          -4.8863  -26.8878  -49.5412 N.am      16 UNK        -0.5000 
     90 CA         -6.2021  -27.3626  -49.1048 C.3       16 UNK         0.1400 
     91 CB         -6.0150  -28.5948  -48.1966 C.3       16 UNK        -0.1800 
     92 C          -7.2220  -27.6149  -50.2455 C.2       16 UNK         0.5000 
     93 O          -7.7218  -28.7340  -50.3658 O.2       16 UNK        -0.5000 
     94 N          -7.5562  -26.6379  -51.0992 N.am      17 UNK        -0.5000 
     95 CA         -7.1055  -25.2516  -51.2075 C.3       17 UNK         0.1400 
     96 CB         -7.8892  -24.3568  -50.2321 C.3       17 UNK        -0.1800 
     97 C          -7.3248  -24.8228  -52.6687 C.2       17 UNK         0.5000 
     98 O          -8.0821  -25.4811  -53.3896 O.2       17 UNK        -0.5000 
     99 N          -6.6612  -23.7430  -53.0915 N.am      18 UNK        -0.5000 
    100 CA        -6.6943  -23.2384  -54.4620 C.3       18 UNK         0.1400 
    101 CB        -5.6391  -23.9812  -55.3032 C.3       18 UNK        -0.1800 
    102 C         -6.4228  -21.7299  -54.4688 C.2       18 UNK         0.5000 
    103 O         -5.8961  -21.1942  -53.4890 O.2       18 UNK        -0.5000 
    104 N         -6.7310  -21.0784  -55.5985 N.am      19 UNK        -0.5000 
    105 CA        -6.4831  -19.6532  -55.8516 C.3       19 UNK         0.1400 
    106 CB        -7.0993  -19.2663  -57.2041 C.3       19 UNK        -0.1800 
    107 C         -4.9901  -19.2701  -55.8100 C.2       19 UNK         0.5000 
    108 O         -4.6611  -18.1420  -55.4436 O.2       19 UNK        -0.5000 
    109 N         -4.1120  -20.2345  -56.1225 N.am      20 UNK        -0.5000 
    110 CA        -2.6569  -20.1364  -55.9768 C.3       20 UNK         0.1400 
    111 CB        -2.0109  -21.3690  -56.6278 C.3       20 UNK        -0.1800 
    112 C         -2.1949  -19.9993  -54.5101 C.2       20 UNK         0.5000 
    113 O         -1.1089  -19.4735  -54.2671 O.2       20 UNK        -0.5000 
    114 N         -3.0356  -20.4480  -53.5681 N.am      21 UNK        -0.5000 
    115 CA        -2.8611  -20.3050  -52.1247 C.3       21 UNK         0.1400 
    116 CB        -3.0414  -21.6801  -51.4668 C.3       21 UNK        -0.1800 
    117 C         -3.8297  -19.2501  -51.5476 C.2       21 UNK         0.5000 
    118 O         -4.1583  -19.3027  -50.3623 O.2       21 UNK        -0.5000 
    119 N         -4.2694  -18.3145  -52.4002 N.am      22 UNK        -0.5000 
    120 CA        -5.1949  -17.2037  -52.1174 C.3       22 UNK         0.1400 
    121 C         -6.6853  -17.6243  -51.9343 C.2       22 UNK         0.5000 
    122 N         -7.0771  -18.8644  -52.2018 N.am      22 UNK        -0.7600 
    123 O         -7.5184  -16.7994  -51.5684 O.2       22 UNK        -0.5000 
    124 C124       -4.7229  -16.2386  -50.9886 C.3       23 UNK        -0.0398 
    125 S125       -2.9657  -15.7375  -51.1058 S.3       23 UNK        -0.2404 
    126 C126       -2.3707  -16.2612  -49.4665 C.3       23 UNK        -0.0205 
    127 H127        2.6775   -9.1429  -50.6126 H         1 UNK         0.0600 
    128 H128        2.8404   -8.1918  -49.1239 H         1 UNK         0.0600 
    129 H129        1.9092   -7.5706  -50.4815 H         1 UNK         0.0600 
    130 H130        0.0598  -10.7514  -48.5256 H         1 UNK         0.3000 
    131 H131        2.6304  -11.2325  -49.7152 H         1 UNK         0.0600 
    132 H132        1.1366  -12.8175  -47.5709 H         1 UNK         0.0800 
    133 H133        0.9040  -13.0046  -49.2914 H         1 UNK         0.0800 
    134 H134        1.8025  -15.0005  -46.8349 H         1 UNK         0.0800 
    135 H135        3.1219  -15.9756  -47.4180 H         1 UNK         0.0800 
    136 H136       -0.3553  -14.9043  -48.2016 H         1 UNK         0.1150 
    137 H137       -1.1003  -18.3214  -50.6634 H         1 UNK         0.1150 
    138 H138        2.8449  -17.5869  -49.1669 H         1 UNK         0.1150 
    139 H139        1.3946  -19.2144  -51.7716 H         1 UNK         0.0800 
    140 H140        2.4793  -19.5398  -50.4413 H         1 UNK         0.0800 
    141 H141       -0.3268  -20.0055  -48.1553 H         1 UNK         0.0800 
    142 H142        1.3804  -20.3507  -48.1156 H         1 UNK         0.0800 
    143 H143        0.8959  -22.8147  -48.0841 H         1 UNK         0.0600 
    144 H144        0.5520  -21.0141  -45.9501 H         1 UNK         0.3000 
    145 H145        0.1283  -23.3955  -43.3031 H         1 UNK         0.0600 
    146 H146        2.0360  -22.0412  -42.4745 H         1 UNK         0.0600 
    147 H147        2.5635  -23.1338  -43.7461 H         1 UNK         0.0600 
    148 H148        2.3377  -21.4257  -44.0974 H         1 UNK         0.0600 
    149 H149        0.1239  -20.5564  -43.2628 H         1 UNK         0.3000 
    150 H150       -3.4152  -20.1105  -43.7303 H         1 UNK         0.0600 
    151 H151       -2.9834  -20.6290  -41.3163 H         1 UNK         0.0600 
    152 H152       -3.0682  -18.8979  -41.6062 H         1 UNK         0.0600 
    153 H153       -1.5046  -19.6753  -41.3727 H         1 UNK         0.0600 
    154 H154       -1.3714  -18.1941  -43.3665 H         1 UNK         0.3000 
    155 H155       -0.5144  -17.7382  -46.8270 H         1 UNK         0.0600 
    156 H156       -2.0198  -16.1202  -44.7044 H         1 UNK         0.0600 
    157 H157       -0.9897  -15.3889  -45.9320 H         1 UNK         0.0600 
    158 H158       -2.4293  -16.2876  -46.3988 H         1 UNK         0.0600 
    159 H159        0.6006  -16.5606  -44.5076 H         1 UNK         0.3000 
    160 H160        3.0893  -19.0436  -43.8416 H         1 UNK         0.0600 
    161 H161        4.0226  -17.6637  -45.7046 H         1 UNK         0.0600 
    162 H162        3.3113  -16.2194  -44.9863 H         1 UNK         0.0600 
    163 H163        4.5731  -17.1050  -44.1304 H         1 UNK         0.0600 
    164 H164        2.3957  -16.4519  -42.7475 H         1 UNK         0.3000 
    165 H165        0.3058  -17.7461  -40.1450 H         1 UNK         0.0600 
    166 H166        1.9201  -16.4130  -38.8204 H         1 UNK         0.0600 
    167 H167        2.6760  -17.9047  -39.3576 H         1 UNK         0.0600 
    168 H168        3.0581  -16.3898  -40.1676 H         1 UNK         0.0600 
    169 H169        1.0609  -15.0867  -40.8690 H         1 UNK         0.3000 
    170 H170       -1.5050  -14.4441  -43.2188 H         1 UNK         0.0600 
    171 H171       -2.8056  -14.3885  -41.0846 H         1 UNK         0.0600 
    172 H172       -1.4572  -13.5982  -40.2763 H         1 UNK         0.0600 
    173 H173       -2.3126  -12.7795  -41.5844 H         1 UNK         0.0600 
    174 H174        0.1317  -12.6031  -41.9305 H         1 UNK         0.3000 
    175 H175        1.5228  -11.6197  -44.0242 H         1 UNK         0.0600 
    176 H176        2.9601  -12.5745  -41.4926 H         1 UNK         0.0600 
    177 H177        3.2327  -11.0090  -42.2519 H         1 UNK         0.0600 
    178 H178        1.6586  -11.3953  -41.5941 H         1 UNK         0.0600 
    179 H179        3.3108  -12.0538  -45.1696 H         1 UNK         0.3000 
    180 H180        6.3905  -13.1156  -44.4294 H         1 UNK         0.0600 
    181 H181        4.9603  -14.9965  -46.3671 H         1 UNK         0.0600 
    182 H182        6.0092  -15.4684  -45.0310 H         1 UNK         0.0600 
    183 H183        6.6761  -14.6048  -46.4016 H         1 UNK         0.0600 
    184 H184        5.0238  -12.5913  -46.9631 H         1 UNK         0.3000 
    185 H185        4.9352   -9.1151  -46.5997 H         1 UNK         0.0600 
    186 H186        6.3913   -8.9863  -48.6034 H         1 UNK         0.0600 
    187 H187        7.3586   -9.3178  -47.1761 H         1 UNK         0.0600 
    188 H188        6.9942  -10.6175  -48.3047 H         1 UNK         0.0600 
    189 H189        4.5995  -10.7476  -48.8964 H         1 UNK         0.3000 
    190 H190       -2.1261  -21.2817  -46.8443 H         1 UNK         0.3000 
    191 H191       -3.9357  -22.5419  -48.6029 H         1 UNK         0.0600 
    192 H192       -4.3592  -21.4962  -45.7576 H         1 UNK         0.0600 
    193 H193       -5.6418  -21.8847  -46.8996 H         1 UNK         0.0600 
    194 H194       -4.5275  -20.5715  -47.2490 H         1 UNK         0.0600 
    195 H195       -2.7943  -23.5998  -45.3567 H         1 UNK         0.3000 
    196 H196       -4.3658  -25.9664  -45.2272 H         1 UNK         0.0600 
    197 H197       -2.7933  -26.5690  -43.3747 H         1 UNK         0.0600 
    198 H198       -3.3575  -24.9113  -43.2311 H         1 UNK         0.0600 
    199 H199       -1.7344  -25.2403  -43.8351 H         1 UNK         0.0600 
    200 H200       -1.1017  -25.3741  -46.5739 H         1 UNK         0.3000 
    201 H201       -0.4682  -28.1152  -47.0916 H         1 UNK         0.0600 
    202 H202        1.2730  -26.3747  -46.9497 H         1 UNK         0.0600 
    203 H203        0.6081  -25.5376  -48.3504 H         1 UNK         0.0600 
    204 H204        1.3263  -27.1336  -48.5330 H         1 UNK         0.0600 
    205 H205       -1.9440  -25.5458  -49.1222 H         1 UNK         0.3000 
    206 H206       -2.1991  -27.1856  -51.4764 H         1 UNK         0.0600 
    207 H207       -2.0900  -24.7466  -51.6339 H         1 UNK         0.0600 
    208 H208       -3.6386  -25.2824  -52.2689 H         1 UNK         0.0600 
    209 H209       -3.5482  -24.5596  -50.6636 H         1 UNK         0.0600 
    210 H210       -4.5454  -26.0925  -49.0051 H         1 UNK         0.3000 
    211 H211       -6.6244  -26.5719  -48.4850 H         1 UNK         0.0600 
    212 H212       -5.5575  -29.4258  -48.7345 H         1 UNK         0.0600 
    213 H213       -6.9694  -28.9418  -47.7989 H         1 UNK         0.0600 
    214 H214       -5.3795  -28.3591  -47.3436 H         1 UNK         0.0600 
    215 H215       -8.1757  -26.8754  -51.8646 H         1 UNK         0.3000 
    216 H216       -6.0406  -25.1668  -51.0043 H         1 UNK         0.0600 
    217 H217       -7.5953  -23.3117  -50.3371 H         1 UNK         0.0600 
    218 H218       -7.7077  -24.6354  -49.1948 H         1 UNK         0.0600 
    219 H219       -8.9636  -24.4150  -50.4110 H         1 UNK         0.0600 
    220 H220       -6.1165  -23.1814  -52.4500 H         1 UNK         0.3000 
    221 H221       -7.6859  -23.3990  -54.8907 H         1 UNK         0.0600 
    222 H222       -4.6337  -23.8338  -54.9061 H         1 UNK         0.0600 
    223 H223       -5.8342  -25.0535  -55.3245 H         1 UNK         0.0600 
    224 H224       -5.6393  -23.6359  -56.3376 H         1 UNK         0.0600 
    225 H225       -7.1564  -21.5945  -56.3554 H         1 UNK         0.3000 
    226 H226       -6.9889  -19.0821  -55.0709 H         1 UNK         0.0600 
    227 H227       -8.1734  -19.4523  -57.2161 H         1 UNK         0.0600 
    228 H228       -6.9529  -18.2052  -57.4107 H         1 UNK         0.0600 
    229 H229       -6.6511  -19.8259  -58.0261 H         1 UNK         0.0600 
    230 H230       -4.4746  -21.1263  -56.4247 H         1 UNK         0.3000 
    231 H231       -2.3221  -19.2459  -56.5128 H         1 UNK         0.0600 
    232 H232       -0.9231  -21.3199  -56.5634 H         1 UNK         0.0600 
    233 H233       -2.2694  -21.4389  -57.6845 H         1 UNK         0.0600 
    234 H234       -2.3272  -22.2929  -56.1415 H         1 UNK         0.0600 
    235 H235       -3.9327  -20.8249  -53.8515 H         1 UNK         0.3000 
    236 H236       -1.8488  -19.9667  -51.9089 H         1 UNK         0.0600 
    237 H237       -2.3592  -22.4085  -51.9027 H         1 UNK         0.0600 
    238 H238       -2.8144  -21.6277  -50.4031 H         1 UNK         0.0600 
    239 H239       -4.0591  -22.0553  -51.5755 H         1 UNK         0.0600 
    240 H240       -3.9703  -18.3725  -53.3649 H         1 UNK         0.3000 
    241 H241       -5.1957  -16.6206  -53.0387 H         1 UNK         0.0600 
    242 H242       -6.4259  -19.5743  -52.5187 H         1 UNK         0.3800 
    243 H243       -8.0467  -19.1050  -52.0762 H         1 UNK         0.3800 
    244 H244       -5.3192  -15.3252  -51.0112 H         1 UNK         0.0800 
    245 H245       -4.9188  -16.6873  -50.0140 H         1 UNK         0.0800 
    246 H246       -2.6157  -15.4851  -48.7402 H         1 UNK         0.0800 
    247 H247       -2.8961  -17.1610  -49.1433 H         1 UNK         0.0800 
@<TRIPOS>BOND
     1    1    2 1    
     2    1  127 1    
     3    1  128 1    
     4    1  129 1    
     5    2    3 2    
     6    2    4 am   BACKBONE|DICT|INTERRES
     7    4    5 1    
     8    4  130 1    
     9    5    6 1    
    10    5   65 1    
    11    5  131 1    
    12    6    7 1    
    13    6  132 1    
    14    6  133 1    
    15    7    8 1    
    16    8    9 1    
    17    8  134 1    
    18    8  135 1    
    19    9   10 ar   
    20    9   14 ar   
    21   10   11 ar   
    22   10  136 1    
    23   11   12 ar   
    24   11  126 1    
    25   12   13 ar   
    26   12  137 1    
    27   13   14 ar   
    28   13   15 1    
    29   14  138 1    
    30   15   16 1    
    31   15  139 1    
    32   15  140 1    
    33   16   17 1    
    34   17   18 1    
    35   17  141 1    
    36   17  142 1    
    37   18   19 1    
    38   18   67 1    
    39   18  143 1    
    40   19   20 am   BACKBONE|DICT|INTERRES
    41   19  144 1    
    42   20   21 2    
    43   20   22 1    
    44   22   23 1    
    45   22   24 1    
    46   22  145 1    
    47   23  146 1    
    48   23  147 1    
    49   23  148 1    
    50   24   25 am   BACKBONE|DICT|INTERRES
    51   24  149 1    
    52   25   26 2    
    53   25   27 1    
    54   27   28 1    
    55   27   29 1    
    56   27  150 1    
    57   28  151 1    
    58   28  152 1    
    59   28  153 1    
    60   29   30 am   BACKBONE|DICT|INTERRES
    61   29  154 1    
    62   30   31 2    
    63   30   32 1    
    64   32   33 1    
    65   32   34 1    
    66   32  155 1    
    67   33  156 1    
    68   33  157 1    
    69   33  158 1    
    70   34   35 am   BACKBONE|DICT|INTERRES
    71   34  159 1    
    72   35   36 2    
    73   35   37 1    
    74   37   38 1    
    75   37   39 1    
    76   37  160 1    
    77   38  161 1    
    78   38  162 1    
    79   38  163 1    
    80   39   40 am   BACKBONE|DICT|INTERRES
    81   39  164 1    
    82   40   41 2    
    83   40   42 1    
    84   42   43 1    
    85   42   44 1    
    86   42  165 1    
    87   43  166 1    
    88   43  167 1    
    89   43  168 1    
    90   44   45 am   BACKBONE|DICT|INTERRES
    91   44  169 1    
    92   45   46 2    
    93   45   47 1    
    94   47   48 1    
    95   47   49 1    
    96   47  170 1    
    97   48  171 1    
    98   48  172 1    
    99   48  173 1    
   100   49   50 am   BACKBONE|DICT|INTERRES
   101   49  174 1    
   102   50   51 2    
   103   50   52 1    
   104   52   53 1    
   105   52   54 1    
   106   52  175 1    
   107   53  176 1    
   108   53  177 1    
   109   53  178 1    
   110   54   55 am   BACKBONE|DICT|INTERRES
   111   54  179 1    
   112   55   56 2    
   113   55   57 1    
   114   57   58 1    
   115   57   59 1    
   116   57  180 1    
   117   58  181 1    
   118   58  182 1    
   119   58  183 1    
   120   59   60 am   BACKBONE|DICT|INTERRES
   121   59  184 1    
   122   60   61 2    
   123   60   62 1    
   124   62   63 1    
   125   62   64 1    
   126   62  185 1    
   127   63  186 1    
   128   63  187 1    
   129   63  188 1    
   130   64   65 am   BACKBONE|DICT|INTERRES
   131   64  189 1    
   132   65   66 2    
   133   67   68 2    
   134   67   69 am   BACKBONE|DICT|INTERRES
   135   69   70 1    
   136   69  190 1    
   137   70   71 1    
   138   70   72 1    
   139   70  191 1    
   140   71  192 1    
   141   71  193 1    
   142   71  194 1    
   143   72   73 2    
   144   72   74 am   BACKBONE|DICT|INTERRES
   145   74   75 1    
   146   74  195 1    
   147   75   76 1    
   148   75   77 1    
   149   75  196 1    
   150   76  197 1    
   151   76  198 1    
   152   76  199 1    
   153   77   78 2    
   154   77   79 am   BACKBONE|DICT|INTERRES
   155   79   80 1    
   156   79  200 1    
   157   80   81 1    
   158   80   82 1    
   159   80  201 1    
   160   81  202 1    
   161   81  203 1    
   162   81  204 1    
   163   82   83 2    
   164   82   84 am   BACKBONE|DICT|INTERRES
   165   84   85 1    
   166   84  205 1    
   167   85   86 1    
   168   85   87 1    
   169   85  206 1    
   170   86  207 1    
   171   86  208 1    
   172   86  209 1    
   173   87   88 2    
   174   87   89 am   BACKBONE|DICT|INTERRES
   175   89   90 1    
   176   89  210 1    
   177   90   91 1    
   178   90   92 1    
   179   90  211 1    
   180   91  212 1    
   181   91  213 1    
   182   91  214 1    
   183   92   93 2    
   184   92   94 am   BACKBONE|DICT|INTERRES
   185   94   95 1    
   186   94  215 1    
   187   95   96 1    
   188   95   97 1    
   189   95  216 1    
   190   96  217 1    
   191   96  218 1    
   192   96  219 1    
   193   97   98 2    
   194   97   99 am   BACKBONE|DICT|INTERRES
   195   99  100 1    
   196   99  220 1    
   197  100  101 1    
   198  100  102 1    
   199  100  221 1    
   200  101  222 1    
   201  101  223 1    
   202  101  224 1    
   203  102  103 2    
   204  102  104 am   BACKBONE|DICT|INTERRES
   205  104  105 1    
   206  104  225 1    
   207  105  106 1    
   208  105  107 1    
   209  105  226 1    
   210  106  227 1    
   211  106  228 1    
   212  106  229 1    
   213  107  108 2    
   214  107  109 am   BACKBONE|DICT|INTERRES
   215  109  110 1    
   216  109  230 1    
   217  110  111 1    
   218  110  112 1    
   219  110  231 1    
   220  111  232 1    
   221  111  233 1    
   222  111  234 1    
   223  112  113 2    
   224  112  114 am   BACKBONE|DICT|INTERRES
   225  114  115 1    
   226  114  235 1    
   227  115  116 1    
   228  115  117 1    
   229  115  236 1    
   230  116  237 1    
   231  116  238 1    
   232  116  239 1    
   233  117  118 2    
   234  117  119 am   BACKBONE|DICT|INTERRES
   235  119  120 1    
   236  119  240 1    
   237  120  121 1    
   238  120  124 1    
   239  120  241 1    
   240  121  122 am   BACKBONE|DICT|INTERRES
   241  121  123 2    
   242  122  242 1    
   243  122  243 1    
   244  124  125 1    
   245  124  244 1    
   246  124  245 1    
   247  125  126 1    
   248  126  246 1    
   249  126  247 1    
@<TRIPOS>SUBSTRUCTURE
     1 UNK         1 GROUP             0       ****    0 ROOT    
