@<TRIPOS>MOLECULE
3R540
247   249    1
SMALL
USER_CHARGES


@<TRIPOS>ATOM
      1 CA         -1.6433  -15.6608  -47.5523 C.3       0 UNK        -0.1800 
      2 C          -0.6719  -14.5147  -47.7987 C.2       0 UNK         0.5000 
      3 O          -0.7973  -13.4604  -47.1774 O.2       0 UNK        -0.5000 
      4 N           0.2900  -14.7167  -48.7088 N.am      1 UNK        -0.5000 
      5 CA          1.2997  -13.7254  -49.1092 C.3       1 UNK         0.1400 
      6 C6          2.0430  -14.1374  -50.4053 C.3       23 UNK        -0.0398 
      7 S7          0.9421  -14.3643  -51.8453 S.3       23 UNK        -0.2404 
      8 C8          1.3701  -16.0493  -52.3938 C.3       23 UNK        -0.0205 
      9 C9          0.4652  -17.0975  -51.7645 C.ar      23 UNK        -0.0193 
     10 C10        -0.5799  -17.6559  -52.5063 C.ar      23 UNK        -0.1150 
     11 C11        -1.4132  -18.6269  -51.9435 C.ar      23 UNK        -0.0193 
     12 C12        -1.2114  -19.0225  -50.6187 C.ar      23 UNK        -0.1150 
     13 C13        -0.1745  -18.4647  -49.8652 C.ar      23 UNK        -0.0193 
     14 C14         0.6724  -17.5183  -50.4482 C.ar      23 UNK        -0.1150 
     15 C15         0.0145  -18.8580  -48.4121 C.3       23 UNK        -0.0205 
     16 S16         1.3372  -20.0853  -48.2110 S.3       23 UNK        -0.2404 
     17 C17         1.2774  -20.2851  -46.3999 C.3       23 UNK        -0.0398 
     18 CA          0.6449  -21.6074  -45.9035 C.3       11 UNK         0.1400 
     19 N           0.7054  -21.6803  -44.4440 N.am      11 UNK        -0.5000 
     20 C           0.3990  -22.7504  -43.7009 C.2       10 UNK         0.5000 
     21 O           0.0710  -23.8399  -44.1698 O.2       10 UNK        -0.5000 
     22 CA          0.4151  -22.5470  -42.1747 C.3       10 UNK         0.1400 
     23 CB          1.8502  -22.6022  -41.6307 C.3       10 UNK        -0.1800 
     24 N          -0.2176  -21.2886  -41.7700 N.am      10 UNK        -0.5000 
     25 C          -1.5133  -21.0013  -41.9633 C.2       9 UNK         0.5000 
     26 O          -2.3165  -21.7840  -42.4694 O.2       9 UNK        -0.5000 
     27 CA         -1.9879  -19.5927  -41.5661 C.3       9 UNK         0.1400 
     28 CB         -2.1954  -19.4951  -40.0475 C.3       9 UNK        -0.1800 
     29 N          -1.0763  -18.5390  -42.0123 N.am      9 UNK        -0.5000 
     30 C          -0.8007  -18.2613  -43.2948 C.2       8 UNK         0.5000 
     31 O          -1.3109  -18.8467  -44.2481 O.2       8 UNK        -0.5000 
     32 CA          0.2706  -17.1910  -43.5630 C.3       8 UNK         0.1400 
     33 CB         -0.3073  -15.7770  -43.4077 C.3       8 UNK        -0.1800 
     34 N           1.4426  -17.3486  -42.7026 N.am      8 UNK        -0.5000 
     35 C           2.2401  -18.4268  -42.6947 C.2       7 UNK         0.5000 
     36 O           2.0991  -19.3905  -43.4459 O.2       7 UNK        -0.5000 
     37 CA          3.3490  -18.4582  -41.6324 C.3       7 UNK         0.1400 
     38 CB          4.5584  -17.6240  -42.0771 C.3       7 UNK        -0.1800 
     39 N           2.8662  -17.9869  -40.3352 N.am      7 UNK        -0.5000 
     40 C           1.9839  -18.6508  -39.5745 C.2       6 UNK         0.5000 
     41 O           1.5140  -19.7500  -39.8697 O.2       6 UNK        -0.5000 
     42 CA          1.5179  -17.9438  -38.2893 C.3       6 UNK         0.1400 
     43 CB          2.5367  -18.1454  -37.1578 C.3       6 UNK        -0.1800 
     44 N           1.2901  -16.5117  -38.4907 N.am      6 UNK        -0.5000 
     45 C           0.3194  -16.0042  -39.2634 C.2       5 UNK         0.5000 
     46 O          -0.5023  -16.6914  -39.8677 O.2       5 UNK        -0.5000 
     47 CA          0.2872  -14.4739  -39.4220 C.3       5 UNK         0.1400 
     48 CB         -0.5059  -13.8289  -38.2758 C.3       5 UNK        -0.1800 
     49 N           1.6182  -13.8655  -39.4966 N.am      5 UNK        -0.5000 
     50 C           2.5132  -14.1102  -40.4620 C.2       4 UNK         0.5000 
     51 O           2.3438  -14.9327  -41.3651 O.2       4 UNK        -0.5000 
     52 CA          3.8340  -13.3306  -40.3893 C.3       4 UNK         0.1400 
     53 CB          4.9861  -14.2461  -39.9477 C.3       4 UNK        -0.1800 
     54 N           4.1432  -12.7553  -41.6953 N.am      4 UNK        -0.5000 
     55 C           3.6315  -11.6040  -42.1503 C.2       3 UNK         0.5000 
     56 O           2.9034  -10.8679  -41.4826 O.2       3 UNK        -0.5000 
     57 CA          3.9964  -11.2020  -43.5911 C.3       3 UNK         0.1400 
     58 CB          5.2969  -10.3837  -43.6086 C.3       3 UNK        -0.1800 
     59 N           4.1380  -12.3489  -44.4912 N.am      3 UNK        -0.5000 
     60 C           3.1094  -13.0589  -44.9720 C.2       2 UNK         0.5000 
     61 O           1.9311  -12.8457  -44.6793 O.2       2 UNK        -0.5000 
     62 CA          3.4668  -14.2077  -45.9352 C.3       2 UNK         0.1400 
     63 CB          3.5359  -15.5430  -45.1806 C.3       2 UNK        -0.1800 
     64 N           2.5130  -14.3296  -47.0394 N.am      2 UNK        -0.5000 
     65 C           2.3364  -13.4143  -48.0039 C.2       1 UNK         0.5000 
     66 O           2.9817  -12.3664  -48.0695 O.2       1 UNK        -0.5000 
     67 C          -0.7937  -21.8305  -46.4233 C.2       11 UNK         0.5000 
     68 O          -0.9828  -22.6127  -47.3533 O.2       11 UNK        -0.5000 
     69 N          -1.7837  -21.1823  -45.7919 N.am      12 UNK        -0.5000 
     70 CA         -3.2055  -21.3389  -46.1011 C.3       12 UNK         0.1400 
     71 CB         -4.0223  -20.2798  -45.3469 C.3       12 UNK        -0.1800 
     72 C          -3.7328  -22.7543  -45.8028 C.2       12 UNK         0.5000 
     73 O          -4.4933  -23.2925  -46.6067 O.2       12 UNK        -0.5000 
     74 N          -3.2926  -23.3537  -44.6869 N.am      13 UNK        -0.5000 
     75 CA         -3.6030  -24.7355  -44.3067 C.3       13 UNK         0.1400 
     76 CB         -3.1201  -24.9973  -42.8724 C.3       13 UNK        -0.1800 
     77 C          -3.0110  -25.7722  -45.2819 C.2       13 UNK         0.5000 
     78 O          -3.6577  -26.7808  -45.5658 O.2       13 UNK        -0.5000 
     79 N          -1.8143  -25.4831  -45.8097 N.am      14 UNK        -0.5000 
     80 CA         -1.1452  -26.2515  -46.8622 C.3       14 UNK         0.1400 
     81 CB          0.3616  -25.9520  -46.8018 C.3       14 UNK        -0.1800 
     82 C          -1.6974  -25.9680  -48.2771 C.2       14 UNK         0.5000 
     83 O          -1.2606  -26.6141  -49.2310 O.2       14 UNK        -0.5000 
     84 N          -2.6132  -24.9964  -48.3997 N.am      15 UNK        -0.5000 
     85 CA         -3.2514  -24.4468  -49.6012 C.3       15 UNK         0.1400 
     86 CB         -4.0200  -25.5265  -50.3861 C.3       15 UNK        -0.1800 
     87 C          -2.2998  -23.6558  -50.5179 C.2       15 UNK         0.5000 
     88 O          -2.6602  -22.5623  -50.9522 O.2       15 UNK        -0.5000 
     89 N          -1.1227  -24.2249  -50.8116 N.am      16 UNK        -0.5000 
     90 CA         -0.0265  -23.7318  -51.6583 C.3       16 UNK         0.1400 
     91 CB          0.5141  -22.3844  -51.1469 C.3       16 UNK        -0.1800 
     92 C          -0.3455  -23.6697  -53.1674 C.2       16 UNK         0.5000 
     93 O           0.5466  -23.9210  -53.9788 O.2       16 UNK        -0.5000 
     94 N          -1.5974  -23.3746  -53.5240 N.am      17 UNK        -0.5000 
     95 CA         -2.1436  -23.3826  -54.8749 C.3       17 UNK         0.1400 
     96 CB         -1.8981  -22.0171  -55.5431 C.3       17 UNK        -0.1800 
     97 C          -3.6447  -23.6989  -54.7942 C.2       17 UNK         0.5000 
     98 O          -4.2196  -23.7020  -53.7017 O.2       17 UNK        -0.5000 
     99 N          -4.2613  -23.9425  -55.9567 N.am      18 UNK        -0.5000 
    100 CA        -5.7107  -24.0828  -56.1055 C.3       18 UNK         0.1400 
    101 CB        -6.0180  -24.5553  -57.5349 C.3       18 UNK        -0.1800 
    102 C         -6.4305  -22.7515  -55.8246 C.2       18 UNK         0.5000 
    103 O         -5.8612  -21.6877  -56.0788 O.2       18 UNK        -0.5000 
    104 N         -7.6830  -22.8227  -55.3562 N.am      19 UNK        -0.5000 
    105 CA        -8.5095  -21.6589  -55.0124 C.3       19 UNK         0.1400 
    106 CB        -9.8483  -22.1391  -54.4329 C.3       19 UNK        -0.1800 
    107 C         -8.7448  -20.6917  -56.1893 C.2       19 UNK         0.5000 
    108 O         -8.7788  -19.4789  -55.9819 O.2       19 UNK        -0.5000 
    109 N         -8.8475  -21.2427  -57.4066 N.am      20 UNK        -0.5000 
    110 CA        -8.9760  -20.4904  -58.6559 C.3       20 UNK         0.1400 
    111 CB        -9.3557  -21.4617  -59.7841 C.3       20 UNK        -0.1800 
    112 C         -7.7063  -19.6992  -59.0318 C.2       20 UNK         0.5000 
    113 O         -7.8150  -18.6777  -59.7114 O.2       20 UNK        -0.5000 
    114 N         -6.5351  -20.1775  -58.5899 N.am      21 UNK        -0.5000 
    115 CA        -5.2466  -19.5138  -58.7794 C.3       21 UNK         0.1400 
    116 CB        -4.1378  -20.5733  -58.8884 C.3       21 UNK        -0.1800 
    117 C         -4.9562  -18.5319  -57.6321 C.2       21 UNK         0.5000 
    118 O         -4.4867  -17.4224  -57.8879 O.2       21 UNK        -0.5000 
    119 N         -5.2383  -18.9589  -56.3942 N.am      22 UNK        -0.5000 
    120 CA        -5.0531  -18.1690  -55.1697 C.3       22 UNK         0.1400 
    121 C         -6.0315  -16.9655  -55.0381 C.2       22 UNK         0.5000 
    122 N         -7.2861  -17.0890  -55.4540 N.am      22 UNK        -0.7600 
    123 O         -5.6441  -15.8978  -54.5718 O.2       22 UNK        -0.5000 
    124 C124       -5.0768  -19.0767  -53.9112 C.3       23 UNK        -0.0398 
    125 S125       -4.1010  -18.3841  -52.5333 S.3       23 UNK        -0.2404 
    126 C126       -2.5218  -19.2515  -52.7738 C.3       23 UNK        -0.0205 
    127 H127       -1.3463  -16.2256  -46.6686 H         1 UNK         0.0600 
    128 H128       -1.6835  -16.3414  -48.4026 H         1 UNK         0.0600 
    129 H129       -2.6494  -15.2750  -47.3880 H         1 UNK         0.0600 
    130 H130        0.2991  -15.5805  -49.2317 H         1 UNK         0.3000 
    131 H131        0.7726  -12.7907  -49.3123 H         1 UNK         0.0600 
    132 H132        2.7665  -13.3689  -50.6847 H         1 UNK         0.0800 
    133 H133        2.6270  -15.0425  -50.2339 H         1 UNK         0.0800 
    134 H134        2.4155  -16.2739  -52.1781 H         1 UNK         0.0800 
    135 H135        1.2799  -16.0862  -53.4805 H         1 UNK         0.0800 
    136 H136       -0.7429  -17.3391  -53.5270 H         1 UNK         0.1150 
    137 H137       -1.8609  -19.7665  -50.1778 H         1 UNK         0.1150 
    138 H138        1.4901  -17.1088  -49.8730 H         1 UNK         0.1150 
    139 H139        0.2572  -17.9720  -47.8242 H         1 UNK         0.0800 
    140 H140       -0.9177  -19.2525  -48.0048 H         1 UNK         0.0800 
    141 H141        0.7651  -19.4320  -45.9541 H         1 UNK         0.0800 
    142 H142        2.3060  -20.2245  -46.0419 H         1 UNK         0.0800 
    143 H143        1.2532  -22.4285  -46.2886 H         1 UNK         0.0600 
    144 H144        1.0117  -20.8344  -43.9695 H         1 UNK         0.3000 
    145 H145       -0.1504  -23.3656  -41.7250 H         1 UNK         0.0600 
    146 H146        1.8605  -22.5416  -40.5423 H         1 UNK         0.0600 
    147 H147        2.3384  -23.5368  -41.9096 H         1 UNK         0.0600 
    148 H148        2.4597  -21.7842  -42.0157 H         1 UNK         0.0600 
    149 H149        0.3760  -20.6062  -41.3092 H         1 UNK         0.3000 
    150 H150       -2.9519  -19.4213  -42.0492 H         1 UNK         0.0600 
    151 H151       -2.8755  -20.2714  -39.6947 H         1 UNK         0.0600 
    152 H152       -2.6287  -18.5338  -39.7711 H         1 UNK         0.0600 
    153 H153       -1.2570  -19.6071  -39.5038 H         1 UNK         0.0600 
    154 H154       -0.6495  -17.9722  -41.2845 H         1 UNK         0.3000 
    155 H155        0.6017  -17.3068  -44.5967 H         1 UNK         0.0600 
    156 H156       -0.6618  -15.5952  -42.3936 H         1 UNK         0.0600 
    157 H157       -1.1500  -15.6235  -44.0829 H         1 UNK         0.0600 
    158 H158        0.4382  -15.0166  -43.6409 H         1 UNK         0.0600 
    159 H159        1.6607  -16.5742  -42.0812 H         1 UNK         0.3000 
    160 H160        3.6754  -19.4941  -41.5185 H         1 UNK         0.0600 
    161 H161        4.2930  -16.5781  -42.2255 H         1 UNK         0.0600 
    162 H162        4.9599  -17.9951  -43.0210 H         1 UNK         0.0600 
    163 H163        5.3617  -17.6678  -41.3416 H         1 UNK         0.0600 
    164 H164        3.1599  -17.0661  -40.0467 H         1 UNK         0.3000 
    165 H165        0.5733  -18.3986  -37.9832 H         1 UNK         0.0600 
    166 H166        2.1778  -17.7140  -36.2231 H         1 UNK         0.0600 
    167 H167        2.7139  -19.2066  -36.9776 H         1 UNK         0.0600 
    168 H168        3.4983  -17.6870  -37.3922 H         1 UNK         0.0600 
    169 H169        1.9230  -15.8751  -38.0294 H         1 UNK         0.3000 
    170 H170       -0.2295  -14.2521  -40.3579 H         1 UNK         0.0600 
    171 H171       -1.5097  -14.2510  -38.2101 H         1 UNK         0.0600 
    172 H172       -0.0206  -13.9841  -37.3114 H         1 UNK         0.0600 
    173 H173       -0.6164  -12.7550  -38.4278 H         1 UNK         0.0600 
    174 H174        1.8372  -13.1794  -38.7887 H         1 UNK         0.3000 
    175 H175        3.7394  -12.5288  -39.6536 H         1 UNK         0.0600 
    176 H176        5.1687  -15.0459  -40.6645 H         1 UNK         0.0600 
    177 H177        5.9127  -13.6825  -39.8369 H         1 UNK         0.0600 
    178 H178        4.7716  -14.7095  -38.9840 H         1 UNK         0.0600 
    179 H179        4.6874  -13.3249  -42.3252 H         1 UNK         0.3000 
    180 H180        3.1933  -10.5655  -43.9694 H         1 UNK         0.0600 
    181 H181        6.1477  -10.9696  -43.2586 H         1 UNK         0.0600 
    182 H182        5.2150   -9.5073  -42.9643 H         1 UNK         0.0600 
    183 H183        5.5246  -10.0263  -44.6130 H         1 UNK         0.0600 
    184 H184        5.0772  -12.5818  -44.7802 H         1 UNK         0.3000 
    185 H185        4.4493  -14.0088  -46.3685 H         1 UNK         0.0600 
    186 H186        3.8108  -16.3638  -45.8433 H         1 UNK         0.0600 
    187 H187        4.2820  -15.5019  -44.3870 H         1 UNK         0.0600 
    188 H188        2.5805  -15.7874  -44.7193 H         1 UNK         0.0600 
    189 H189        1.9159  -15.1418  -47.0375 H         1 UNK         0.3000 
    190 H190       -1.5529  -20.5098  -45.0644 H         1 UNK         0.3000 
    191 H191       -3.3311  -21.1606  -47.1713 H         1 UNK         0.0600 
    192 H192       -3.9057  -20.3749  -44.2671 H         1 UNK         0.0600 
    193 H193       -5.0854  -20.3715  -45.5728 H         1 UNK         0.0600 
    194 H194       -3.7159  -19.2724  -45.6290 H         1 UNK         0.0600 
    195 H195       -2.7204  -22.8205  -44.0372 H         1 UNK         0.3000 
    196 H196       -4.6889  -24.8493  -44.3238 H         1 UNK         0.0600 
    197 H197       -3.3612  -26.0134  -42.5580 H         1 UNK         0.0600 
    198 H198       -3.5961  -24.3167  -42.1663 H         1 UNK         0.0600 
    199 H199       -2.0411  -24.8723  -42.7809 H         1 UNK         0.0600 
    200 H200       -1.3226  -24.6622  -45.4718 H         1 UNK         0.3000 
    201 H201       -1.2885  -27.3156  -46.6647 H         1 UNK         0.0600 
    202 H202        0.7713  -26.1867  -45.8192 H         1 UNK         0.0600 
    203 H203        0.5700  -24.9016  -47.0080 H         1 UNK         0.0600 
    204 H204        0.9115  -26.5459  -47.5328 H         1 UNK         0.0600 
    205 H205       -2.8579  -24.5042  -47.5502 H         1 UNK         0.3000 
    206 H206       -3.9883  -23.7310  -49.2347 H         1 UNK         0.0600 
    207 H207       -4.7342  -26.0450  -49.7465 H         1 UNK         0.0600 
    208 H208       -4.5826  -25.0791  -51.2066 H         1 UNK         0.0600 
    209 H209       -3.3541  -26.2719  -50.8211 H         1 UNK         0.0600 
    210 H210       -0.9704  -25.1441  -50.4049 H         1 UNK         0.3000 
    211 H211        0.7732  -24.4651  -51.5438 H         1 UNK         0.0600 
    212 H212        0.7661  -22.4388  -50.0879 H         1 UNK         0.0600 
    213 H213       -0.2096  -21.5809  -51.2783 H         1 UNK         0.0600 
    214 H214        1.4180  -22.0964  -51.6846 H         1 UNK         0.0600 
    215 H215       -2.2781  -23.1858  -52.7923 H         1 UNK         0.3000 
    216 H216       -1.6597  -24.1704  -55.4558 H         1 UNK         0.0600 
    217 H217       -2.1905  -22.0363  -56.5930 H         1 UNK         0.0600 
    218 H218       -0.8452  -21.7372  -55.5073 H         1 UNK         0.0600 
    219 H219       -2.4732  -21.2277  -55.0600 H         1 UNK         0.0600 
    220 H220       -3.7273  -23.8982  -56.8117 H         1 UNK         0.3000 
    221 H221       -6.0633  -24.8346  -55.3963 H         1 UNK         0.0600 
    222 H222       -5.6831  -23.8315  -58.2796 H         1 UNK         0.0600 
    223 H223       -5.5307  -25.5067  -57.7491 H         1 UNK         0.0600 
    224 H224       -7.0892  -24.7020  -57.6786 H         1 UNK         0.0600 
    225 H225       -8.0924  -23.7301  -55.1858 H         1 UNK         0.3000 
    226 H226       -7.9827  -21.1012  -54.2352 H         1 UNK         0.0600 
    227 H227       -9.6971  -22.7441  -53.5387 H         1 UNK         0.0600 
    228 H228      -10.4765  -21.2937  -54.1486 H         1 UNK         0.0600 
    229 H229      -10.4081  -22.7367  -55.1532 H         1 UNK         0.0600 
    230 H230       -8.8056  -22.2482  -57.4827 H         1 UNK         0.3000 
    231 H231       -9.7884  -19.7705  -58.5360 H         1 UNK         0.0600 
    232 H232      -10.2944  -21.9717  -59.5669 H         1 UNK         0.0600 
    233 H233       -8.5874  -22.2206  -59.9374 H         1 UNK         0.0600 
    234 H234       -9.4866  -20.9316  -60.7285 H         1 UNK         0.0600 
    235 H235       -6.5368  -20.9862  -57.9826 H         1 UNK         0.3000 
    236 H236       -5.2587  -18.9477  -59.7134 H         1 UNK         0.0600 
    237 H237       -3.1648  -20.1045  -59.0406 H         1 UNK         0.0600 
    238 H238       -4.0690  -21.1852  -57.9892 H         1 UNK         0.0600 
    239 H239       -4.3134  -21.2400  -59.7327 H         1 UNK         0.0600 
    240 H240       -5.5815  -19.9088  -56.2734 H         1 UNK         0.3000 
    241 H241       -4.0504  -17.7429  -55.2456 H         1 UNK         0.0600 
    242 H242       -7.9071  -16.2998  -55.3751 H         1 UNK         0.3800 
    243 H243       -7.6554  -17.9762  -55.7857 H         1 UNK         0.3800 
    244 H244       -4.6747  -20.0642  -54.1441 H         1 UNK         0.0800 
    245 H245       -6.0994  -19.2540  -53.5737 H         1 UNK         0.0800 
    246 H246       -2.6387  -20.3052  -52.5149 H         1 UNK         0.0800 
    247 H247       -2.2488  -19.2187  -53.8293 H         1 UNK         0.0800 
@<TRIPOS>BOND
     1    1    2 1    
     2    1  127 1    
     3    1  128 1    
     4    1  129 1    
     5    2    3 2    
     6    2    4 am   BACKBONE|DICT|INTERRES
     7    4    5 1    
     8    4  130 1    
     9    5    6 1    
    10    5   65 1    
    11    5  131 1    
    12    6    7 1    
    13    6  132 1    
    14    6  133 1    
    15    7    8 1    
    16    8    9 1    
    17    8  134 1    
    18    8  135 1    
    19    9   10 ar   
    20    9   14 ar   
    21   10   11 ar   
    22   10  136 1    
    23   11   12 ar   
    24   11  126 1    
    25   12   13 ar   
    26   12  137 1    
    27   13   14 ar   
    28   13   15 1    
    29   14  138 1    
    30   15   16 1    
    31   15  139 1    
    32   15  140 1    
    33   16   17 1    
    34   17   18 1    
    35   17  141 1    
    36   17  142 1    
    37   18   19 1    
    38   18   67 1    
    39   18  143 1    
    40   19   20 am   BACKBONE|DICT|INTERRES
    41   19  144 1    
    42   20   21 2    
    43   20   22 1    
    44   22   23 1    
    45   22   24 1    
    46   22  145 1    
    47   23  146 1    
    48   23  147 1    
    49   23  148 1    
    50   24   25 am   BACKBONE|DICT|INTERRES
    51   24  149 1    
    52   25   26 2    
    53   25   27 1    
    54   27   28 1    
    55   27   29 1    
    56   27  150 1    
    57   28  151 1    
    58   28  152 1    
    59   28  153 1    
    60   29   30 am   BACKBONE|DICT|INTERRES
    61   29  154 1    
    62   30   31 2    
    63   30   32 1    
    64   32   33 1    
    65   32   34 1    
    66   32  155 1    
    67   33  156 1    
    68   33  157 1    
    69   33  158 1    
    70   34   35 am   BACKBONE|DICT|INTERRES
    71   34  159 1    
    72   35   36 2    
    73   35   37 1    
    74   37   38 1    
    75   37   39 1    
    76   37  160 1    
    77   38  161 1    
    78   38  162 1    
    79   38  163 1    
    80   39   40 am   BACKBONE|DICT|INTERRES
    81   39  164 1    
    82   40   41 2    
    83   40   42 1    
    84   42   43 1    
    85   42   44 1    
    86   42  165 1    
    87   43  166 1    
    88   43  167 1    
    89   43  168 1    
    90   44   45 am   BACKBONE|DICT|INTERRES
    91   44  169 1    
    92   45   46 2    
    93   45   47 1    
    94   47   48 1    
    95   47   49 1    
    96   47  170 1    
    97   48  171 1    
    98   48  172 1    
    99   48  173 1    
   100   49   50 am   BACKBONE|DICT|INTERRES
   101   49  174 1    
   102   50   51 2    
   103   50   52 1    
   104   52   53 1    
   105   52   54 1    
   106   52  175 1    
   107   53  176 1    
   108   53  177 1    
   109   53  178 1    
   110   54   55 am   BACKBONE|DICT|INTERRES
   111   54  179 1    
   112   55   56 2    
   113   55   57 1    
   114   57   58 1    
   115   57   59 1    
   116   57  180 1    
   117   58  181 1    
   118   58  182 1    
   119   58  183 1    
   120   59   60 am   BACKBONE|DICT|INTERRES
   121   59  184 1    
   122   60   61 2    
   123   60   62 1    
   124   62   63 1    
   125   62   64 1    
   126   62  185 1    
   127   63  186 1    
   128   63  187 1    
   129   63  188 1    
   130   64   65 am   BACKBONE|DICT|INTERRES
   131   64  189 1    
   132   65   66 2    
   133   67   68 2    
   134   67   69 am   BACKBONE|DICT|INTERRES
   135   69   70 1    
   136   69  190 1    
   137   70   71 1    
   138   70   72 1    
   139   70  191 1    
   140   71  192 1    
   141   71  193 1    
   142   71  194 1    
   143   72   73 2    
   144   72   74 am   BACKBONE|DICT|INTERRES
   145   74   75 1    
   146   74  195 1    
   147   75   76 1    
   148   75   77 1    
   149   75  196 1    
   150   76  197 1    
   151   76  198 1    
   152   76  199 1    
   153   77   78 2    
   154   77   79 am   BACKBONE|DICT|INTERRES
   155   79   80 1    
   156   79  200 1    
   157   80   81 1    
   158   80   82 1    
   159   80  201 1    
   160   81  202 1    
   161   81  203 1    
   162   81  204 1    
   163   82   83 2    
   164   82   84 am   BACKBONE|DICT|INTERRES
   165   84   85 1    
   166   84  205 1    
   167   85   86 1    
   168   85   87 1    
   169   85  206 1    
   170   86  207 1    
   171   86  208 1    
   172   86  209 1    
   173   87   88 2    
   174   87   89 am   BACKBONE|DICT|INTERRES
   175   89   90 1    
   176   89  210 1    
   177   90   91 1    
   178   90   92 1    
   179   90  211 1    
   180   91  212 1    
   181   91  213 1    
   182   91  214 1    
   183   92   93 2    
   184   92   94 am   BACKBONE|DICT|INTERRES
   185   94   95 1    
   186   94  215 1    
   187   95   96 1    
   188   95   97 1    
   189   95  216 1    
   190   96  217 1    
   191   96  218 1    
   192   96  219 1    
   193   97   98 2    
   194   97   99 am   BACKBONE|DICT|INTERRES
   195   99  100 1    
   196   99  220 1    
   197  100  101 1    
   198  100  102 1    
   199  100  221 1    
   200  101  222 1    
   201  101  223 1    
   202  101  224 1    
   203  102  103 2    
   204  102  104 am   BACKBONE|DICT|INTERRES
   205  104  105 1    
   206  104  225 1    
   207  105  106 1    
   208  105  107 1    
   209  105  226 1    
   210  106  227 1    
   211  106  228 1    
   212  106  229 1    
   213  107  108 2    
   214  107  109 am   BACKBONE|DICT|INTERRES
   215  109  110 1    
   216  109  230 1    
   217  110  111 1    
   218  110  112 1    
   219  110  231 1    
   220  111  232 1    
   221  111  233 1    
   222  111  234 1    
   223  112  113 2    
   224  112  114 am   BACKBONE|DICT|INTERRES
   225  114  115 1    
   226  114  235 1    
   227  115  116 1    
   228  115  117 1    
   229  115  236 1    
   230  116  237 1    
   231  116  238 1    
   232  116  239 1    
   233  117  118 2    
   234  117  119 am   BACKBONE|DICT|INTERRES
   235  119  120 1    
   236  119  240 1    
   237  120  121 1    
   238  120  124 1    
   239  120  241 1    
   240  121  122 am   BACKBONE|DICT|INTERRES
   241  121  123 2    
   242  122  242 1    
   243  122  243 1    
   244  124  125 1    
   245  124  244 1    
   246  124  245 1    
   247  125  126 1    
   248  126  246 1    
   249  126  247 1    
@<TRIPOS>SUBSTRUCTURE
     1 UNK         1 GROUP             0       ****    0 ROOT    
