@<TRIPOS>MOLECULE
3R540
247   249    1
SMALL
USER_CHARGES


@<TRIPOS>ATOM
      1 CA         -5.0418  -11.4364  -50.4026 C.3       0 UNK        -0.1800 
      2 C          -4.7252  -12.6540  -49.5462 C.2       0 UNK         0.5000 
      3 O          -4.0834  -13.5872  -50.0273 O.2       0 UNK        -0.5000 
      4 N          -5.1779  -12.6512  -48.2851 N.am      1 UNK        -0.5000 
      5 CA         -4.9069  -13.7078  -47.3072 C.3       1 UNK         0.1400 
      6 C6         -5.9182  -13.6619  -46.1295 C.3       23 UNK        -0.0398 
      7 S7         -5.7903  -15.0373  -44.9260 S.3       23 UNK        -0.2404 
      8 C8         -6.8182  -16.3441  -45.6846 C.3       23 UNK        -0.0205 
      9 C9         -6.2052  -16.8375  -46.9853 C.ar      23 UNK        -0.0193 
     10 C10        -6.8425  -16.5991  -48.2077 C.ar      23 UNK        -0.1150 
     11 C11        -6.1974  -16.9047  -49.4094 C.ar      23 UNK        -0.0193 
     12 C12        -4.9206  -17.4678  -49.3762 C.ar      23 UNK        -0.1150 
     13 C13        -4.2876  -17.7500  -48.1654 C.ar      23 UNK        -0.0193 
     14 C14        -4.9460  -17.4445  -46.9687 C.ar      23 UNK        -0.1150 
     15 C15        -2.8660  -18.2977  -48.2232 C.3       23 UNK        -0.0205 
     16 S16        -2.1662  -18.9015  -46.6570 S.3       23 UNK        -0.2404 
     17 C17        -2.9617  -20.5269  -46.5034 C.3       23 UNK        -0.0398 
     18 CA         -1.9293  -21.6706  -46.3677 C.3       11 UNK         0.1400 
     19 N          -0.9832  -21.4853  -45.2601 N.am      11 UNK        -0.5000 
     20 C           0.0429  -22.3054  -44.9841 C.2       10 UNK         0.5000 
     21 O           0.3519  -23.2728  -45.6773 O.2       10 UNK        -0.5000 
     22 CA          0.8100  -22.0486  -43.6774 C.3       10 UNK         0.1400 
     23 CB          1.9287  -21.0147  -43.8803 C.3       10 UNK        -0.1800 
     24 N          -0.0915  -21.6229  -42.6066 N.am      10 UNK        -0.5000 
     25 C          -0.9648  -22.4382  -41.9957 C.2       9 UNK         0.5000 
     26 O          -1.0505  -23.6437  -42.2318 O.2       9 UNK        -0.5000 
     27 CA         -1.9350  -21.7916  -40.9875 C.3       9 UNK         0.1400 
     28 CB         -1.2808  -21.6827  -39.6023 C.3       9 UNK        -0.1800 
     29 N          -2.3895  -20.4665  -41.4128 N.am      9 UNK        -0.5000 
     30 C          -3.1556  -20.2360  -42.4888 C.2       8 UNK         0.5000 
     31 O          -3.6358  -21.1333  -43.1807 O.2       8 UNK        -0.5000 
     32 CA         -3.3740  -18.7616  -42.8937 C.3       8 UNK         0.1400 
     33 CB         -4.6959  -18.2300  -42.3224 C.3       8 UNK        -0.1800 
     34 N          -2.2778  -17.8687  -42.4977 N.am      8 UNK        -0.5000 
     35 C          -1.0082  -17.9969  -42.9059 C.2       7 UNK         0.5000 
     36 O          -0.6281  -18.8794  -43.6793 O.2       7 UNK        -0.5000 
     37 CA          0.0173  -17.0385  -42.2864 C.3       7 UNK         0.1400 
     38 CB          0.2026  -17.3615  -40.7881 C.3       7 UNK        -0.1800 
     39 N           1.2815  -17.1969  -42.9998 N.am      7 UNK        -0.5000 
     40 C           2.3741  -16.4389  -42.8591 C.2       6 UNK         0.5000 
     41 O           2.4334  -15.4496  -42.1279 O.2       6 UNK        -0.5000 
     42 CA          3.6216  -16.8605  -43.6601 C.3       6 UNK         0.1400 
     43 CB          4.4693  -17.8496  -42.8449 C.3       6 UNK        -0.1800 
     44 N           3.3285  -17.4502  -44.9698 N.am      6 UNK        -0.5000 
     45 C           2.8170  -16.7682  -46.0020 C.2       5 UNK         0.5000 
     46 O           2.4580  -15.5912  -45.9279 O.2       5 UNK        -0.5000 
     47 CA          2.6930  -17.5322  -47.3334 C.3       5 UNK         0.1400 
     48 CB          1.4350  -18.4142  -47.3469 C.3       5 UNK        -0.1800 
     49 N           2.6422  -16.5931  -48.4543 N.am      5 UNK        -0.5000 
     50 C           3.7264  -16.0282  -49.0071 C.2       4 UNK         0.5000 
     51 O           4.8803  -16.3332  -48.7001 O.2       4 UNK        -0.5000 
     52 CA          3.5077  -14.9278  -50.0672 C.3       4 UNK         0.1400 
     53 CB          3.6896  -15.4853  -51.4878 C.3       4 UNK        -0.1800 
     54 N           2.1999  -14.2791  -49.9710 N.am      4 UNK        -0.5000 
     55 C           1.8725  -13.3537  -49.0595 C.2       3 UNK         0.5000 
     56 O           2.6650  -12.8925  -48.2371 O.2       3 UNK        -0.5000 
     57 CA          0.4109  -12.8571  -49.0555 C.3       3 UNK         0.1400 
     58 CB         -0.3231  -13.0481  -50.4028 C.3       3 UNK        -0.1800 
     59 N          -0.3585  -13.4587  -47.9642 N.am      3 UNK        -0.5000 
     60 C          -0.5523  -14.7647  -47.7357 C.2       2 UNK         0.5000 
     61 O          -0.1298  -15.6595  -48.4702 O.2       2 UNK        -0.5000 
     62 CA         -1.4055  -15.1352  -46.5091 C.3       2 UNK         0.1400 
     63 CB         -0.8988  -14.5153  -45.1907 C.3       2 UNK        -0.1800 
     64 N          -2.8243  -14.8572  -46.7426 N.am      2 UNK        -0.5000 
     65 C          -3.4294  -13.6671  -46.8634 C.2       1 UNK         0.5000 
     66 O          -2.8789  -12.5804  -46.6645 O.2       1 UNK        -0.5000 
     67 C          -2.6641  -23.0179  -46.2588 C.2       11 UNK         0.5000 
     68 O          -2.7171  -23.7533  -47.2426 O.2       11 UNK        -0.5000 
     69 N          -3.1788  -23.3306  -45.0615 N.am      12 UNK        -0.5000 
     70 CA         -3.8504  -24.5922  -44.7516 C.3       12 UNK         0.1400 
     71 CB         -4.4509  -24.5186  -43.3397 C.3       12 UNK        -0.1800 
     72 C          -2.9254  -25.8153  -44.8937 C.2       12 UNK         0.5000 
     73 O          -3.3485  -26.8303  -45.4475 O.2       12 UNK        -0.5000 
     74 N          -1.6777  -25.6883  -44.4203 N.am      13 UNK        -0.5000 
     75 CA         -0.6493  -26.7256  -44.5095 C.3       13 UNK         0.1400 
     76 CB          0.5425  -26.3420  -43.6192 C.3       13 UNK        -0.1800 
     77 C          -0.1856  -26.9946  -45.9539 C.2       13 UNK         0.5000 
     78 O          -0.0487  -28.1558  -46.3410 O.2       13 UNK        -0.5000 
     79 N           0.0437  -25.9227  -46.7238 N.am      14 UNK        -0.5000 
     80 CA          0.5251  -25.9815  -48.1057 C.3       14 UNK         0.1400 
     81 CB          1.2352  -24.6580  -48.4375 C.3       14 UNK        -0.1800 
     82 C          -0.5834  -26.2496  -49.1406 C.2       14 UNK         0.5000 
     83 O          -0.2606  -26.4765  -50.3058 O.2       14 UNK        -0.5000 
     84 N          -1.8569  -26.1553  -48.7297 N.am      15 UNK        -0.5000 
     85 CA         -3.0562  -26.1378  -49.5793 C.3       15 UNK         0.1400 
     86 CB         -3.2754  -27.5021  -50.2654 C.3       15 UNK        -0.1800 
     87 C          -3.0315  -24.9486  -50.5669 C.2       15 UNK         0.5000 
     88 O          -3.3309  -25.1050  -51.7512 O.2       15 UNK        -0.5000 
     89 N          -2.6167  -23.7875  -50.0394 N.am      16 UNK        -0.5000 
     90 CA         -2.4070  -22.4912  -50.6921 C.3       16 UNK         0.1400 
     91 CB         -3.7332  -21.9269  -51.2365 C.3       16 UNK        -0.1800 
     92 C          -1.2809  -22.4577  -51.7497 C.2       16 UNK         0.5000 
     93 O          -1.0867  -21.4164  -52.3747 O.2       16 UNK        -0.5000 
     94 N          -0.5140  -23.5472  -51.9133 N.am      17 UNK        -0.5000 
     95 CA          0.5744  -23.6529  -52.8945 C.3       17 UNK         0.1400 
     96 CB          1.0497  -25.1109  -52.9720 C.3       17 UNK        -0.1800 
     97 C           1.7666  -22.7163  -52.6104 C.2       17 UNK         0.5000 
     98 O           2.4930  -22.3579  -53.5376 O.2       17 UNK        -0.5000 
     99 N           1.9382  -22.3320  -51.3391 N.am      18 UNK        -0.5000 
    100 CA         2.9480  -21.3781  -50.8798 C.3       18 UNK         0.1400 
    101 CB         3.2212  -21.6440  -49.3894 C.3       18 UNK        -0.1800 
    102 C          2.5329  -19.9069  -51.0864 C.2       18 UNK         0.5000 
    103 O          3.3812  -19.0243  -50.9569 O.2       18 UNK        -0.5000 
    104 N          1.2451  -19.6611  -51.3579 N.am      19 UNK        -0.5000 
    105 CA         0.6497  -18.3323  -51.4414 C.3       19 UNK         0.1400 
    106 CB        -0.7336  -18.3924  -50.7869 C.3       19 UNK        -0.1800 
    107 C          0.5453  -17.8331  -52.8914 C.2       19 UNK         0.5000 
    108 O          0.7894  -18.5828  -53.8393 O.2       19 UNK        -0.5000 
    109 N          0.1667  -16.5566  -53.0241 N.am      20 UNK        -0.5000 
    110 CA        -0.0255  -15.8594  -54.2976 C.3       20 UNK         0.1400 
    111 CB         0.5262  -14.4310  -54.1481 C.3       20 UNK        -0.1800 
    112 C         -1.5035  -15.8260  -54.7425 C.2       20 UNK         0.5000 
    113 O         -1.7981  -15.2694  -55.8014 O.2       20 UNK        -0.5000 
    114 N         -2.4091  -16.3931  -53.9366 N.am      21 UNK        -0.5000 
    115 CA        -3.8522  -16.4151  -54.1538 C.3       21 UNK         0.1400 
    116 CB        -4.4734  -15.1317  -53.5726 C.3       21 UNK        -0.1800 
    117 C         -4.4436  -17.6743  -53.5014 C.2       21 UNK         0.5000 
    118 O         -3.7683  -18.3155  -52.6941 O.2       21 UNK        -0.5000 
    119 N         -5.6918  -17.9981  -53.8657 N.am      22 UNK        -0.5000 
    120 CA        -6.4668  -19.1752  -53.4179 C.3       22 UNK         0.1400 
    121 C         -5.9289  -20.5539  -53.9171 C.2       22 UNK         0.5000 
    122 N         -4.9504  -20.6088  -54.8120 N.am      22 UNK        -0.7600 
    123 O         -6.4423  -21.5984  -53.5261 O.2       22 UNK        -0.5000 
    124 C124       -6.7705  -19.1760  -51.8897 C.3       23 UNK        -0.0398 
    125 S125       -7.9282  -17.8531  -51.3865 S.3       23 UNK        -0.2404 
    126 C126       -6.8346  -16.5478  -50.7438 C.3       23 UNK        -0.0205 
    127 H127       -5.6322  -10.6990  -49.8583 H         1 UNK         0.0600 
    128 H128       -5.6033  -11.7368  -51.2873 H         1 UNK         0.0600 
    129 H129       -4.1180  -10.9593  -50.7298 H         1 UNK         0.0600 
    130 H130       -5.6677  -11.8400  -47.9363 H         1 UNK         0.3000 
    131 H131       -5.0497  -14.6440  -47.8407 H         1 UNK         0.0600 
    132 H132       -6.9364  -13.6513  -46.5209 H         1 UNK         0.0800 
    133 H133       -5.8027  -12.7272  -45.5784 H         1 UNK         0.0800 
    134 H134       -7.8304  -15.9680  -45.8415 H         1 UNK         0.0800 
    135 H135       -6.9013  -17.1803  -44.9890 H         1 UNK         0.0800 
    136 H136       -7.8123  -16.1220  -48.2281 H         1 UNK         0.1150 
    137 H137       -4.3997  -17.6639  -50.3017 H         1 UNK         0.1150 
    138 H138       -4.4648  -17.6115  -46.0163 H         1 UNK         0.1150 
    139 H139       -2.8154  -19.0940  -48.9669 H         1 UNK         0.0800 
    140 H140       -2.2244  -17.4901  -48.5742 H         1 UNK         0.0800 
    141 H141       -3.5999  -20.6987  -47.3722 H         1 UNK         0.0800 
    142 H142       -3.6351  -20.4926  -45.6484 H         1 UNK         0.0800 
    143 H143       -1.3382  -21.6971  -47.2857 H         1 UNK         0.0600 
    144 H144       -1.1245  -20.6712  -44.6728 H         1 UNK         0.3000 
    145 H145        1.2777  -22.9876  -43.3740 H         1 UNK         0.0600 
    146 H146        2.4600  -20.8215  -42.9485 H         1 UNK         0.0600 
    147 H147        2.6606  -21.3773  -44.6031 H         1 UNK         0.0600 
    148 H148        1.5492  -20.0661  -44.2554 H         1 UNK         0.0600 
    149 H149       -0.1396  -20.6294  -42.4288 H         1 UNK         0.3000 
    150 H150       -2.8094  -22.4406  -40.9039 H         1 UNK         0.0600 
    151 H151       -0.9464  -22.6599  -39.2513 H         1 UNK         0.0600 
    152 H152       -1.9835  -21.2965  -38.8637 H         1 UNK         0.0600 
    153 H153       -0.4117  -21.0236  -39.6165 H         1 UNK         0.0600 
    154 H154       -2.0464  -19.6756  -40.8891 H         1 UNK         0.3000 
    155 H155       -3.4443  -18.7302  -43.9812 H         1 UNK         0.0600 
    156 H156       -4.6825  -18.2039  -41.2322 H         1 UNK         0.0600 
    157 H157       -5.5335  -18.8592  -42.6269 H         1 UNK         0.0600 
    158 H158       -4.9033  -17.2218  -42.6818 H         1 UNK         0.0600 
    159 H159       -2.5147  -17.1284  -41.8531 H         1 UNK         0.3000 
    160 H160       -0.3390  -16.0145  -42.4107 H         1 UNK         0.0600 
    161 H161        0.5804  -18.3741  -40.6407 H         1 UNK         0.0600 
    162 H162       -0.7376  -17.2785  -40.2420 H         1 UNK         0.0600 
    163 H163        0.9013  -16.6749  -40.3108 H         1 UNK         0.0600 
    164 H164        1.2838  -17.9668  -43.6566 H         1 UNK         0.3000 
    165 H165        4.2201  -15.9620  -43.8259 H         1 UNK         0.0600 
    166 H166        5.4021  -18.0867  -43.3567 H         1 UNK         0.0600 
    167 H167        4.7318  -17.4299  -41.8728 H         1 UNK         0.0600 
    168 H168        3.9367  -18.7839  -42.6647 H         1 UNK         0.0600 
    169 H169        3.6030  -18.4126  -45.1015 H         1 UNK         0.3000 
    170 H170        3.5640  -18.1808  -47.4496 H         1 UNK         0.0600 
    171 H171        1.4783  -19.1785  -46.5709 H         1 UNK         0.0600 
    172 H172        0.5334  -17.8288  -47.1737 H         1 UNK         0.0600 
    173 H173        1.3236  -18.9292  -48.3006 H         1 UNK         0.0600 
    174 H174        1.7234  -16.2198  -48.6728 H         1 UNK         0.3000 
    175 H175        4.2792  -14.1712  -49.9083 H         1 UNK         0.0600 
    176 H176        2.9376  -16.2341  -51.7310 H         1 UNK         0.0600 
    177 H177        3.6285  -14.6928  -52.2336 H         1 UNK         0.0600 
    178 H178        4.6657  -15.9595  -51.5979 H         1 UNK         0.0600 
    179 H179        1.4788  -14.6102  -50.5914 H         1 UNK         0.3000 
    180 H180        0.4502  -11.7857  -48.8537 H         1 UNK         0.0600 
    181 H181       -1.3038  -12.5723  -50.3776 H         1 UNK         0.0600 
    182 H182       -0.4811  -14.0977  -50.6506 H         1 UNK         0.0600 
    183 H183        0.2341  -12.5898  -51.2207 H         1 UNK         0.0600 
    184 H184       -0.8103  -12.8101  -47.3309 H         1 UNK         0.3000 
    185 H185       -1.3252  -16.2142  -46.3909 H         1 UNK         0.0600 
    186 H186       -1.5292  -14.8146  -44.3536 H         1 UNK         0.0600 
    187 H187        0.1130  -14.8534  -44.9687 H         1 UNK         0.0600 
    188 H188       -0.8766  -13.4263  -45.2165 H         1 UNK         0.0600 
    189 H189       -3.3805  -15.6776  -46.9416 H         1 UNK         0.3000 
    190 H190       -3.1345  -22.6432  -44.3146 H         1 UNK         0.3000 
    191 H191       -4.6702  -24.7133  -45.4627 H         1 UNK         0.0600 
    192 H192       -4.9853  -25.4371  -43.0939 H         1 UNK         0.0600 
    193 H193       -5.1614  -23.6959  -43.2565 H         1 UNK         0.0600 
    194 H194       -3.6819  -24.3725  -42.5809 H         1 UNK         0.0600 
    195 H195       -1.4228  -24.8336  -43.9380 H         1 UNK         0.3000 
    196 H196       -1.0749  -27.6528  -44.1199 H         1 UNK         0.0600 
    197 H197        1.0037  -25.4089  -43.9431 H         1 UNK         0.0600 
    198 H198        0.2352  -26.2197  -42.5804 H         1 UNK         0.0600 
    199 H199        1.3122  -27.1144  -43.6423 H         1 UNK         0.0600 
    200 H200       -0.0425  -24.9939  -46.3164 H         1 UNK         0.3000 
    201 H201        1.2558  -26.7884  -48.1919 H         1 UNK         0.0600 
    202 H202        0.5451  -23.8137  -48.4082 H         1 UNK         0.0600 
    203 H203        1.6788  -24.6897  -49.4333 H         1 UNK         0.0600 
    204 H204        2.0411  -24.4547  -47.7321 H         1 UNK         0.0600 
    205 H205       -2.0115  -25.9091  -47.7604 H         1 UNK         0.3000 
    206 H206       -3.9012  -25.9644  -48.9114 H         1 UNK         0.0600 
    207 H207       -3.2844  -28.3118  -49.5358 H         1 UNK         0.0600 
    208 H208       -4.2326  -27.5246  -50.7874 H         1 UNK         0.0600 
    209 H209       -2.4996  -27.7204  -50.9996 H         1 UNK         0.0600 
    210 H210       -2.4559  -23.7928  -49.0335 H         1 UNK         0.3000 
    211 H211       -2.0764  -21.8188  -49.8992 H         1 UNK         0.0600 
    212 H212       -3.6070  -20.9064  -51.6007 H         1 UNK         0.0600 
    213 H213       -4.4997  -21.8988  -50.4622 H         1 UNK         0.0600 
    214 H214       -4.1147  -22.5220  -52.0664 H         1 UNK         0.0600 
    215 H215       -0.7285  -24.3816  -51.3833 H         1 UNK         0.3000 
    216 H216        0.1680  -23.3770  -53.8698 H         1 UNK         0.0600 
    217 H217        1.5126  -25.4323  -52.0384 H         1 UNK         0.0600 
    218 H218        1.7894  -25.2382  -53.7633 H         1 UNK         0.0600 
    219 H219        0.2224  -25.7874  -53.1879 H         1 UNK         0.0600 
    220 H220        1.2938  -22.6803  -50.6463 H         1 UNK         0.3000 
    221 H221        3.8749  -21.5415  -51.4336 H         1 UNK         0.0600 
    222 H222        3.5806  -22.6607  -49.2293 H         1 UNK         0.0600 
    223 H223        2.3251  -21.5046  -48.7829 H         1 UNK         0.0600 
    224 H224        3.9851  -20.9673  -49.0038 H         1 UNK         0.0600 
    225 H225        0.6281  -20.4323  -51.5815 H         1 UNK         0.3000 
    226 H226        1.2544  -17.6228  -50.8740 H         1 UNK         0.0600 
    227 H227       -1.4313  -19.0080  -51.3551 H         1 UNK         0.0600 
    228 H228       -0.6523  -18.8122  -49.7855 H         1 UNK         0.0600 
    229 H229       -1.1723  -17.3987  -50.6930 H         1 UNK         0.0600 
    230 H230       -0.0546  -16.0250  -52.1961 H         1 UNK         0.3000 
    231 H231        0.5402  -16.3595  -55.0866 H         1 UNK         0.0600 
    232 H232       -0.0351  -13.8578  -53.4095 H         1 UNK         0.0600 
    233 H233        0.4719  -13.8885  -55.0928 H         1 UNK         0.0600 
    234 H234        1.5728  -14.4410  -53.8430 H         1 UNK         0.0600 
    235 H235       -2.1033  -16.9184  -53.1282 H         1 UNK         0.3000 
    236 H236       -4.0597  -16.4676  -55.2247 H         1 UNK         0.0600 
    237 H237       -4.0849  -14.2446  -54.0729 H         1 UNK         0.0600 
    238 H238       -5.5568  -15.1220  -53.6960 H         1 UNK         0.0600 
    239 H239       -4.2597  -15.0308  -52.5076 H         1 UNK         0.0600 
    240 H240       -6.1633  -17.4125  -54.5401 H         1 UNK         0.3000 
    241 H241       -7.4263  -19.0836  -53.9281 H         1 UNK         0.0600 
    242 H242       -4.6278  -21.5065  -55.1363 H         1 UNK         0.3800 
    243 H243       -4.5173  -19.7668  -55.1528 H         1 UNK         0.3800 
    244 H244       -5.8526  -19.1382  -51.3075 H         1 UNK         0.0800 
    245 H245       -7.2531  -20.1095  -51.5968 H         1 UNK         0.0800 
    246 H246       -7.4160  -15.6314  -50.6326 H         1 UNK         0.0800 
    247 H247       -6.0649  -16.3210  -51.4790 H         1 UNK         0.0800 
@<TRIPOS>BOND
     1    1    2 1    
     2    1  127 1    
     3    1  128 1    
     4    1  129 1    
     5    2    3 2    
     6    2    4 am   BACKBONE|DICT|INTERRES
     7    4    5 1    
     8    4  130 1    
     9    5    6 1    
    10    5   65 1    
    11    5  131 1    
    12    6    7 1    
    13    6  132 1    
    14    6  133 1    
    15    7    8 1    
    16    8    9 1    
    17    8  134 1    
    18    8  135 1    
    19    9   10 ar   
    20    9   14 ar   
    21   10   11 ar   
    22   10  136 1    
    23   11   12 ar   
    24   11  126 1    
    25   12   13 ar   
    26   12  137 1    
    27   13   14 ar   
    28   13   15 1    
    29   14  138 1    
    30   15   16 1    
    31   15  139 1    
    32   15  140 1    
    33   16   17 1    
    34   17   18 1    
    35   17  141 1    
    36   17  142 1    
    37   18   19 1    
    38   18   67 1    
    39   18  143 1    
    40   19   20 am   BACKBONE|DICT|INTERRES
    41   19  144 1    
    42   20   21 2    
    43   20   22 1    
    44   22   23 1    
    45   22   24 1    
    46   22  145 1    
    47   23  146 1    
    48   23  147 1    
    49   23  148 1    
    50   24   25 am   BACKBONE|DICT|INTERRES
    51   24  149 1    
    52   25   26 2    
    53   25   27 1    
    54   27   28 1    
    55   27   29 1    
    56   27  150 1    
    57   28  151 1    
    58   28  152 1    
    59   28  153 1    
    60   29   30 am   BACKBONE|DICT|INTERRES
    61   29  154 1    
    62   30   31 2    
    63   30   32 1    
    64   32   33 1    
    65   32   34 1    
    66   32  155 1    
    67   33  156 1    
    68   33  157 1    
    69   33  158 1    
    70   34   35 am   BACKBONE|DICT|INTERRES
    71   34  159 1    
    72   35   36 2    
    73   35   37 1    
    74   37   38 1    
    75   37   39 1    
    76   37  160 1    
    77   38  161 1    
    78   38  162 1    
    79   38  163 1    
    80   39   40 am   BACKBONE|DICT|INTERRES
    81   39  164 1    
    82   40   41 2    
    83   40   42 1    
    84   42   43 1    
    85   42   44 1    
    86   42  165 1    
    87   43  166 1    
    88   43  167 1    
    89   43  168 1    
    90   44   45 am   BACKBONE|DICT|INTERRES
    91   44  169 1    
    92   45   46 2    
    93   45   47 1    
    94   47   48 1    
    95   47   49 1    
    96   47  170 1    
    97   48  171 1    
    98   48  172 1    
    99   48  173 1    
   100   49   50 am   BACKBONE|DICT|INTERRES
   101   49  174 1    
   102   50   51 2    
   103   50   52 1    
   104   52   53 1    
   105   52   54 1    
   106   52  175 1    
   107   53  176 1    
   108   53  177 1    
   109   53  178 1    
   110   54   55 am   BACKBONE|DICT|INTERRES
   111   54  179 1    
   112   55   56 2    
   113   55   57 1    
   114   57   58 1    
   115   57   59 1    
   116   57  180 1    
   117   58  181 1    
   118   58  182 1    
   119   58  183 1    
   120   59   60 am   BACKBONE|DICT|INTERRES
   121   59  184 1    
   122   60   61 2    
   123   60   62 1    
   124   62   63 1    
   125   62   64 1    
   126   62  185 1    
   127   63  186 1    
   128   63  187 1    
   129   63  188 1    
   130   64   65 am   BACKBONE|DICT|INTERRES
   131   64  189 1    
   132   65   66 2    
   133   67   68 2    
   134   67   69 am   BACKBONE|DICT|INTERRES
   135   69   70 1    
   136   69  190 1    
   137   70   71 1    
   138   70   72 1    
   139   70  191 1    
   140   71  192 1    
   141   71  193 1    
   142   71  194 1    
   143   72   73 2    
   144   72   74 am   BACKBONE|DICT|INTERRES
   145   74   75 1    
   146   74  195 1    
   147   75   76 1    
   148   75   77 1    
   149   75  196 1    
   150   76  197 1    
   151   76  198 1    
   152   76  199 1    
   153   77   78 2    
   154   77   79 am   BACKBONE|DICT|INTERRES
   155   79   80 1    
   156   79  200 1    
   157   80   81 1    
   158   80   82 1    
   159   80  201 1    
   160   81  202 1    
   161   81  203 1    
   162   81  204 1    
   163   82   83 2    
   164   82   84 am   BACKBONE|DICT|INTERRES
   165   84   85 1    
   166   84  205 1    
   167   85   86 1    
   168   85   87 1    
   169   85  206 1    
   170   86  207 1    
   171   86  208 1    
   172   86  209 1    
   173   87   88 2    
   174   87   89 am   BACKBONE|DICT|INTERRES
   175   89   90 1    
   176   89  210 1    
   177   90   91 1    
   178   90   92 1    
   179   90  211 1    
   180   91  212 1    
   181   91  213 1    
   182   91  214 1    
   183   92   93 2    
   184   92   94 am   BACKBONE|DICT|INTERRES
   185   94   95 1    
   186   94  215 1    
   187   95   96 1    
   188   95   97 1    
   189   95  216 1    
   190   96  217 1    
   191   96  218 1    
   192   96  219 1    
   193   97   98 2    
   194   97   99 am   BACKBONE|DICT|INTERRES
   195   99  100 1    
   196   99  220 1    
   197  100  101 1    
   198  100  102 1    
   199  100  221 1    
   200  101  222 1    
   201  101  223 1    
   202  101  224 1    
   203  102  103 2    
   204  102  104 am   BACKBONE|DICT|INTERRES
   205  104  105 1    
   206  104  225 1    
   207  105  106 1    
   208  105  107 1    
   209  105  226 1    
   210  106  227 1    
   211  106  228 1    
   212  106  229 1    
   213  107  108 2    
   214  107  109 am   BACKBONE|DICT|INTERRES
   215  109  110 1    
   216  109  230 1    
   217  110  111 1    
   218  110  112 1    
   219  110  231 1    
   220  111  232 1    
   221  111  233 1    
   222  111  234 1    
   223  112  113 2    
   224  112  114 am   BACKBONE|DICT|INTERRES
   225  114  115 1    
   226  114  235 1    
   227  115  116 1    
   228  115  117 1    
   229  115  236 1    
   230  116  237 1    
   231  116  238 1    
   232  116  239 1    
   233  117  118 2    
   234  117  119 am   BACKBONE|DICT|INTERRES
   235  119  120 1    
   236  119  240 1    
   237  120  121 1    
   238  120  124 1    
   239  120  241 1    
   240  121  122 am   BACKBONE|DICT|INTERRES
   241  121  123 2    
   242  122  242 1    
   243  122  243 1    
   244  124  125 1    
   245  124  244 1    
   246  124  245 1    
   247  125  126 1    
   248  126  246 1    
   249  126  247 1    
@<TRIPOS>SUBSTRUCTURE
     1 UNK         1 GROUP             0       ****    0 ROOT    
