@<TRIPOS>MOLECULE
3R540
247   249    1
SMALL
USER_CHARGES


@<TRIPOS>ATOM
      1 CA         -2.0273  -14.5847  -53.7305 C.3       0 UNK        -0.1800 
      2 C          -0.9623  -14.2153  -52.7108 C.2       0 UNK         0.5000 
      3 O          -0.4894  -13.0787  -52.7006 O.2       0 UNK        -0.5000 
      4 N          -0.5870  -15.1715  -51.8518 N.am      1 UNK        -0.5000 
      5 CA          0.3903  -14.9962  -50.7726 C.3       1 UNK         0.1400 
      6 C6          0.8727  -16.3781  -50.2630 C.3       23 UNK        -0.0398 
      7 S7          2.2260  -16.3205  -49.0395 S.3       23 UNK        -0.2404 
      8 C8          3.6853  -16.6391  -50.0841 C.3       23 UNK        -0.0205 
      9 C9          3.7732  -18.0879  -50.5475 C.ar      23 UNK        -0.0193 
     10 C10         3.8283  -18.3967  -51.9107 C.ar      23 UNK        -0.1150 
     11 C11         3.9521  -19.7247  -52.3307 C.ar      23 UNK        -0.0193 
     12 C12         3.9941  -20.7461  -51.3773 C.ar      23 UNK        -0.1150 
     13 C13         3.9412  -20.4566  -50.0111 C.ar      23 UNK        -0.0193 
     14 C14         3.8456  -19.1195  -49.6066 C.ar      23 UNK        -0.1150 
     15 C15         4.0440  -21.6059  -49.0074 C.3       23 UNK        -0.0205 
     16 S16         3.2294  -21.3036  -47.4027 S.3       23 UNK        -0.2404 
     17 C17         1.4695  -21.2581  -47.8779 C.3       23 UNK        -0.0398 
     18 CA          0.6446  -22.3571  -47.1684 C.3       11 UNK         0.1400 
     19 N           0.7350  -22.2601  -45.7084 N.am      11 UNK        -0.5000 
     20 C           0.1759  -23.0822  -44.8112 C.2       10 UNK         0.5000 
     21 O          -0.4961  -24.0660  -45.1239 O.2       10 UNK        -0.5000 
     22 CA          0.3284  -22.7065  -43.3221 C.3       10 UNK         0.1400 
     23 CB          0.5997  -23.9353  -42.4315 C.3       10 UNK        -0.1800 
     24 N           1.2916  -21.6265  -43.0672 N.am      10 UNK        -0.5000 
     25 C           2.6282  -21.6503  -43.1844 C.2       9 UNK         0.5000 
     26 O           3.2723  -22.6453  -43.5157 O.2       9 UNK        -0.5000 
     27 CA          3.3754  -20.3287  -42.9056 C.3       9 UNK         0.1400 
     28 CB          3.9254  -19.7335  -44.2106 C.3       9 UNK        -0.1800 
     29 N           2.5380  -19.3189  -42.2551 N.am      9 UNK        -0.5000 
     30 C           2.2357  -19.2990  -40.9502 C.2       8 UNK         0.5000 
     31 O           2.6715  -20.1094  -40.1321 O.2       8 UNK        -0.5000 
     32 CA          1.2471  -18.2105  -40.4964 C.3       8 UNK         0.1400 
     33 CB          1.9482  -16.8503  -40.3545 C.3       8 UNK        -0.1800 
     34 N           0.1161  -18.0820  -41.4162 N.am      8 UNK        -0.5000 
     35 C          -0.8691  -18.9825  -41.5472 C.2       7 UNK         0.5000 
     36 O          -0.9430  -20.0174  -40.8857 O.2       7 UNK        -0.5000 
     37 CA         -1.9341  -18.6955  -42.6193 C.3       7 UNK         0.1400 
     38 CB         -3.1097  -17.9073  -42.0230 C.3       7 UNK        -0.1800 
     39 N          -1.3641  -17.9716  -43.7589 N.am      7 UNK        -0.5000 
     40 C          -0.7098  -18.5884  -44.7528 C.2       6 UNK         0.5000 
     41 O          -0.6014  -19.8109  -44.8336 O.2       6 UNK        -0.5000 
     42 CA         -0.0750  -17.7276  -45.8542 C.3       6 UNK         0.1400 
     43 CB         -1.0575  -17.5625  -47.0174 C.3       6 UNK        -0.1800 
     44 N           0.3737  -16.4090  -45.4165 N.am      6 UNK        -0.5000 
     45 C           1.4039  -16.1929  -44.5888 C.2       5 UNK         0.5000 
     46 O           1.9599  -17.0844  -43.9480 O.2       5 UNK        -0.5000 
     47 CA          1.8901  -14.7426  -44.4548 C.3       5 UNK         0.1400 
     48 CB          2.6560  -14.3131  -45.7159 C.3       5 UNK        -0.1800 
     49 N           0.7596  -13.8427  -44.2503 N.am      5 UNK        -0.5000 
     50 C           0.4434  -13.2706  -43.0815 C.2       4 UNK         0.5000 
     51 O           1.1394  -13.3450  -42.0682 O.2       4 UNK        -0.5000 
     52 CA         -0.8944  -12.5035  -43.0203 C.3       4 UNK         0.1400 
     53 CB         -0.6716  -11.0120  -43.3129 C.3       4 UNK        -0.1800 
     54 N          -1.9219  -13.0184  -43.9302 N.am      4 UNK        -0.5000 
     55 C          -2.3925  -14.2732  -43.9341 C.2       3 UNK         0.5000 
     56 O          -2.0174  -15.1495  -43.1567 O.2       3 UNK        -0.5000 
     57 CA         -3.4043  -14.6372  -45.0341 C.3       3 UNK         0.1400 
     58 CB         -4.8415  -14.4401  -44.5323 C.3       3 UNK        -0.1800 
     59 N          -3.2321  -13.9236  -46.3053 N.am      3 UNK        -0.5000 
     60 C          -2.1149  -13.9016  -47.0461 C.2       2 UNK         0.5000 
     61 O          -1.0281  -14.3271  -46.6500 O.2       2 UNK        -0.5000 
     62 CA         -2.2685  -13.3296  -48.4672 C.3       2 UNK         0.1400 
     63 CB         -1.9830  -11.8160  -48.5002 C.3       2 UNK        -0.1800 
     64 N          -1.4829  -14.0704  -49.4628 N.am      2 UNK        -0.5000 
     65 C          -0.1508  -14.0781  -49.6473 C.2       1 UNK         0.5000 
     66 O           0.6401  -13.3715  -49.0210 O.2       1 UNK        -0.5000 
     67 C          -0.8135  -22.3205  -47.6652 C.2       11 UNK         0.5000 
     68 O          -1.1494  -23.0412  -48.6045 O.2       11 UNK        -0.5000 
     69 N          -1.6582  -21.5198  -46.9961 N.am      12 UNK        -0.5000 
     70 CA         -3.0913  -21.3950  -47.2674 C.3       12 UNK         0.1400 
     71 CB         -3.6896  -20.3220  -46.3439 C.3       12 UNK        -0.1800 
     72 C          -3.8607  -22.7176  -47.1042 C.2       12 UNK         0.5000 
     73 O          -4.7630  -22.9951  -47.8971 O.2       12 UNK        -0.5000 
     74 N          -3.4721  -23.4994  -46.0887 N.am      13 UNK        -0.5000 
     75 CA         -4.0334  -24.8105  -45.7804 C.3       13 UNK         0.1400 
     76 CB         -3.8778  -25.0868  -44.2770 C.3       13 UNK        -0.1800 
     77 C          -3.3675  -25.9207  -46.6080 C.2       13 UNK         0.5000 
     78 O          -4.0666  -26.8164  -47.0797 O.2       13 UNK        -0.5000 
     79 N          -2.0405  -25.8366  -46.7867 N.am      14 UNK        -0.5000 
     80 CA         -1.2335  -26.8081  -47.5291 C.3       14 UNK         0.1400 
     81 CB          0.2580  -26.5060  -47.3240 C.3       14 UNK        -0.1800 
     82 C          -1.5775  -26.8594  -49.0282 C.2       14 UNK         0.5000 
     83 O          -1.6928  -27.9516  -49.5858 O.2       14 UNK        -0.5000 
     84 N          -1.7685  -25.6847  -49.6456 N.am      15 UNK        -0.5000 
     85 CA         -2.2409  -25.5557  -51.0264 C.3       15 UNK         0.1400 
     86 CB         -1.8425  -24.1721  -51.5670 C.3       15 UNK        -0.1800 
     87 C          -3.7649  -25.7495  -51.1474 C.2       15 UNK         0.5000 
     88 O          -4.2543  -25.9889  -52.2515 O.2       15 UNK        -0.5000 
     89 N          -4.4814  -25.6019  -50.0206 N.am      16 UNK        -0.5000 
     90 CA         -5.9429  -25.5943  -49.8715 C.3       16 UNK         0.1400 
     91 CB         -6.5367  -26.9794  -50.1984 C.3       16 UNK        -0.1800 
     92 C          -6.6174  -24.4468  -50.6560 C.2       16 UNK         0.5000 
     93 O          -7.7761  -24.5622  -51.0589 O.2       16 UNK        -0.5000 
     94 N          -5.8628  -23.3617  -50.8668 N.am      17 UNK        -0.5000 
     95 CA         -6.2384  -22.2136  -51.6865 C.3       17 UNK         0.1400 
     96 CB         -4.9794  -21.7098  -52.4084 C.3       17 UNK        -0.1800 
     97 C          -6.8625  -21.0740  -50.8667 C.2       17 UNK         0.5000 
     98 O          -7.3524  -20.1173  -51.4647 O.2       17 UNK        -0.5000 
     99 N          -6.7940  -21.1564  -49.5278 N.am      18 UNK        -0.5000 
    100 CA        -7.2680  -20.1445  -48.5736 C.3       18 UNK         0.1400 
    101 CB        -8.8082  -20.0538  -48.5904 C.3       18 UNK        -0.1800 
    102 C         -6.5760  -18.7762  -48.7716 C.2       18 UNK         0.5000 
    103 O         -7.2237  -17.7315  -48.7004 O.2       18 UNK        -0.5000 
    104 N         -5.2613  -18.8356  -49.0362 N.am      19 UNK        -0.5000 
    105 CA        -4.3209  -17.7278  -49.2517 C.3       19 UNK         0.1400 
    106 CB        -4.3843  -16.7007  -48.1066 C.3       19 UNK        -0.1800 
    107 C         -4.4157  -17.0476  -50.6331 C.2       19 UNK         0.5000 
    108 O         -3.6889  -16.0796  -50.8696 O.2       19 UNK        -0.5000 
    109 N         -5.2613  -17.5741  -51.5327 N.am      20 UNK        -0.5000 
    110 CA        -5.4102  -17.0988  -52.9132 C.3       20 UNK         0.1400 
    111 CB        -6.7636  -17.5703  -53.4660 C.3       20 UNK        -0.1800 
    112 C         -4.2641  -17.5475  -53.8440 C.2       20 UNK         0.5000 
    113 O         -4.1487  -17.0219  -54.9513 O.2       20 UNK        -0.5000 
    114 N         -3.4412  -18.4964  -53.3828 N.am      21 UNK        -0.5000 
    115 CA        -2.1940  -18.9267  -54.0090 C.3       21 UNK         0.1400 
    116 CB        -2.1788  -20.4641  -54.0573 C.3       21 UNK        -0.1800 
    117 C         -1.0130  -18.4112  -53.1598 C.2       21 UNK         0.5000 
    118 O         -1.2090  -18.1313  -51.9759 O.2       21 UNK        -0.5000 
    119 N          0.2066  -18.2989  -53.6977 N.am      22 UNK        -0.5000 
    120 CA         0.5785  -18.4073  -55.1160 C.3       22 UNK         0.1400 
    121 C          0.2384  -17.1024  -55.8846 C.2       22 UNK         0.5000 
    122 N         -0.3543  -17.2039  -57.0656 N.am      22 UNK        -0.7600 
    123 O          0.5380  -16.0017  -55.4309 O.2       22 UNK        -0.5000 
    124 C124        2.0804  -18.7408  -55.2748 C.3       23 UNK        -0.0398 
    125 S125        2.4956  -20.3866  -54.6045 S.3       23 UNK        -0.2404 
    126 C126        4.0985  -20.0660  -53.8064 C.3       23 UNK        -0.0205 
    127 H127       -3.0207  -14.3723  -53.3355 H         1 UNK         0.0600 
    128 H128       -1.8909  -14.0164  -54.6505 H         1 UNK         0.0600 
    129 H129       -1.9729  -15.6422  -53.9833 H         1 UNK         0.0600 
    130 H130       -1.0240  -16.0864  -51.8990 H         1 UNK         0.3000 
    131 H131        1.2568  -14.4891  -51.2026 H         1 UNK         0.0600 
    132 H132        0.0402  -16.9359  -49.8361 H         1 UNK         0.0800 
    133 H133        1.2082  -16.9778  -51.1089 H         1 UNK         0.0800 
    134 H134        3.6756  -15.9533  -50.9326 H         1 UNK         0.0800 
    135 H135        4.5821  -16.4031  -49.5099 H         1 UNK         0.0800 
    136 H136        3.8031  -17.6028  -52.6435 H         1 UNK         0.1150 
    137 H137        4.0929  -21.7725  -51.7027 H         1 UNK         0.1150 
    138 H138        3.8294  -18.8687  -48.5558 H         1 UNK         0.1150 
    139 H139        3.6309  -22.5200  -49.4369 H         1 UNK         0.0800 
    140 H140        5.1008  -21.8023  -48.8233 H         1 UNK         0.0800 
    141 H141        1.3871  -21.3607  -48.9618 H         1 UNK         0.0800 
    142 H142        1.0819  -20.2665  -47.6387 H         1 UNK         0.0800 
    143 H143        1.0607  -23.3246  -47.4510 H         1 UNK         0.0600 
    144 H144        1.2256  -21.4545  -45.3503 H         1 UNK         0.3000 
    145 H145       -0.6404  -22.3018  -43.0259 H         1 UNK         0.0600 
    146 H146        0.6924  -23.6498  -41.3837 H         1 UNK         0.0600 
    147 H147       -0.2176  -24.6543  -42.4998 H         1 UNK         0.0600 
    148 H148        1.5125  -24.4557  -42.7220 H         1 UNK         0.0600 
    149 H149        0.8763  -20.7433  -42.8074 H         1 UNK         0.3000 
    150 H150        4.2204  -20.5600  -42.2538 H         1 UNK         0.0600 
    151 H151        4.5899  -20.4366  -44.7140 H         1 UNK         0.0600 
    152 H152        4.4983  -18.8259  -44.0196 H         1 UNK         0.0600 
    153 H153        3.1235  -19.4804  -44.9053 H         1 UNK         0.0600 
    154 H154        2.1896  -18.5704  -42.8511 H         1 UNK         0.3000 
    155 H155        0.8604  -18.4961  -39.5157 H         1 UNK         0.0600 
    156 H156        2.3475  -16.4963  -41.3055 H         1 UNK         0.0600 
    157 H157        2.7807  -16.9127  -39.6527 H         1 UNK         0.0600 
    158 H158        1.2625  -16.0906  -39.9787 H         1 UNK         0.0600 
    159 H159        0.1145  -17.2756  -42.0233 H         1 UNK         0.3000 
    160 H160       -2.3277  -19.6537  -42.9662 H         1 UNK         0.0600 
    161 H161       -3.8308  -17.6271  -42.7910 H         1 UNK         0.0600 
    162 H162       -2.7774  -16.9977  -41.5224 H         1 UNK         0.0600 
    163 H163       -3.6387  -18.5072  -41.2817 H         1 UNK         0.0600 
    164 H164       -1.4285  -16.9587  -43.7370 H         1 UNK         0.3000 
    165 H165        0.8039  -18.2588  -46.2252 H         1 UNK         0.0600 
    166 H166       -0.6822  -16.8552  -47.7530 H         1 UNK         0.0600 
    167 H167       -1.2291  -18.5108  -47.5275 H         1 UNK         0.0600 
    168 H168       -2.0171  -17.1884  -46.6665 H         1 UNK         0.0600 
    169 H169       -0.0478  -15.6157  -45.8960 H         1 UNK         0.3000 
    170 H170        2.5808  -14.7003  -43.6101 H         1 UNK         0.0600 
    171 H171        3.4829  -14.9933  -45.9240 H         1 UNK         0.0600 
    172 H172        2.0115  -14.3004  -46.5964 H         1 UNK         0.0600 
    173 H173        3.0763  -13.3144  -45.5981 H         1 UNK         0.0600 
    174 H174        0.1095  -13.7558  -45.0239 H         1 UNK         0.3000 
    175 H175       -1.2788  -12.6009  -42.0030 H         1 UNK         0.0600 
    176 H176       -1.5912  -10.4415  -43.1813 H         1 UNK         0.0600 
    177 H177        0.0718  -10.5876  -42.6367 H         1 UNK         0.0600 
    178 H178       -0.3181  -10.8513  -44.3322 H         1 UNK         0.0600 
    179 H179       -2.2733  -12.3777  -44.6263 H         1 UNK         0.3000 
    180 H180       -3.2699  -15.6997  -45.2436 H         1 UNK         0.0600 
    181 H181       -5.0627  -13.3880  -44.3490 H         1 UNK         0.0600 
    182 H182       -5.0073  -14.9790  -43.5982 H         1 UNK         0.0600 
    183 H183       -5.5665  -14.8166  -45.2543 H         1 UNK         0.0600 
    184 H184       -4.0724  -13.5191  -46.6927 H         1 UNK         0.3000 
    185 H185       -3.3070  -13.4723  -48.7702 H         1 UNK         0.0600 
    186 H186       -0.9941  -11.5758  -48.1089 H         1 UNK         0.0600 
    187 H187       -2.0484  -11.4234  -49.5150 H         1 UNK         0.0600 
    188 H188       -2.7079  -11.2722  -47.8935 H         1 UNK         0.0600 
    189 H189       -2.0279  -14.6864  -50.0548 H         1 UNK         0.3000 
    190 H190       -1.2918  -20.9830  -46.2143 H         1 UNK         0.3000 
    191 H191       -3.2076  -21.0715  -48.3033 H         1 UNK         0.0600 
    192 H192       -3.4984  -20.5434  -45.2931 H         1 UNK         0.0600 
    193 H193       -4.7699  -20.2471  -46.4680 H         1 UNK         0.0600 
    194 H194       -3.2740  -19.3393  -46.5562 H         1 UNK         0.0600 
    195 H195       -2.6838  -23.2055  -45.5298 H         1 UNK         0.3000 
    196 H196       -5.1002  -24.8073  -46.0156 H         1 UNK         0.0600 
    197 H197       -4.3056  -26.0545  -44.0122 H         1 UNK         0.0600 
    198 H198       -4.3920  -24.3310  -43.6831 H         1 UNK         0.0600 
    199 H199       -2.8305  -25.0965  -43.9722 H         1 UNK         0.0600 
    200 H200       -1.5302  -25.0953  -46.3135 H         1 UNK         0.3000 
    201 H201       -1.4377  -27.7948  -47.1081 H         1 UNK         0.0600 
    202 H202        0.5197  -26.5005  -46.2657 H         1 UNK         0.0600 
    203 H203        0.5315  -25.5387  -47.7432 H         1 UNK         0.0600 
    204 H204        0.8786  -27.2602  -47.8094 H         1 UNK         0.0600 
    205 H205       -1.6113  -24.8178  -49.1368 H         1 UNK         0.3000 
    206 H206       -1.7558  -26.3152  -51.6431 H         1 UNK         0.0600 
    207 H207       -0.7660  -24.0151  -51.4970 H         1 UNK         0.0600 
    208 H208       -2.1191  -24.0675  -52.6170 H         1 UNK         0.0600 
    209 H209       -2.3339  -23.3673  -51.0191 H         1 UNK         0.0600 
    210 H210       -3.9655  -25.4340  -49.1688 H         1 UNK         0.3000 
    211 H211       -6.1376  -25.3932  -48.8171 H         1 UNK         0.0600 
    212 H212       -6.4424  -27.2226  -51.2570 H         1 UNK         0.0600 
    213 H213       -7.5971  -27.0199  -49.9471 H         1 UNK         0.0600 
    214 H214       -6.0392  -27.7636  -49.6274 H         1 UNK         0.0600 
    215 H215       -4.9402  -23.3486  -50.4569 H         1 UNK         0.3000 
    216 H216       -6.9676  -22.5182  -52.4401 H         1 UNK         0.0600 
    217 H217       -5.2166  -20.8835  -53.0798 H         1 UNK         0.0600 
    218 H218       -4.5309  -22.4981  -53.0137 H         1 UNK         0.0600 
    219 H219       -4.2250  -21.3580  -51.7038 H         1 UNK         0.0600 
    220 H220       -6.3528  -21.9746  -49.1237 H         1 UNK         0.3000 
    221 H221       -6.9737  -20.4949  -47.5835 H         1 UNK         0.0600 
    222 H222       -9.1824  -19.6541  -49.5334 H         1 UNK         0.0600 
    223 H223       -9.2617  -21.0332  -48.4383 H         1 UNK         0.0600 
    224 H224       -9.1697  -19.4024  -47.7940 H         1 UNK         0.0600 
    225 H225       -4.8614  -19.7579  -49.1177 H         1 UNK         0.3000 
    226 H226       -3.3293  -18.1820  -49.2197 H         1 UNK         0.0600 
    227 H227       -4.3819  -17.1827  -47.1295 H         1 UNK         0.0600 
    228 H228       -3.5191  -16.0451  -48.1534 H         1 UNK         0.0600 
    229 H229       -5.2711  -16.0697  -48.1681 H         1 UNK         0.0600 
    230 H230       -5.8534  -18.3475  -51.2580 H         1 UNK         0.3000 
    231 H231       -5.4123  -16.0068  -52.9016 H         1 UNK         0.0600 
    232 H232       -7.5838  -17.2875  -52.8057 H         1 UNK         0.0600 
    233 H233       -6.7907  -18.6528  -53.5932 H         1 UNK         0.0600 
    234 H234       -6.9623  -17.1240  -54.4412 H         1 UNK         0.0600 
    235 H235       -3.5715  -18.8014  -52.4302 H         1 UNK         0.3000 
    236 H236       -2.1328  -18.5328  -55.0236 H         1 UNK         0.0600 
    237 H237       -1.2813  -20.8408  -54.5476 H         1 UNK         0.0600 
    238 H238       -2.2030  -20.8988  -53.0575 H         1 UNK         0.0600 
    239 H239       -3.0344  -20.8486  -54.6126 H         1 UNK         0.0600 
    240 H240        0.9573  -17.9981  -53.0977 H         1 UNK         0.3000 
    241 H241        0.0217  -19.2264  -55.5718 H         1 UNK         0.0600 
    242 H242       -0.5858  -18.0952  -57.4767 H         1 UNK         0.3800 
    243 H243       -0.5655  -16.3602  -57.5760 H         1 UNK         0.3800 
    244 H244        2.6911  -17.9739  -54.7962 H         1 UNK         0.0800 
    245 H245        2.3640  -18.7407  -56.3290 H         1 UNK         0.0800 
    246 H246        4.6345  -19.2740  -54.3316 H         1 UNK         0.0800 
    247 H247        4.7176  -20.9582  -53.9123 H         1 UNK         0.0800 
@<TRIPOS>BOND
     1    1    2 1    
     2    1  127 1    
     3    1  128 1    
     4    1  129 1    
     5    2    3 2    
     6    2    4 am   BACKBONE|DICT|INTERRES
     7    4    5 1    
     8    4  130 1    
     9    5    6 1    
    10    5   65 1    
    11    5  131 1    
    12    6    7 1    
    13    6  132 1    
    14    6  133 1    
    15    7    8 1    
    16    8    9 1    
    17    8  134 1    
    18    8  135 1    
    19    9   10 ar   
    20    9   14 ar   
    21   10   11 ar   
    22   10  136 1    
    23   11   12 ar   
    24   11  126 1    
    25   12   13 ar   
    26   12  137 1    
    27   13   14 ar   
    28   13   15 1    
    29   14  138 1    
    30   15   16 1    
    31   15  139 1    
    32   15  140 1    
    33   16   17 1    
    34   17   18 1    
    35   17  141 1    
    36   17  142 1    
    37   18   19 1    
    38   18   67 1    
    39   18  143 1    
    40   19   20 am   BACKBONE|DICT|INTERRES
    41   19  144 1    
    42   20   21 2    
    43   20   22 1    
    44   22   23 1    
    45   22   24 1    
    46   22  145 1    
    47   23  146 1    
    48   23  147 1    
    49   23  148 1    
    50   24   25 am   BACKBONE|DICT|INTERRES
    51   24  149 1    
    52   25   26 2    
    53   25   27 1    
    54   27   28 1    
    55   27   29 1    
    56   27  150 1    
    57   28  151 1    
    58   28  152 1    
    59   28  153 1    
    60   29   30 am   BACKBONE|DICT|INTERRES
    61   29  154 1    
    62   30   31 2    
    63   30   32 1    
    64   32   33 1    
    65   32   34 1    
    66   32  155 1    
    67   33  156 1    
    68   33  157 1    
    69   33  158 1    
    70   34   35 am   BACKBONE|DICT|INTERRES
    71   34  159 1    
    72   35   36 2    
    73   35   37 1    
    74   37   38 1    
    75   37   39 1    
    76   37  160 1    
    77   38  161 1    
    78   38  162 1    
    79   38  163 1    
    80   39   40 am   BACKBONE|DICT|INTERRES
    81   39  164 1    
    82   40   41 2    
    83   40   42 1    
    84   42   43 1    
    85   42   44 1    
    86   42  165 1    
    87   43  166 1    
    88   43  167 1    
    89   43  168 1    
    90   44   45 am   BACKBONE|DICT|INTERRES
    91   44  169 1    
    92   45   46 2    
    93   45   47 1    
    94   47   48 1    
    95   47   49 1    
    96   47  170 1    
    97   48  171 1    
    98   48  172 1    
    99   48  173 1    
   100   49   50 am   BACKBONE|DICT|INTERRES
   101   49  174 1    
   102   50   51 2    
   103   50   52 1    
   104   52   53 1    
   105   52   54 1    
   106   52  175 1    
   107   53  176 1    
   108   53  177 1    
   109   53  178 1    
   110   54   55 am   BACKBONE|DICT|INTERRES
   111   54  179 1    
   112   55   56 2    
   113   55   57 1    
   114   57   58 1    
   115   57   59 1    
   116   57  180 1    
   117   58  181 1    
   118   58  182 1    
   119   58  183 1    
   120   59   60 am   BACKBONE|DICT|INTERRES
   121   59  184 1    
   122   60   61 2    
   123   60   62 1    
   124   62   63 1    
   125   62   64 1    
   126   62  185 1    
   127   63  186 1    
   128   63  187 1    
   129   63  188 1    
   130   64   65 am   BACKBONE|DICT|INTERRES
   131   64  189 1    
   132   65   66 2    
   133   67   68 2    
   134   67   69 am   BACKBONE|DICT|INTERRES
   135   69   70 1    
   136   69  190 1    
   137   70   71 1    
   138   70   72 1    
   139   70  191 1    
   140   71  192 1    
   141   71  193 1    
   142   71  194 1    
   143   72   73 2    
   144   72   74 am   BACKBONE|DICT|INTERRES
   145   74   75 1    
   146   74  195 1    
   147   75   76 1    
   148   75   77 1    
   149   75  196 1    
   150   76  197 1    
   151   76  198 1    
   152   76  199 1    
   153   77   78 2    
   154   77   79 am   BACKBONE|DICT|INTERRES
   155   79   80 1    
   156   79  200 1    
   157   80   81 1    
   158   80   82 1    
   159   80  201 1    
   160   81  202 1    
   161   81  203 1    
   162   81  204 1    
   163   82   83 2    
   164   82   84 am   BACKBONE|DICT|INTERRES
   165   84   85 1    
   166   84  205 1    
   167   85   86 1    
   168   85   87 1    
   169   85  206 1    
   170   86  207 1    
   171   86  208 1    
   172   86  209 1    
   173   87   88 2    
   174   87   89 am   BACKBONE|DICT|INTERRES
   175   89   90 1    
   176   89  210 1    
   177   90   91 1    
   178   90   92 1    
   179   90  211 1    
   180   91  212 1    
   181   91  213 1    
   182   91  214 1    
   183   92   93 2    
   184   92   94 am   BACKBONE|DICT|INTERRES
   185   94   95 1    
   186   94  215 1    
   187   95   96 1    
   188   95   97 1    
   189   95  216 1    
   190   96  217 1    
   191   96  218 1    
   192   96  219 1    
   193   97   98 2    
   194   97   99 am   BACKBONE|DICT|INTERRES
   195   99  100 1    
   196   99  220 1    
   197  100  101 1    
   198  100  102 1    
   199  100  221 1    
   200  101  222 1    
   201  101  223 1    
   202  101  224 1    
   203  102  103 2    
   204  102  104 am   BACKBONE|DICT|INTERRES
   205  104  105 1    
   206  104  225 1    
   207  105  106 1    
   208  105  107 1    
   209  105  226 1    
   210  106  227 1    
   211  106  228 1    
   212  106  229 1    
   213  107  108 2    
   214  107  109 am   BACKBONE|DICT|INTERRES
   215  109  110 1    
   216  109  230 1    
   217  110  111 1    
   218  110  112 1    
   219  110  231 1    
   220  111  232 1    
   221  111  233 1    
   222  111  234 1    
   223  112  113 2    
   224  112  114 am   BACKBONE|DICT|INTERRES
   225  114  115 1    
   226  114  235 1    
   227  115  116 1    
   228  115  117 1    
   229  115  236 1    
   230  116  237 1    
   231  116  238 1    
   232  116  239 1    
   233  117  118 2    
   234  117  119 am   BACKBONE|DICT|INTERRES
   235  119  120 1    
   236  119  240 1    
   237  120  121 1    
   238  120  124 1    
   239  120  241 1    
   240  121  122 am   BACKBONE|DICT|INTERRES
   241  121  123 2    
   242  122  242 1    
   243  122  243 1    
   244  124  125 1    
   245  124  244 1    
   246  124  245 1    
   247  125  126 1    
   248  126  246 1    
   249  126  247 1    
@<TRIPOS>SUBSTRUCTURE
     1 UNK         1 GROUP             0       ****    0 ROOT    
