@<TRIPOS>MOLECULE
3R540
247   249    1
SMALL
USER_CHARGES


@<TRIPOS>ATOM
      1 CA         -5.1315  -14.6608  -52.2130 C.3       0 UNK        -0.1800 
      2 C          -3.9578  -13.9813  -51.5216 C.2       0 UNK         0.5000 
      3 O          -3.7030  -12.8024  -51.7683 O.2       0 UNK        -0.5000 
      4 N          -3.2368  -14.7196  -50.6693 N.am      1 UNK        -0.5000 
      5 CA         -2.1111  -14.2144  -49.8762 C.3       1 UNK         0.1400 
      6 C6         -1.3174  -15.3569  -49.1975 C.3       23 UNK        -0.0398 
      7 S7         -0.4893  -16.4583  -50.3835 S.3       23 UNK        -0.2404 
      8 C8         -0.7487  -18.0584  -49.5690 C.3       23 UNK        -0.0205 
      9 C9          0.0794  -19.1494  -50.2211 C.ar      23 UNK        -0.0193 
     10 C10        -0.3467  -19.7399  -51.4121 C.ar      23 UNK        -0.1150 
     11 C11         0.4100  -20.7480  -52.0198 C.ar      23 UNK        -0.0193 
     12 C12         1.5970  -21.1677  -51.4121 C.ar      23 UNK        -0.1150 
     13 C13         2.0349  -20.5817  -50.2208 C.ar      23 UNK        -0.0193 
     14 C14         1.2741  -19.5685  -49.6328 C.ar      23 UNK        -0.1150 
     15 C15         3.3388  -21.0345  -49.5839 C.3       23 UNK        -0.0205 
     16 S16         3.1067  -22.4978  -48.5282 S.3       23 UNK        -0.2404 
     17 C17         2.4085  -21.7584  -47.0136 C.3       23 UNK        -0.0398 
     18 CA          1.2428  -22.5848  -46.4234 C.3       11 UNK         0.1400 
     19 N           1.0911  -22.3408  -44.9873 N.am      11 UNK        -0.5000 
     20 C           0.3479  -23.0914  -44.1635 C.2       10 UNK         0.5000 
     21 O          -0.2647  -24.0968  -44.5222 O.2       10 UNK        -0.5000 
     22 CA          0.2361  -22.6131  -42.7044 C.3       10 UNK         0.1400 
     23 CB          1.4772  -23.0226  -41.8977 C.3       10 UNK        -0.1800 
     24 N           0.0369  -21.1664  -42.6037 N.am      10 UNK        -0.5000 
     25 C          -1.0410  -20.5198  -43.0690 C.2       9 UNK         0.5000 
     26 O          -2.0056  -21.0867  -43.5799 O.2       9 UNK        -0.5000 
     27 CA         -1.0219  -18.9831  -43.0042 C.3       9 UNK         0.1400 
     28 CB         -1.4188  -18.4807  -41.6091 C.3       9 UNK        -0.1800 
     29 N           0.2721  -18.4150  -43.3829 N.am      9 UNK        -0.5000 
     30 C           0.8324  -18.5310  -44.5953 C.2       8 UNK         0.5000 
     31 O           0.3042  -19.1042  -45.5454 O.2       8 UNK        -0.5000 
     32 CA          2.2460  -17.9543  -44.7627 C.3       8 UNK         0.1400 
     33 CB          2.1977  -16.4373  -44.9980 C.3       8 UNK        -0.1800 
     34 N           3.0935  -18.2590  -43.6107 N.am      8 UNK        -0.5000 
     35 C           3.5050  -19.4934  -43.2861 C.2       7 UNK         0.5000 
     36 O           3.2472  -20.4979  -43.9502 O.2       7 UNK        -0.5000 
     37 CA          4.2962  -19.6300  -41.9732 C.3       7 UNK         0.1400 
     38 CB          5.7725  -19.2647  -42.1873 C.3       7 UNK        -0.1800 
     39 N           3.7399  -18.8038  -40.9001 N.am      7 UNK        -0.5000 
     40 C           2.5402  -19.0063  -40.3368 C.2       6 UNK         0.5000 
     41 O           1.7914  -19.9341  -40.6402 O.2       6 UNK        -0.5000 
     42 CA          2.0819  -17.9724  -39.2917 C.3       6 UNK         0.1400 
     43 CB          2.6114  -18.3421  -37.8983 C.3       6 UNK        -0.1800 
     44 N           2.4811  -16.5997  -39.6167 N.am      6 UNK        -0.5000 
     45 C           2.0720  -15.9267  -40.6998 C.2       5 UNK         0.5000 
     46 O           1.3482  -16.4100  -41.5735 O.2       5 UNK        -0.5000 
     47 CA          2.6117  -14.4972  -40.8651 C.3       5 UNK         0.1400 
     48 CB          3.8620  -14.5018  -41.7584 C.3       5 UNK        -0.1800 
     49 N           1.6025  -13.6272  -41.4645 N.am      5 UNK        -0.5000 
     50 C           0.5706  -13.0866  -40.8021 C.2       4 UNK         0.5000 
     51 O           0.4037  -13.1982  -39.5867 O.2       4 UNK        -0.5000 
     52 CA         -0.4456  -12.2844  -41.6383 C.3       4 UNK         0.1400 
     53 CB         -0.0488  -10.8013  -41.6957 C.3       4 UNK        -0.1800 
     54 N          -0.5745  -12.7963  -43.0031 N.am      4 UNK        -0.5000 
     55 C          -1.2160  -13.9212  -43.3387 C.2       3 UNK         0.5000 
     56 O          -1.8548  -14.6037  -42.5363 O.2       3 UNK        -0.5000 
     57 CA         -1.1280  -14.3355  -44.8222 C.3       3 UNK         0.1400 
     58 CB         -1.7992  -15.6901  -45.1048 C.3       3 UNK        -0.1800 
     59 N          -1.6908  -13.3410  -45.7352 N.am      3 UNK        -0.5000 
     60 C          -1.1182  -12.1890  -46.1055 C.2       2 UNK         0.5000 
     61 O          -0.0584  -11.7736  -45.6318 O.2       2 UNK        -0.5000 
     62 CA         -1.8159  -11.4330  -47.2554 C.3       2 UNK         0.1400 
     63 CB         -1.1860  -10.0563  -47.5323 C.3       2 UNK        -0.1800 
     64 N          -1.7383  -12.2462  -48.4706 N.am      2 UNK        -0.5000 
     65 C          -2.5828  -13.2379  -48.7806 C.2       1 UNK         0.5000 
     66 O          -3.6286  -13.4595  -48.1645 O.2       1 UNK        -0.5000 
     67 C          -0.0876  -22.3815  -47.1841 C.2       11 UNK         0.5000 
     68 O          -0.4453  -23.2174  -48.0148 O.2       11 UNK        -0.5000 
     69 N          -0.8356  -21.3236  -46.8342 N.am      12 UNK        -0.5000 
     70 CA         -2.1810  -21.0502  -47.3408 C.3       12 UNK         0.1400 
     71 CB         -2.6764  -19.6898  -46.8245 C.3       12 UNK        -0.1800 
     72 C          -3.1850  -22.1558  -46.9723 C.2       12 UNK         0.5000 
     73 O          -3.9588  -22.5738  -47.8296 O.2       12 UNK        -0.5000 
     74 N          -3.1365  -22.6376  -45.7226 N.am      13 UNK        -0.5000 
     75 CA         -3.9600  -23.7437  -45.2311 C.3       13 UNK         0.1400 
     76 CB         -3.7996  -23.8728  -43.7090 C.3       13 UNK        -0.1800 
     77 C          -3.6511  -25.0812  -45.9296 C.2       13 UNK         0.5000 
     78 O          -4.5765  -25.8487  -46.1948 O.2       13 UNK        -0.5000 
     79 N          -2.3686  -25.3257  -46.2342 N.am      14 UNK        -0.5000 
     80 CA         -1.9049  -26.4889  -46.9906 C.3       14 UNK         0.1400 
     81 CB         -0.3771  -26.6057  -46.8760 C.3       14 UNK        -0.1800 
     82 C          -2.3482  -26.4488  -48.4654 C.2       14 UNK         0.5000 
     83 O          -2.7770  -27.4749  -48.9951 O.2       14 UNK        -0.5000 
     84 N          -2.2535  -25.2690  -49.0955 N.am      15 UNK        -0.5000 
     85 CA         -2.7164  -25.0209  -50.4630 C.3       15 UNK         0.1400 
     86 CB         -2.1183  -23.7004  -50.9690 C.3       15 UNK        -0.1800 
     87 C          -4.2535  -25.0251  -50.5908 C.2       15 UNK         0.5000 
     88 O          -4.7756  -25.4684  -51.6148 O.2       15 UNK        -0.5000 
     89 N          -4.9467  -24.5525  -49.5459 N.am      16 UNK        -0.5000 
     90 CA         -6.3995  -24.5019  -49.3823 C.3       16 UNK         0.1400 
     91 CB         -6.9673  -25.9269  -49.1970 C.3       16 UNK        -0.1800 
     92 C          -7.0671  -23.6929  -50.5118 C.2       16 UNK         0.5000 
     93 O          -6.8291  -22.4894  -50.6133 O.2       16 UNK        -0.5000 
     94 N          -7.8627  -24.3564  -51.3603 N.am      17 UNK        -0.5000 
     95 CA         -8.5405  -23.7618  -52.5146 C.3       17 UNK         0.1400 
     96 CB         -9.5077  -24.7972  -53.1086 C.3       17 UNK        -0.1800 
     97 C          -7.5828  -23.2322  -53.6026 C.2       17 UNK         0.5000 
     98 O          -7.9826  -22.3688  -54.3843 O.2       17 UNK        -0.5000 
     99 N          -6.3436  -23.7429  -53.6357 N.am      18 UNK        -0.5000 
    100 CA        -5.3096  -23.3395  -54.5876 C.3       18 UNK         0.1400 
    101 CB        -4.3721  -24.5319  -54.8412 C.3       18 UNK        -0.1800 
    102 C         -4.5034  -22.1075  -54.1319 C.2       18 UNK         0.5000 
    103 O         -3.6676  -21.6406  -54.9035 O.2       18 UNK        -0.5000 
    104 N         -4.7391  -21.5955  -52.9128 N.am      19 UNK        -0.5000 
    105 CA        -3.9641  -20.5327  -52.2548 C.3       19 UNK         0.1400 
    106 CB        -4.2623  -20.5649  -50.7457 C.3       19 UNK        -0.1800 
    107 C         -4.1476  -19.1067  -52.8335 C.2       19 UNK         0.5000 
    108 O         -4.0653  -18.1261  -52.0897 O.2       19 UNK        -0.5000 
    109 N         -4.3914  -18.9959  -54.1428 N.am      20 UNK        -0.5000 
    110 CA        -4.6530  -17.7608  -54.8790 C.3       20 UNK         0.1400 
    111 CB        -5.4154  -18.1180  -56.1674 C.3       20 UNK        -0.1800 
    112 C         -3.3613  -16.9632  -55.1537 C.2       20 UNK         0.5000 
    113 O         -2.9595  -16.8136  -56.3093 O.2       20 UNK        -0.5000 
    114 N         -2.7232  -16.4866  -54.0763 N.am      21 UNK        -0.5000 
    115 CA        -1.4970  -15.6767  -53.9977 C.3       21 UNK         0.1400 
    116 CB        -1.6398  -14.3512  -54.7695 C.3       21 UNK        -0.1800 
    117 C         -0.2066  -16.4242  -54.3921 C.2       21 UNK         0.5000 
    118 O          0.8036  -16.2819  -53.7028 O.2       21 UNK        -0.5000 
    119 N         -0.2730  -17.2244  -55.4614 N.am      22 UNK        -0.5000 
    120 CA         0.7656  -18.1510  -55.9396 C.3       22 UNK         0.1400 
    121 C          2.0823  -17.4438  -56.3933 C.2       22 UNK         0.5000 
    122 N          3.2042  -18.1483  -56.4775 N.am      22 UNK        -0.7600 
    123 O          2.0921  -16.2629  -56.7358 O.2       22 UNK        -0.5000 
    124 C124        0.9842  -19.3367  -54.9534 C.3       23 UNK        -0.0398 
    125 S125       -0.5737  -20.2197  -54.5952 S.3       23 UNK        -0.2404 
    126 C126       -0.0482  -21.4059  -53.3174 C.3       23 UNK        -0.0205 
    127 H127       -4.9822  -14.6602  -53.2925 H         1 UNK         0.0600 
    128 H128       -6.0552  -14.1246  -51.9959 H         1 UNK         0.0600 
    129 H129       -5.2546  -15.6926  -51.8843 H         1 UNK         0.0600 
    130 H130       -3.4998  -15.6798  -50.4981 H         1 UNK         0.3000 
    131 H131       -1.4401  -13.6775  -50.5505 H         1 UNK         0.0600 
    132 H132       -1.9804  -15.9428  -48.5579 H         1 UNK         0.0800 
    133 H133       -0.5392  -14.9582  -48.5433 H         1 UNK         0.0800 
    134 H134       -1.8070  -18.3198  -49.6038 H         1 UNK         0.0800 
    135 H135       -0.4767  -17.9684  -48.5163 H         1 UNK         0.0800 
    136 H136       -1.2574  -19.3909  -51.8734 H         1 UNK         0.1150 
    137 H137        2.1862  -21.9524  -51.8657 H         1 UNK         0.1150 
    138 H138        1.6102  -19.1010  -48.7184 H         1 UNK         0.1150 
    139 H139        4.0583  -21.2793  -50.3666 H         1 UNK         0.0800 
    140 H140        3.7879  -20.2261  -49.0046 H         1 UNK         0.0800 
    141 H141        2.1114  -20.7225  -47.1737 H         1 UNK         0.0800 
    142 H142        3.2310  -21.7183  -46.2987 H         1 UNK         0.0800 
    143 H143        1.5045  -23.6408  -46.5222 H         1 UNK         0.0600 
    144 H144        1.5943  -21.5474  -44.6044 H         1 UNK         0.3000 
    145 H145       -0.6334  -23.1022  -42.2604 H         1 UNK         0.0600 
    146 H146        1.3659  -22.7608  -40.8454 H         1 UNK         0.0600 
    147 H147        2.3791  -22.5352  -42.2688 H         1 UNK         0.0600 
    148 H148        1.6394  -24.0998  -41.9499 H         1 UNK         0.0600 
    149 H149        0.7648  -20.6356  -42.1340 H         1 UNK         0.3000 
    150 H150       -1.7664  -18.6222  -43.7156 H         1 UNK         0.0600 
    151 H151       -2.4054  -18.8506  -41.3277 H         1 UNK         0.0600 
    152 H152       -1.4580  -17.3913  -41.5802 H         1 UNK         0.0600 
    153 H153       -0.7143  -18.8106  -40.8462 H         1 UNK         0.0600 
    154 H154        0.7575  -17.8754  -42.6713 H         1 UNK         0.3000 
    155 H155        2.6930  -18.4189  -45.6444 H         1 UNK         0.0600 
    156 H156        1.6023  -16.2019  -45.8812 H         1 UNK         0.0600 
    157 H157        3.1960  -16.0318  -45.1629 H         1 UNK         0.0600 
    158 H158        1.7554  -15.9088  -44.1538 H         1 UNK         0.0600 
    159 H159        3.3031  -17.4974  -42.9838 H         1 UNK         0.3000 
    160 H160        4.2444  -20.6751  -41.6603 H         1 UNK         0.0600 
    161 H161        5.8936  -18.2199  -42.4761 H         1 UNK         0.0600 
    162 H162        6.2150  -19.8766  -42.9745 H         1 UNK         0.0600 
    163 H163        6.3550  -19.4322  -41.2811 H         1 UNK         0.0600 
    164 H164        4.2932  -18.0193  -40.5892 H         1 UNK         0.3000 
    165 H165        0.9910  -18.0008  -39.2580 H         1 UNK         0.0600 
    166 H166        2.2183  -17.6697  -37.1355 H         1 UNK         0.0600 
    167 H167        2.3112  -19.3541  -37.6228 H         1 UNK         0.0600 
    168 H168        3.7004  -18.2996  -37.8555 H         1 UNK         0.0600 
    169 H169        3.0864  -16.1391  -38.9522 H         1 UNK         0.3000 
    170 H170        2.8857  -14.1015  -39.8846 H         1 UNK         0.0600 
    171 H171        4.6456  -15.1305  -41.3337 H         1 UNK         0.0600 
    172 H172        3.6449  -14.8780  -42.7586 H         1 UNK         0.0600 
    173 H173        4.2743  -13.4979  -41.8620 H         1 UNK         0.0600 
    174 H174        1.6377  -13.5166  -42.4661 H         1 UNK         0.3000 
    175 H175       -1.4169  -12.3585  -41.1444 H         1 UNK         0.0600 
    176 H176        0.9108  -10.6599  -42.1947 H         1 UNK         0.0600 
    177 H177       -0.7950  -10.2145  -42.2317 H         1 UNK         0.0600 
    178 H178        0.0364  -10.3806  -40.6929 H         1 UNK         0.0600 
    179 H179       -0.1292  -12.2661  -43.7467 H         1 UNK         0.3000 
    180 H180       -0.0668  -14.4447  -45.0522 H         1 UNK         0.0600 
    181 H181       -1.6010  -16.0285  -46.1214 H         1 UNK         0.0600 
    182 H182       -2.8799  -15.6436  -44.9668 H         1 UNK         0.0600 
    183 H183       -1.4158  -16.4549  -44.4331 H         1 UNK         0.0600 
    184 H184       -2.5678  -13.5887  -46.1761 H         1 UNK         0.3000 
    185 H185       -2.8592  -11.2756  -46.9735 H         1 UNK         0.0600 
    186 H186       -0.1396  -10.1402  -47.8285 H         1 UNK         0.0600 
    187 H187       -1.7177   -9.5344  -48.3282 H         1 UNK         0.0600 
    188 H188       -1.2275   -9.4232  -46.6451 H         1 UNK         0.0600 
    189 H189       -0.8875  -12.1474  -49.0063 H         1 UNK         0.3000 
    190 H190       -0.4543  -20.6441  -46.1796 H         1 UNK         0.3000 
    191 H191       -2.1150  -21.0012  -48.4295 H         1 UNK         0.0600 
    192 H192       -1.9751  -18.8907  -47.0545 H         1 UNK         0.0600 
    193 H193       -2.8213  -19.6957  -45.7445 H         1 UNK         0.0600 
    194 H194       -3.6313  -19.4269  -47.2811 H         1 UNK         0.0600 
    195 H195       -2.5163  -22.1965  -45.0486 H         1 UNK         0.3000 
    196 H196       -5.0031  -23.4977  -45.4402 H         1 UNK         0.0600 
    197 H197       -4.0999  -22.9556  -43.2022 H         1 UNK         0.0600 
    198 H198       -2.7682  -24.0870  -43.4289 H         1 UNK         0.0600 
    199 H199       -4.4209  -24.6792  -43.3174 H         1 UNK         0.0600 
    200 H200       -1.6600  -24.6709  -45.9207 H         1 UNK         0.3000 
    201 H201       -2.3434  -27.3801  -46.5366 H         1 UNK         0.0600 
    202 H202       -0.0662  -26.6958  -45.8350 H         1 UNK         0.0600 
    203 H203        0.1292  -25.7392  -47.3011 H         1 UNK         0.0600 
    204 H204       -0.0133  -27.4888  -47.4025 H         1 UNK         0.0600 
    205 H205       -1.8267  -24.4865  -48.6073 H         1 UNK         0.3000 
    206 H206       -2.3396  -25.8229  -51.1011 H         1 UNK         0.0600 
    207 H207       -2.3234  -22.8771  -50.2858 H         1 UNK         0.0600 
    208 H208       -1.0354  -23.7756  -51.0706 H         1 UNK         0.0600 
    209 H209       -2.5218  -23.4345  -51.9463 H         1 UNK         0.0600 
    210 H210       -4.4253  -24.0848  -48.8085 H         1 UNK         0.3000 
    211 H211       -6.5844  -23.9493  -48.4600 H         1 UNK         0.0600 
    212 H212       -6.7860  -26.5630  -50.0639 H         1 UNK         0.0600 
    213 H213       -8.0426  -25.9030  -49.0157 H         1 UNK         0.0600 
    214 H214       -6.5094  -26.4133  -48.3353 H         1 UNK         0.0600 
    215 H215       -7.9842  -25.3497  -51.2264 H         1 UNK         0.3000 
    216 H216       -9.1259  -22.9124  -52.1567 H         1 UNK         0.0600 
    217 H217      -10.0563  -24.3804  -53.9543 H         1 UNK         0.0600 
    218 H218      -10.2447  -25.1179  -52.3720 H         1 UNK         0.0600 
    219 H219       -8.9793  -25.6826  -53.4644 H         1 UNK         0.0600 
    220 H220       -6.0724  -24.4323  -52.9422 H         1 UNK         0.3000 
    221 H221       -5.7808  -23.0826  -55.5387 H         1 UNK         0.0600 
    222 H222       -3.7906  -24.7860  -53.9551 H         1 UNK         0.0600 
    223 H223       -4.9300  -25.4181  -55.1440 H         1 UNK         0.0600 
    224 H224       -3.6635  -24.3075  -55.6394 H         1 UNK         0.0600 
    225 H225       -5.4794  -22.0052  -52.3563 H         1 UNK         0.3000 
    226 H226       -2.9141  -20.7912  -52.3867 H         1 UNK         0.0600 
    227 H227       -4.1885  -21.5731  -50.3425 H         1 UNK         0.0600 
    228 H228       -3.5617  -19.9408  -50.1911 H         1 UNK         0.0600 
    229 H229       -5.2675  -20.2007  -50.5307 H         1 UNK         0.0600 
    230 H230       -4.3215  -19.8468  -54.6920 H         1 UNK         0.3000 
    231 H231       -5.3048  -17.1259  -54.2755 H         1 UNK         0.0600 
    232 H232       -5.6546  -17.2225  -56.7425 H         1 UNK         0.0600 
    233 H233       -6.3570  -18.6187  -55.9415 H         1 UNK         0.0600 
    234 H234       -4.8318  -18.7780  -56.8107 H         1 UNK         0.0600 
    235 H235       -3.1021  -16.7758  -53.1795 H         1 UNK         0.3000 
    236 H236       -1.3938  -15.4165  -52.9447 H         1 UNK         0.0600 
    237 H237       -1.7193  -14.5093  -55.8451 H         1 UNK         0.0600 
    238 H238       -2.5204  -13.7976  -54.4438 H         1 UNK         0.0600 
    239 H239       -0.7730  -13.7114  -54.5999 H         1 UNK         0.0600 
    240 H240       -1.1500  -17.2330  -55.9735 H         1 UNK         0.3000 
    241 H241        0.3591  -18.5704  -56.8603 H         1 UNK         0.0600 
    242 H242        4.0432  -17.6868  -56.7941 H         1 UNK         0.3800 
    243 H243        3.2416  -19.1270  -56.2418 H         1 UNK         0.3800 
    244 H244        1.4194  -18.9796  -54.0186 H         1 UNK         0.0800 
    245 H245        1.6814  -20.0667  -55.3651 H         1 UNK         0.0800 
    246 H246        0.7399  -22.0360  -53.7323 H         1 UNK         0.0800 
    247 H247       -0.8850  -22.0679  -53.0981 H         1 UNK         0.0800 
@<TRIPOS>BOND
     1    1    2 1    
     2    1  127 1    
     3    1  128 1    
     4    1  129 1    
     5    2    3 2    
     6    2    4 am   BACKBONE|DICT|INTERRES
     7    4    5 1    
     8    4  130 1    
     9    5    6 1    
    10    5   65 1    
    11    5  131 1    
    12    6    7 1    
    13    6  132 1    
    14    6  133 1    
    15    7    8 1    
    16    8    9 1    
    17    8  134 1    
    18    8  135 1    
    19    9   10 ar   
    20    9   14 ar   
    21   10   11 ar   
    22   10  136 1    
    23   11   12 ar   
    24   11  126 1    
    25   12   13 ar   
    26   12  137 1    
    27   13   14 ar   
    28   13   15 1    
    29   14  138 1    
    30   15   16 1    
    31   15  139 1    
    32   15  140 1    
    33   16   17 1    
    34   17   18 1    
    35   17  141 1    
    36   17  142 1    
    37   18   19 1    
    38   18   67 1    
    39   18  143 1    
    40   19   20 am   BACKBONE|DICT|INTERRES
    41   19  144 1    
    42   20   21 2    
    43   20   22 1    
    44   22   23 1    
    45   22   24 1    
    46   22  145 1    
    47   23  146 1    
    48   23  147 1    
    49   23  148 1    
    50   24   25 am   BACKBONE|DICT|INTERRES
    51   24  149 1    
    52   25   26 2    
    53   25   27 1    
    54   27   28 1    
    55   27   29 1    
    56   27  150 1    
    57   28  151 1    
    58   28  152 1    
    59   28  153 1    
    60   29   30 am   BACKBONE|DICT|INTERRES
    61   29  154 1    
    62   30   31 2    
    63   30   32 1    
    64   32   33 1    
    65   32   34 1    
    66   32  155 1    
    67   33  156 1    
    68   33  157 1    
    69   33  158 1    
    70   34   35 am   BACKBONE|DICT|INTERRES
    71   34  159 1    
    72   35   36 2    
    73   35   37 1    
    74   37   38 1    
    75   37   39 1    
    76   37  160 1    
    77   38  161 1    
    78   38  162 1    
    79   38  163 1    
    80   39   40 am   BACKBONE|DICT|INTERRES
    81   39  164 1    
    82   40   41 2    
    83   40   42 1    
    84   42   43 1    
    85   42   44 1    
    86   42  165 1    
    87   43  166 1    
    88   43  167 1    
    89   43  168 1    
    90   44   45 am   BACKBONE|DICT|INTERRES
    91   44  169 1    
    92   45   46 2    
    93   45   47 1    
    94   47   48 1    
    95   47   49 1    
    96   47  170 1    
    97   48  171 1    
    98   48  172 1    
    99   48  173 1    
   100   49   50 am   BACKBONE|DICT|INTERRES
   101   49  174 1    
   102   50   51 2    
   103   50   52 1    
   104   52   53 1    
   105   52   54 1    
   106   52  175 1    
   107   53  176 1    
   108   53  177 1    
   109   53  178 1    
   110   54   55 am   BACKBONE|DICT|INTERRES
   111   54  179 1    
   112   55   56 2    
   113   55   57 1    
   114   57   58 1    
   115   57   59 1    
   116   57  180 1    
   117   58  181 1    
   118   58  182 1    
   119   58  183 1    
   120   59   60 am   BACKBONE|DICT|INTERRES
   121   59  184 1    
   122   60   61 2    
   123   60   62 1    
   124   62   63 1    
   125   62   64 1    
   126   62  185 1    
   127   63  186 1    
   128   63  187 1    
   129   63  188 1    
   130   64   65 am   BACKBONE|DICT|INTERRES
   131   64  189 1    
   132   65   66 2    
   133   67   68 2    
   134   67   69 am   BACKBONE|DICT|INTERRES
   135   69   70 1    
   136   69  190 1    
   137   70   71 1    
   138   70   72 1    
   139   70  191 1    
   140   71  192 1    
   141   71  193 1    
   142   71  194 1    
   143   72   73 2    
   144   72   74 am   BACKBONE|DICT|INTERRES
   145   74   75 1    
   146   74  195 1    
   147   75   76 1    
   148   75   77 1    
   149   75  196 1    
   150   76  197 1    
   151   76  198 1    
   152   76  199 1    
   153   77   78 2    
   154   77   79 am   BACKBONE|DICT|INTERRES
   155   79   80 1    
   156   79  200 1    
   157   80   81 1    
   158   80   82 1    
   159   80  201 1    
   160   81  202 1    
   161   81  203 1    
   162   81  204 1    
   163   82   83 2    
   164   82   84 am   BACKBONE|DICT|INTERRES
   165   84   85 1    
   166   84  205 1    
   167   85   86 1    
   168   85   87 1    
   169   85  206 1    
   170   86  207 1    
   171   86  208 1    
   172   86  209 1    
   173   87   88 2    
   174   87   89 am   BACKBONE|DICT|INTERRES
   175   89   90 1    
   176   89  210 1    
   177   90   91 1    
   178   90   92 1    
   179   90  211 1    
   180   91  212 1    
   181   91  213 1    
   182   91  214 1    
   183   92   93 2    
   184   92   94 am   BACKBONE|DICT|INTERRES
   185   94   95 1    
   186   94  215 1    
   187   95   96 1    
   188   95   97 1    
   189   95  216 1    
   190   96  217 1    
   191   96  218 1    
   192   96  219 1    
   193   97   98 2    
   194   97   99 am   BACKBONE|DICT|INTERRES
   195   99  100 1    
   196   99  220 1    
   197  100  101 1    
   198  100  102 1    
   199  100  221 1    
   200  101  222 1    
   201  101  223 1    
   202  101  224 1    
   203  102  103 2    
   204  102  104 am   BACKBONE|DICT|INTERRES
   205  104  105 1    
   206  104  225 1    
   207  105  106 1    
   208  105  107 1    
   209  105  226 1    
   210  106  227 1    
   211  106  228 1    
   212  106  229 1    
   213  107  108 2    
   214  107  109 am   BACKBONE|DICT|INTERRES
   215  109  110 1    
   216  109  230 1    
   217  110  111 1    
   218  110  112 1    
   219  110  231 1    
   220  111  232 1    
   221  111  233 1    
   222  111  234 1    
   223  112  113 2    
   224  112  114 am   BACKBONE|DICT|INTERRES
   225  114  115 1    
   226  114  235 1    
   227  115  116 1    
   228  115  117 1    
   229  115  236 1    
   230  116  237 1    
   231  116  238 1    
   232  116  239 1    
   233  117  118 2    
   234  117  119 am   BACKBONE|DICT|INTERRES
   235  119  120 1    
   236  119  240 1    
   237  120  121 1    
   238  120  124 1    
   239  120  241 1    
   240  121  122 am   BACKBONE|DICT|INTERRES
   241  121  123 2    
   242  122  242 1    
   243  122  243 1    
   244  124  125 1    
   245  124  244 1    
   246  124  245 1    
   247  125  126 1    
   248  126  246 1    
   249  126  247 1    
@<TRIPOS>SUBSTRUCTURE
     1 UNK         1 GROUP             0       ****    0 ROOT    
