@<TRIPOS>MOLECULE
3R540
247   249    1
SMALL
USER_CHARGES


@<TRIPOS>ATOM
      1 CA         -3.8489  -18.9483  -48.7472 C.3       0 UNK        -0.1800 
      2 C          -3.2968  -17.6002  -49.1847 C.2       0 UNK         0.5000 
      3 O          -3.7743  -16.5643  -48.7238 O.2       0 UNK        -0.5000 
      4 N          -2.2695  -17.6145  -50.0470 N.am      1 UNK        -0.5000 
      5 CA         -1.6241  -16.4349  -50.6471 C.3       1 UNK         0.1400 
      6 C6         -0.6095  -16.8416  -51.7604 C.3       23 UNK        -0.0398 
      7 S7          1.1396  -17.1198  -51.2775 S.3       23 UNK        -0.2404 
      8 C8          1.0679  -18.6286  -50.2634 C.3       23 UNK        -0.0205 
      9 C9          1.5028  -19.8811  -51.0088 C.ar      23 UNK        -0.0193 
     10 C10         0.7344  -20.3890  -52.0600 C.ar      23 UNK        -0.1150 
     11 C11         1.1200  -21.5579  -52.7227 C.ar      23 UNK        -0.0193 
     12 C12         2.2685  -22.2369  -52.3041 C.ar      23 UNK        -0.1150 
     13 C13         3.0497  -21.7369  -51.2587 C.ar      23 UNK        -0.0193 
     14 C14         2.6640  -20.5556  -50.6192 C.ar      23 UNK        -0.1150 
     15 C15         4.3273  -22.4564  -50.8512 C.3       23 UNK        -0.0205 
     16 S16         4.0208  -23.8014  -49.6620 S.3       23 UNK        -0.2404 
     17 C17         3.8826  -22.8929  -48.0844 C.3       23 UNK        -0.0398 
     18 CA          2.6617  -23.3273  -47.2381 C.3       11 UNK         0.1400 
     19 N           2.8584  -23.0033  -45.8211 N.am      11 UNK        -0.5000 
     20 C           2.0387  -23.3708  -44.8268 C.2       10 UNK         0.5000 
     21 O           1.0754  -24.1185  -44.9891 O.2       10 UNK        -0.5000 
     22 CA          2.2972  -22.7714  -43.4294 C.3       10 UNK         0.1400 
     23 CB          3.0032  -23.7961  -42.5299 C.3       10 UNK        -0.1800 
     24 N           3.0564  -21.5152  -43.4033 N.am      10 UNK        -0.5000 
     25 C           2.7475  -20.3835  -44.0505 C.2       9 UNK         0.5000 
     26 O           1.8344  -20.2928  -44.8717 O.2       9 UNK        -0.5000 
     27 CA          3.5976  -19.1492  -43.6989 C.3       9 UNK         0.1400 
     28 CB          3.3544  -17.9743  -44.6627 C.3       9 UNK        -0.1800 
     29 N           3.3071  -18.7051  -42.3383 N.am      9 UNK        -0.5000 
     30 C           3.8057  -19.2417  -41.2168 C.2       8 UNK         0.5000 
     31 O           4.6127  -20.1726  -41.2068 O.2       8 UNK        -0.5000 
     32 CA          3.2868  -18.6632  -39.8914 C.3       8 UNK         0.1400 
     33 CB          3.8738  -17.2655  -39.6364 C.3       8 UNK        -0.1800 
     34 N           1.8277  -18.5789  -39.9148 N.am      8 UNK        -0.5000 
     35 C           0.9989  -19.4851  -39.3776 C.2       7 UNK         0.5000 
     36 O           1.3775  -20.4560  -38.7211 O.2       7 UNK        -0.5000 
     37 CA         -0.5122  -19.2810  -39.6173 C.3       7 UNK         0.1400 
     38 CB         -1.1357  -18.4756  -38.4674 C.3       7 UNK        -0.1800 
     39 N          -0.8054  -18.6067  -40.8826 N.am      7 UNK        -0.5000 
     40 C          -0.5783  -19.1320  -42.0946 C.2       6 UNK         0.5000 
     41 O          -0.2131  -20.2934  -42.2707 O.2       6 UNK        -0.5000 
     42 CA         -0.7610  -18.2036  -43.3130 C.3       6 UNK         0.1400 
     43 CB         -2.0705  -18.5378  -44.0436 C.3       6 UNK        -0.1800 
     44 N          -0.7264  -16.7656  -43.0094 N.am      6 UNK        -0.5000 
     45 C           0.3116  -16.1116  -42.4610 C.2       5 UNK         0.5000 
     46 O           1.3554  -16.6737  -42.1287 O.2       5 UNK        -0.5000 
     47 CA          0.1746  -14.5982  -42.2012 C.3       5 UNK         0.1400 
     48 CB          1.2547  -13.8015  -42.9497 C.3       5 UNK        -0.1800 
     49 N          -1.1465  -14.0641  -42.5359 N.am      5 UNK        -0.5000 
     50 C          -2.2159  -14.1389  -41.7297 C.2       4 UNK         0.5000 
     51 O          -2.1881  -14.6653  -40.6167 O.2       4 UNK        -0.5000 
     52 CA         -3.5438  -13.5497  -42.2496 C.3       4 UNK         0.1400 
     53 CB         -3.7677  -12.1434  -41.6732 C.3       4 UNK        -0.1800 
     54 N          -3.6412  -13.4841  -43.7099 N.am      4 UNK        -0.5000 
     55 C          -3.6452  -14.5441  -44.5288 C.2       3 UNK         0.5000 
     56 O          -3.5607  -15.7054  -44.1287 O.2       3 UNK        -0.5000 
     57 CA         -3.7175  -14.2762  -46.0469 C.3       3 UNK         0.1400 
     58 CB         -3.9709  -12.7989  -46.4237 C.3       3 UNK        -0.1800 
     59 N          -2.5271  -14.7805  -46.7358 N.am      3 UNK        -0.5000 
     60 C          -1.2488  -14.4548  -46.4836 C.2       2 UNK         0.5000 
     61 O          -0.9138  -13.6426  -45.6200 O.2       2 UNK        -0.5000 
     62 CA         -0.1507  -15.1577  -47.3091 C.3       2 UNK         0.1400 
     63 CB          0.6738  -16.0984  -46.4176 C.3       2 UNK        -0.1800 
     64 N          -0.6733  -15.9342  -48.4328 N.am      2 UNK        -0.5000 
     65 C          -1.0445  -15.4316  -49.6187 C.2       1 UNK         0.5000 
     66 O          -0.9626  -14.2384  -49.9119 O.2       1 UNK        -0.5000 
     67 C           1.3366  -22.7513  -47.7922 C.2       11 UNK         0.5000 
     68 O           0.6798  -23.4088  -48.5982 O.2       11 UNK        -0.5000 
     69 N           0.9275  -21.5707  -47.3023 N.am      12 UNK        -0.5000 
     70 CA         -0.3475  -20.9399  -47.6380 C.3       12 UNK         0.1400 
     71 CB         -0.3456  -19.4957  -47.1211 C.3       12 UNK        -0.1800 
     72 C          -1.5440  -21.7106  -47.0571 C.2       12 UNK         0.5000 
     73 O          -2.5481  -21.8838  -47.7472 O.2       12 UNK        -0.5000 
     74 N          -1.4024  -22.1870  -45.8126 N.am      13 UNK        -0.5000 
     75 CA         -2.3965  -23.0187  -45.1336 C.3       13 UNK         0.1400 
     76 CB         -2.0533  -23.1194  -43.6400 C.3       13 UNK        -0.1800 
     77 C          -2.5260  -24.4148  -45.7707 C.2       13 UNK         0.5000 
     78 O          -3.6355  -24.9414  -45.8490 O.2       13 UNK        -0.5000 
     79 N          -1.4002  -24.9710  -46.2405 N.am      14 UNK        -0.5000 
     80 CA         -1.3415  -26.2186  -47.0015 C.3       14 UNK         0.1400 
     81 CB          0.1175  -26.6863  -47.1132 C.3       14 UNK        -0.1800 
     82 C          -1.9864  -26.0889  -48.3947 C.2       14 UNK         0.5000 
     83 O          -2.6952  -27.0036  -48.8167 O.2       14 UNK        -0.5000 
     84 N          -1.7472  -24.9560  -49.0732 N.am      15 UNK        -0.5000 
     85 CA         -2.3636  -24.6070  -50.3548 C.3       15 UNK         0.1400 
     86 CB         -1.6732  -23.3657  -50.9434 C.3       15 UNK        -0.1800 
     87 C          -3.8818  -24.3810  -50.2336 C.2       15 UNK         0.5000 
     88 O          -4.6339  -24.8704  -51.0771 O.2       15 UNK        -0.5000 
     89 N          -4.2923  -23.6629  -49.1758 N.am      16 UNK        -0.5000 
     90 CA         -5.6743  -23.3606  -48.7849 C.3       16 UNK         0.1400 
     91 CB         -6.3971  -24.6431  -48.3227 C.3       16 UNK        -0.1800 
     92 C          -6.4572  -22.5846  -49.8665 C.2       16 UNK         0.5000 
     93 O          -7.6430  -22.8426  -50.0849 O.2       16 UNK        -0.5000 
     94 N          -5.7641  -21.6577  -50.5403 N.am      17 UNK        -0.5000 
     95 CA         -6.3022  -20.8158  -51.6073 C.3       17 UNK         0.1400 
     96 CB         -5.1326  -20.0982  -52.2979 C.3       17 UNK        -0.1800 
     97 C          -7.3414  -19.7985  -51.0958 C.2       17 UNK         0.5000 
     98 O          -7.2841  -19.3794  -49.9378 O.2       17 UNK        -0.5000 
     99 N          -8.2602  -19.3976  -51.9833 N.am      18 UNK        -0.5000 
    100 CA        -9.2902  -18.3912  -51.7045 C.3       18 UNK         0.1400 
    101 CB       -10.4154  -18.5318  -52.7417 C.3       18 UNK        -0.1800 
    102 C         -8.7429  -16.9491  -51.6983 C.2       18 UNK         0.5000 
    103 O         -9.3584  -16.0691  -51.0950 O.2       18 UNK        -0.5000 
    104 N         -7.6073  -16.7355  -52.3708 N.am      19 UNK        -0.5000 
    105 CA        -6.8885  -15.4720  -52.4833 C.3       19 UNK         0.1400 
    106 CB        -7.5981  -14.5371  -53.4887 C.3       19 UNK        -0.1800 
    107 C         -5.4282  -15.7991  -52.8434 C.2       19 UNK         0.5000 
    108 O         -4.8686  -16.7433  -52.2830 O.2       19 UNK        -0.5000 
    109 N         -4.8344  -15.0418  -53.7744 N.am      20 UNK        -0.5000 
    110 CA        -3.5079  -15.3014  -54.3333 C.3       20 UNK         0.1400 
    111 CB        -3.0922  -14.1114  -55.2111 C.3       20 UNK        -0.1800 
    112 C         -3.4709  -16.6131  -55.1424 C.2       20 UNK         0.5000 
    113 O         -4.4495  -16.9522  -55.8126 O.2       20 UNK        -0.5000 
    114 N         -2.3327  -17.3069  -55.0810 N.am      21 UNK        -0.5000 
    115 CA        -2.0540  -18.5673  -55.7581 C.3       21 UNK         0.1400 
    116 CB        -2.7518  -19.7283  -55.0265 C.3       21 UNK        -0.1800 
    117 C         -0.5324  -18.7624  -55.7801 C.2       21 UNK         0.5000 
    118 O          0.1662  -18.1494  -54.9686 O.2       21 UNK        -0.5000 
    119 N         -0.0540  -19.6080  -56.7015 N.am      22 UNK        -0.5000 
    120 CA         1.3699  -19.9373  -56.9159 C.3       22 UNK         0.1400 
    121 C          2.2493  -18.7496  -57.4237 C.2       22 UNK         0.5000 
    122 N          1.6726  -17.6809  -57.9605 N.am      22 UNK        -0.7600 
    123 O          3.4751  -18.8064  -57.3701 O.2       22 UNK        -0.5000 
    124 C124        2.0091  -20.6835  -55.7093 C.3       23 UNK        -0.0398 
    125 S125        1.2616  -22.3258  -55.4156 S.3       23 UNK        -0.2404 
    126 C126        0.2912  -22.0777  -53.8907 C.3       23 UNK        -0.0205 
    127 H127       -4.9211  -18.9873  -48.9293 H         1 UNK         0.0600 
    128 H128       -3.6833  -19.0977  -47.6803 H         1 UNK         0.0600 
    129 H129       -3.3825  -19.7730  -49.2858 H         1 UNK         0.0600 
    130 H130       -1.9494  -18.5047  -50.3960 H         1 UNK         0.3000 
    131 H131       -2.4354  -15.8990  -51.1438 H         1 UNK         0.0600 
    132 H132       -0.9713  -17.7084  -52.3135 H         1 UNK         0.0800 
    133 H133       -0.5780  -16.0380  -52.4972 H         1 UNK         0.0800 
    134 H134        0.0670  -18.7811  -49.8706 H         1 UNK         0.0800 
    135 H135        1.7121  -18.4683  -49.3981 H         1 UNK         0.0800 
    136 H136       -0.1587  -19.8682  -52.3709 H         1 UNK         0.1150 
    137 H137        2.5660  -23.1459  -52.8078 H         1 UNK         0.1150 
    138 H138        3.2669  -20.1617  -49.8138 H         1 UNK         0.1150 
    139 H139        4.7986  -22.8810  -51.7389 H         1 UNK         0.0800 
    140 H140        5.0514  -21.7526  -50.4378 H         1 UNK         0.0800 
    141 H141        3.8783  -21.8156  -48.2526 H         1 UNK         0.0800 
    142 H142        4.8028  -23.0993  -47.5359 H         1 UNK         0.0800 
    143 H143        2.5850  -24.4153  -47.2916 H         1 UNK         0.0600 
    144 H144        3.6205  -22.3811  -45.5973 H         1 UNK         0.3000 
    145 H145        1.3187  -22.5573  -42.9951 H         1 UNK         0.0600 
    146 H146        3.0847  -23.4314  -41.5056 H         1 UNK         0.0600 
    147 H147        2.4496  -24.7355  -42.4953 H         1 UNK         0.0600 
    148 H148        4.0086  -24.0193  -42.8889 H         1 UNK         0.0600 
    149 H149        3.8020  -21.4608  -42.7190 H         1 UNK         0.3000 
    150 H150        4.6496  -19.4323  -43.7727 H         1 UNK         0.0600 
    151 H151        3.5575  -18.2632  -45.6946 H         1 UNK         0.0600 
    152 H152        4.0018  -17.1299  -44.4263 H         1 UNK         0.0600 
    153 H153        2.3234  -17.6251  -44.6157 H         1 UNK         0.0600 
    154 H154        2.6273  -17.9523  -42.2563 H         1 UNK         0.3000 
    155 H155        3.6173  -19.3188  -39.0831 H         1 UNK         0.0600 
    156 H156        3.5771  -16.5512  -40.4054 H         1 UNK         0.0600 
    157 H157        4.9639  -17.2976  -39.6205 H         1 UNK         0.0600 
    158 H158        3.5461  -16.8732  -38.6736 H         1 UNK         0.0600 
    159 H159        1.4348  -17.8400  -40.4864 H         1 UNK         0.3000 
    160 H160       -0.9809  -20.2671  -39.6403 H         1 UNK         0.0600 
    161 H161       -0.7207  -17.4684  -38.4099 H         1 UNK         0.0600 
    162 H162       -0.9549  -18.9611  -37.5075 H         1 UNK         0.0600 
    163 H163       -2.2156  -18.3874  -38.5876 H         1 UNK         0.0600 
    164 H164       -1.1244  -17.6503  -40.8275 H         1 UNK         0.3000 
    165 H165        0.0709  -18.4092  -43.9871 H         1 UNK         0.0600 
    166 H166       -2.1646  -17.9690  -44.9688 H         1 UNK         0.0600 
    167 H167       -2.1172  -19.5955  -44.3065 H         1 UNK         0.0600 
    168 H168       -2.9407  -18.3172  -43.4243 H         1 UNK         0.0600 
    169 H169       -1.5606  -16.2411  -43.2440 H         1 UNK         0.3000 
    170 H170        0.3503  -14.4519  -41.1334 H         1 UNK         0.0600 
    171 H171        2.2540  -14.1544  -42.6912 H         1 UNK         0.0600 
    172 H172        1.1491  -13.8842  -44.0296 H         1 UNK         0.0600 
    173 H173        1.2100  -12.7434  -42.6918 H         1 UNK         0.0600 
    174 H174       -1.2492  -13.6593  -43.4601 H         1 UNK         0.3000 
    175 H175       -4.3470  -14.1972  -41.8918 H         1 UNK         0.0600 
    176 H176       -3.0065  -11.4421  -42.0176 H         1 UNK         0.0600 
    177 H177       -4.7430  -11.7494  -41.9595 H         1 UNK         0.0600 
    178 H178       -3.7322  -12.1570  -40.5829 H         1 UNK         0.0600 
    179 H179       -3.6830  -12.5620  -44.1189 H         1 UNK         0.3000 
    180 H180       -4.5596  -14.8615  -46.4189 H         1 UNK         0.0600 
    181 H181       -3.1598  -12.1436  -46.1044 H         1 UNK         0.0600 
    182 H182       -4.8959  -12.4308  -45.9781 H         1 UNK         0.0600 
    183 H183       -4.0729  -12.6893  -47.5035 H         1 UNK         0.0600 
    184 H184       -2.7197  -15.4640  -47.4614 H         1 UNK         0.3000 
    185 H185        0.5151  -14.3837  -47.6962 H         1 UNK         0.0600 
    186 H186        0.0481  -16.8570  -45.9484 H         1 UNK         0.0600 
    187 H187        1.4517  -16.6060  -46.9883 H         1 UNK         0.0600 
    188 H188        1.1720  -15.5484  -45.6203 H         1 UNK         0.0600 
    189 H189       -0.7952  -16.9223  -48.2794 H         1 UNK         0.3000 
    190 H190        1.4687  -21.1195  -46.5696 H         1 UNK         0.3000 
    191 H191       -0.4456  -20.9247  -48.7252 H         1 UNK         0.0600 
    192 H192       -1.2250  -18.9520  -47.4605 H         1 UNK         0.0600 
    193 H193        0.5367  -18.9522  -47.4529 H         1 UNK         0.0600 
    194 H194       -0.3466  -19.4681  -46.0341 H         1 UNK         0.0600 
    195 H195       -0.5352  -22.0183  -45.3235 H         1 UNK         0.3000 
    196 H196       -3.3663  -22.5244  -45.2233 H         1 UNK         0.0600 
    197 H197       -2.7950  -23.7180  -43.1099 H         1 UNK         0.0600 
    198 H198       -2.0383  -22.1349  -43.1729 H         1 UNK         0.0600 
    199 H199       -1.0809  -23.5835  -43.4760 H         1 UNK         0.0600 
    200 H200       -0.5164  -24.5086  -46.0508 H         1 UNK         0.3000 
    201 H201       -1.8972  -26.9764  -46.4453 H         1 UNK         0.0600 
    202 H202        0.5697  -26.8087  -46.1288 H         1 UNK         0.0600 
    203 H203        0.7263  -25.9789  -47.6756 H         1 UNK         0.0600 
    204 H204        0.1793  -27.6485  -47.6230 H         1 UNK         0.0600 
    205 H205       -1.0795  -24.2904  -48.6960 H         1 UNK         0.3000 
    206 H206       -2.2033  -25.4404  -51.0418 H         1 UNK         0.0600 
    207 H207       -0.6103  -23.5473  -51.1042 H         1 UNK         0.0600 
    208 H208       -2.1081  -23.0956  -51.9063 H         1 UNK         0.0600 
    209 H209       -1.7648  -22.4996  -50.2883 H         1 UNK         0.0600 
    210 H210       -3.5791  -23.2477  -48.5813 H         1 UNK         0.3000 
    211 H211       -5.6046  -22.6940  -47.9241 H         1 UNK         0.0600 
    212 H212       -6.5521  -25.3399  -49.1469 H         1 UNK         0.0600 
    213 H213       -7.3754  -24.4112  -47.9005 H         1 UNK         0.0600 
    214 H214       -5.8266  -25.1601  -47.5513 H         1 UNK         0.0600 
    215 H215       -4.8014  -21.5055  -50.2823 H         1 UNK         0.3000 
    216 H216       -6.7873  -21.4688  -52.3359 H         1 UNK         0.0600 
    217 H217       -5.4811  -19.4918  -53.1347 H         1 UNK         0.0600 
    218 H218       -4.4114  -20.8132  -52.6938 H         1 UNK         0.0600 
    219 H219       -4.6052  -19.4333  -51.6134 H         1 UNK         0.0600 
    220 H220       -8.2536  -19.7892  -52.9144 H         1 UNK         0.3000 
    221 H221       -9.7127  -18.5875  -50.7167 H         1 UNK         0.0600 
    222 H222      -10.0541  -18.3530  -53.7552 H         1 UNK         0.0600 
    223 H223      -10.8574  -19.5279  -52.7123 H         1 UNK         0.0600 
    224 H224      -11.2164  -17.8169  -52.5483 H         1 UNK         0.0600 
    225 H225       -7.1319  -17.5293  -52.7767 H         1 UNK         0.3000 
    226 H226       -6.8710  -14.9899  -51.5040 H         1 UNK         0.0600 
    227 H227       -7.6102  -14.9615  -54.4936 H         1 UNK         0.0600 
    228 H228       -8.6323  -14.3543  -53.1970 H         1 UNK         0.0600 
    229 H229       -7.1115  -13.5624  -53.5385 H         1 UNK         0.0600 
    230 H230       -5.3725  -14.3112  -54.2162 H         1 UNK         0.3000 
    231 H231       -2.8035  -15.3801  -53.5038 H         1 UNK         0.0600 
    232 H232       -3.7750  -13.9729  -56.0505 H         1 UNK         0.0600 
    233 H233       -2.0927  -14.2589  -55.6223 H         1 UNK         0.0600 
    234 H234       -3.0724  -13.1847  -54.6371 H         1 UNK         0.0600 
    235 H235       -1.5335  -16.9464  -54.5749 H         1 UNK         0.3000 
    236 H236       -2.4123  -18.5092  -56.7881 H         1 UNK         0.0600 
    237 H237       -3.8355  -19.6172  -55.0537 H         1 UNK         0.0600 
    238 H238       -2.5169  -20.6865  -55.4910 H         1 UNK         0.0600 
    239 H239       -2.4470  -19.7819  -53.9807 H         1 UNK         0.0600 
    240 H240       -0.7011  -20.0653  -57.3278 H         1 UNK         0.3000 
    241 H241        1.3764  -20.6342  -57.7547 H         1 UNK         0.0600 
    242 H242        0.6701  -17.6183  -58.0322 H         1 UNK         0.3800 
    243 H243        2.2477  -16.9246  -58.2973 H         1 UNK         0.3800 
    244 H244        3.0692  -20.8669  -55.8895 H         1 UNK         0.0800 
    245 H245        1.9694  -20.0702  -54.8093 H         1 UNK         0.0800 
    246 H246       -0.1588  -23.0293  -53.6066 H         1 UNK         0.0800 
    247 H247       -0.5338  -21.4011  -54.1100 H         1 UNK         0.0800 
@<TRIPOS>BOND
     1    1    2 1    
     2    1  127 1    
     3    1  128 1    
     4    1  129 1    
     5    2    3 2    
     6    2    4 am   BACKBONE|DICT|INTERRES
     7    4    5 1    
     8    4  130 1    
     9    5    6 1    
    10    5   65 1    
    11    5  131 1    
    12    6    7 1    
    13    6  132 1    
    14    6  133 1    
    15    7    8 1    
    16    8    9 1    
    17    8  134 1    
    18    8  135 1    
    19    9   10 ar   
    20    9   14 ar   
    21   10   11 ar   
    22   10  136 1    
    23   11   12 ar   
    24   11  126 1    
    25   12   13 ar   
    26   12  137 1    
    27   13   14 ar   
    28   13   15 1    
    29   14  138 1    
    30   15   16 1    
    31   15  139 1    
    32   15  140 1    
    33   16   17 1    
    34   17   18 1    
    35   17  141 1    
    36   17  142 1    
    37   18   19 1    
    38   18   67 1    
    39   18  143 1    
    40   19   20 am   BACKBONE|DICT|INTERRES
    41   19  144 1    
    42   20   21 2    
    43   20   22 1    
    44   22   23 1    
    45   22   24 1    
    46   22  145 1    
    47   23  146 1    
    48   23  147 1    
    49   23  148 1    
    50   24   25 am   BACKBONE|DICT|INTERRES
    51   24  149 1    
    52   25   26 2    
    53   25   27 1    
    54   27   28 1    
    55   27   29 1    
    56   27  150 1    
    57   28  151 1    
    58   28  152 1    
    59   28  153 1    
    60   29   30 am   BACKBONE|DICT|INTERRES
    61   29  154 1    
    62   30   31 2    
    63   30   32 1    
    64   32   33 1    
    65   32   34 1    
    66   32  155 1    
    67   33  156 1    
    68   33  157 1    
    69   33  158 1    
    70   34   35 am   BACKBONE|DICT|INTERRES
    71   34  159 1    
    72   35   36 2    
    73   35   37 1    
    74   37   38 1    
    75   37   39 1    
    76   37  160 1    
    77   38  161 1    
    78   38  162 1    
    79   38  163 1    
    80   39   40 am   BACKBONE|DICT|INTERRES
    81   39  164 1    
    82   40   41 2    
    83   40   42 1    
    84   42   43 1    
    85   42   44 1    
    86   42  165 1    
    87   43  166 1    
    88   43  167 1    
    89   43  168 1    
    90   44   45 am   BACKBONE|DICT|INTERRES
    91   44  169 1    
    92   45   46 2    
    93   45   47 1    
    94   47   48 1    
    95   47   49 1    
    96   47  170 1    
    97   48  171 1    
    98   48  172 1    
    99   48  173 1    
   100   49   50 am   BACKBONE|DICT|INTERRES
   101   49  174 1    
   102   50   51 2    
   103   50   52 1    
   104   52   53 1    
   105   52   54 1    
   106   52  175 1    
   107   53  176 1    
   108   53  177 1    
   109   53  178 1    
   110   54   55 am   BACKBONE|DICT|INTERRES
   111   54  179 1    
   112   55   56 2    
   113   55   57 1    
   114   57   58 1    
   115   57   59 1    
   116   57  180 1    
   117   58  181 1    
   118   58  182 1    
   119   58  183 1    
   120   59   60 am   BACKBONE|DICT|INTERRES
   121   59  184 1    
   122   60   61 2    
   123   60   62 1    
   124   62   63 1    
   125   62   64 1    
   126   62  185 1    
   127   63  186 1    
   128   63  187 1    
   129   63  188 1    
   130   64   65 am   BACKBONE|DICT|INTERRES
   131   64  189 1    
   132   65   66 2    
   133   67   68 2    
   134   67   69 am   BACKBONE|DICT|INTERRES
   135   69   70 1    
   136   69  190 1    
   137   70   71 1    
   138   70   72 1    
   139   70  191 1    
   140   71  192 1    
   141   71  193 1    
   142   71  194 1    
   143   72   73 2    
   144   72   74 am   BACKBONE|DICT|INTERRES
   145   74   75 1    
   146   74  195 1    
   147   75   76 1    
   148   75   77 1    
   149   75  196 1    
   150   76  197 1    
   151   76  198 1    
   152   76  199 1    
   153   77   78 2    
   154   77   79 am   BACKBONE|DICT|INTERRES
   155   79   80 1    
   156   79  200 1    
   157   80   81 1    
   158   80   82 1    
   159   80  201 1    
   160   81  202 1    
   161   81  203 1    
   162   81  204 1    
   163   82   83 2    
   164   82   84 am   BACKBONE|DICT|INTERRES
   165   84   85 1    
   166   84  205 1    
   167   85   86 1    
   168   85   87 1    
   169   85  206 1    
   170   86  207 1    
   171   86  208 1    
   172   86  209 1    
   173   87   88 2    
   174   87   89 am   BACKBONE|DICT|INTERRES
   175   89   90 1    
   176   89  210 1    
   177   90   91 1    
   178   90   92 1    
   179   90  211 1    
   180   91  212 1    
   181   91  213 1    
   182   91  214 1    
   183   92   93 2    
   184   92   94 am   BACKBONE|DICT|INTERRES
   185   94   95 1    
   186   94  215 1    
   187   95   96 1    
   188   95   97 1    
   189   95  216 1    
   190   96  217 1    
   191   96  218 1    
   192   96  219 1    
   193   97   98 2    
   194   97   99 am   BACKBONE|DICT|INTERRES
   195   99  100 1    
   196   99  220 1    
   197  100  101 1    
   198  100  102 1    
   199  100  221 1    
   200  101  222 1    
   201  101  223 1    
   202  101  224 1    
   203  102  103 2    
   204  102  104 am   BACKBONE|DICT|INTERRES
   205  104  105 1    
   206  104  225 1    
   207  105  106 1    
   208  105  107 1    
   209  105  226 1    
   210  106  227 1    
   211  106  228 1    
   212  106  229 1    
   213  107  108 2    
   214  107  109 am   BACKBONE|DICT|INTERRES
   215  109  110 1    
   216  109  230 1    
   217  110  111 1    
   218  110  112 1    
   219  110  231 1    
   220  111  232 1    
   221  111  233 1    
   222  111  234 1    
   223  112  113 2    
   224  112  114 am   BACKBONE|DICT|INTERRES
   225  114  115 1    
   226  114  235 1    
   227  115  116 1    
   228  115  117 1    
   229  115  236 1    
   230  116  237 1    
   231  116  238 1    
   232  116  239 1    
   233  117  118 2    
   234  117  119 am   BACKBONE|DICT|INTERRES
   235  119  120 1    
   236  119  240 1    
   237  120  121 1    
   238  120  124 1    
   239  120  241 1    
   240  121  122 am   BACKBONE|DICT|INTERRES
   241  121  123 2    
   242  122  242 1    
   243  122  243 1    
   244  124  125 1    
   245  124  244 1    
   246  124  245 1    
   247  125  126 1    
   248  126  246 1    
   249  126  247 1    
@<TRIPOS>SUBSTRUCTURE
     1 UNK         1 GROUP             0       ****    0 ROOT    
