@<TRIPOS>MOLECULE
3R540
247   249    1
SMALL
USER_CHARGES


@<TRIPOS>ATOM
      1 CA         -3.7588  -11.8646  -46.3164 C.3       0 UNK        -0.1800 
      2 C          -2.4554  -12.5513  -45.9376 C.2       0 UNK         0.5000 
      3 O          -1.8062  -12.1407  -44.9774 O.2       0 UNK        -0.5000 
      4 N          -2.0813  -13.6054  -46.6745 N.am      1 UNK        -0.5000 
      5 CA         -0.8417  -14.3846  -46.5162 C.3       1 UNK         0.1400 
      6 C6         -0.7146  -15.4848  -47.6022 C.3       23 UNK        -0.0398 
      7 S7         -0.9381  -14.8347  -49.2958 S.3       23 UNK        -0.2404 
      8 C8          0.7233  -15.0037  -50.0144 C.3       23 UNK        -0.0205 
      9 C9          0.9681  -16.4042  -50.5564 C.ar      23 UNK        -0.0193 
     10 C10         0.5585  -16.7319  -51.8518 C.ar      23 UNK        -0.1150 
     11 C11         0.8045  -18.0021  -52.3814 C.ar      23 UNK        -0.0193 
     12 C12         1.4642  -18.9522  -51.5894 C.ar      23 UNK        -0.1150 
     13 C13         1.8807  -18.6385  -50.2911 C.ar      23 UNK        -0.0193 
     14 C14         1.6258  -17.3625  -49.7815 C.ar      23 UNK        -0.1150 
     15 C15         2.6480  -19.6555  -49.4529 C.3       23 UNK        -0.0205 
     16 S16         1.6725  -21.1351  -49.0313 S.3       23 UNK        -0.2404 
     17 C17         0.3433  -20.4389  -47.9959 C.3       23 UNK        -0.0398 
     18 CA         -0.6915  -21.5173  -47.5921 C.3       11 UNK         0.1400 
     19 N          -0.1222  -22.5932  -46.7760 N.am      11 UNK        -0.5000 
     20 C          -0.7103  -23.7852  -46.5972 C.2       10 UNK         0.5000 
     21 O          -1.7876  -24.0932  -47.1049 O.2       10 UNK        -0.5000 
     22 CA         -0.0140  -24.7804  -45.6507 C.3       10 UNK         0.1400 
     23 CB          1.0341  -25.6043  -46.4126 C.3       10 UNK        -0.1800 
     24 N           0.6193  -24.1355  -44.5000 N.am      10 UNK        -0.5000 
     25 C          -0.0254  -23.4074  -43.5787 C.2       9 UNK         0.5000 
     26 O          -1.2446  -23.2281  -43.5888 O.2       9 UNK        -0.5000 
     27 CA          0.8266  -22.7178  -42.4923 C.3       9 UNK         0.1400 
     28 CB          2.2958  -23.1955  -42.4456 C.3       9 UNK        -0.1800 
     29 N           0.7781  -21.2552  -42.6064 N.am      9 UNK        -0.5000 
     30 C           1.0884  -20.5179  -43.6836 C.2       8 UNK         0.5000 
     31 O           1.4106  -21.0004  -44.7716 O.2       8 UNK        -0.5000 
     32 CA          0.9953  -18.9811  -43.5522 C.3       8 UNK         0.1400 
     33 CB          0.8702  -18.4739  -42.0984 C.3       8 UNK        -0.1800 
     34 N           2.0954  -18.3157  -44.2558 N.am      8 UNK        -0.5000 
     35 C           3.4087  -18.4624  -44.0197 C.2       7 UNK         0.5000 
     36 O           3.8690  -19.0735  -43.0550 O.2       7 UNK        -0.5000 
     37 CA          4.3806  -17.8429  -45.0441 C.3       7 UNK         0.1400 
     38 CB          5.2137  -18.9488  -45.7135 C.3       7 UNK        -0.1800 
     39 N           3.6819  -17.1051  -46.1038 N.am      7 UNK        -0.5000 
     40 C           3.5007  -15.7824  -46.2253 C.2       6 UNK         0.5000 
     41 O           2.8241  -15.3266  -47.1432 O.2       6 UNK        -0.5000 
     42 CA          4.0990  -14.8157  -45.1894 C.3       6 UNK         0.1400 
     43 CB          4.1634  -13.3648  -45.7044 C.3       6 UNK        -0.1800 
     44 N           3.2605  -14.8404  -44.0001 N.am      6 UNK        -0.5000 
     45 C           3.7025  -14.9034  -42.7399 C.2       5 UNK         0.5000 
     46 O           4.8814  -15.0920  -42.4345 O.2       5 UNK        -0.5000 
     47 CA          2.6343  -14.6696  -41.6521 C.3       5 UNK         0.1400 
     48 CB          3.2234  -14.4988  -40.2370 C.3       5 UNK        -0.1800 
     49 N           1.7541  -13.5480  -41.9974 N.am      5 UNK        -0.5000 
     50 C           2.1089  -12.2702  -42.2126 C.2       4 UNK         0.5000 
     51 O           3.2467  -11.8309  -42.0416 O.2       4 UNK        -0.5000 
     52 CA          1.0163  -11.3189  -42.7391 C.3       4 UNK         0.1400 
     53 CB          1.2300  -11.0502  -44.2373 C.3       4 UNK        -0.1800 
     54 N          -0.3407  -11.8295  -42.5480 N.am      4 UNK        -0.5000 
     55 C          -0.9756  -11.9099  -41.3718 C.2       3 UNK         0.5000 
     56 O          -0.5079  -11.5010  -40.3087 O.2       3 UNK        -0.5000 
     57 CA         -2.3521  -12.5961  -41.3877 C.3       3 UNK         0.1400 
     58 CB         -3.4552  -11.5951  -41.7644 C.3       3 UNK        -0.1800 
     59 N          -2.4005  -13.7367  -42.3053 N.am      3 UNK        -0.5000 
     60 C          -1.7693  -14.9037  -42.1136 C.2       2 UNK         0.5000 
     61 O          -1.0431  -15.1433  -41.1498 O.2       2 UNK        -0.5000 
     62 CA         -1.9728  -15.9760  -43.1974 C.3       2 UNK         0.1400 
     63 CB         -3.3509  -16.6383  -43.0481 C.3       2 UNK        -0.1800 
     64 N          -1.8490  -15.4314  -44.5465 N.am      2 UNK        -0.5000 
     65 C          -0.7072  -15.0106  -45.1101 C.2       1 UNK         0.5000 
     66 O           0.3972  -15.0807  -44.5661 O.2       1 UNK        -0.5000 
     67 C          -1.9145  -20.8780  -46.9101 C.2       11 UNK         0.5000 
     68 O          -2.8272  -20.4524  -47.6143 O.2       11 UNK        -0.5000 
     69 N          -1.9467  -20.8510  -45.5692 N.am      12 UNK        -0.5000 
     70 CA         -3.1122  -20.4073  -44.8017 C.3       12 UNK         0.1400 
     71 CB         -2.7274  -20.1376  -43.3383 C.3       12 UNK        -0.1800 
     72 C          -4.2602  -21.4251  -44.8937 C.2       12 UNK         0.5000 
     73 O          -5.3952  -21.0356  -45.1686 O.2       12 UNK        -0.5000 
     74 N          -3.9302  -22.7128  -44.7165 N.am      13 UNK        -0.5000 
     75 CA         -4.8606  -23.8402  -44.8157 C.3       13 UNK         0.1400 
     76 CB         -4.1297  -25.1347  -44.4291 C.3       13 UNK        -0.1800 
     77 C          -5.5092  -23.9745  -46.2075 C.2       13 UNK         0.5000 
     78 O          -6.7044  -24.2559  -46.2974 O.2       13 UNK        -0.5000 
     79 N          -4.7186  -23.7321  -47.2608 N.am      14 UNK        -0.5000 
     80 CA         -5.1476  -23.7435  -48.6602 C.3       14 UNK         0.1400 
     81 CB         -3.9943  -24.2879  -49.5202 C.3       14 UNK        -0.1800 
     82 C          -5.6728  -22.3779  -49.1626 C.2       14 UNK         0.5000 
     83 O          -5.8650  -22.2277  -50.3705 O.2       14 UNK        -0.5000 
     84 N          -5.9122  -21.4260  -48.2442 N.am      15 UNK        -0.5000 
     85 CA         -6.5403  -20.1129  -48.4434 C.3       15 UNK         0.1400 
     86 CB         -8.0158  -20.2839  -48.8607 C.3       15 UNK        -0.1800 
     87 C          -5.7534  -19.2114  -49.4144 C.2       15 UNK         0.5000 
     88 O          -6.1676  -19.0199  -50.5574 O.2       15 UNK        -0.5000 
     89 N          -4.5925  -18.7240  -48.9523 N.am      16 UNK        -0.5000 
     90 CA         -3.5621  -18.0070  -49.7232 C.3       16 UNK         0.1400 
     91 CB         -4.0852  -16.6464  -50.2288 C.3       16 UNK        -0.1800 
     92 C          -2.9714  -18.8873  -50.8461 C.2       16 UNK         0.5000 
     93 O          -2.6093  -18.3892  -51.9117 O.2       16 UNK        -0.5000 
     94 N          -2.9547  -20.2017  -50.5808 N.am      17 UNK        -0.5000 
     95 CA         -2.6566  -21.3121  -51.4840 C.3       17 UNK         0.1400 
     96 CB         -1.1469  -21.4210  -51.7467 C.3       17 UNK        -0.1800 
     97 C          -3.4998  -21.3480  -52.7750 C.2       17 UNK         0.5000 
     98 O          -3.0863  -21.9927  -53.7387 O.2       17 UNK        -0.5000 
     99 N          -4.6799  -20.7093  -52.7784 N.am      18 UNK        -0.5000 
    100 CA        -5.6018  -20.6749  -53.9147 C.3       18 UNK         0.1400 
    101 CB        -6.7365  -19.6801  -53.6362 C.3       18 UNK        -0.1800 
    102 C         -6.1724  -22.0605  -54.2584 C.2       18 UNK         0.5000 
    103 O         -6.3438  -22.3651  -55.4388 O.2       18 UNK        -0.5000 
    104 N         -6.3894  -22.9004  -53.2349 N.am      19 UNK        -0.5000 
    105 CA        -6.8220  -24.2930  -53.3874 C.3       19 UNK         0.1400 
    106 CB        -7.2544  -24.8392  -52.0183 C.3       19 UNK        -0.1800 
    107 C         -5.7461  -25.2012  -54.0207 C.2       19 UNK         0.5000 
    108 O         -6.0871  -26.2510  -54.5664 O.2       19 UNK        -0.5000 
    109 N         -4.4777  -24.7766  -53.9491 N.am      20 UNK        -0.5000 
    110 CA        -3.3189  -25.4429  -54.5432 C.3       20 UNK         0.1400 
    111 CB        -2.2015  -25.4851  -53.4861 C.3       20 UNK        -0.1800 
    112 C         -2.8275  -24.7283  -55.8196 C.2       20 UNK         0.5000 
    113 O         -1.8159  -25.1465  -56.3846 O.2       20 UNK        -0.5000 
    114 N         -3.5044  -23.6407  -56.2260 N.am      21 UNK        -0.5000 
    115 CA        -3.1535  -22.7226  -57.3192 C.3       21 UNK         0.1400 
    116 CB        -3.3788  -23.4072  -58.6827 C.3       21 UNK        -0.1800 
    117 C         -1.7377  -22.1109  -57.1829 C.2       21 UNK         0.5000 
    118 O         -1.0751  -21.8524  -58.1892 O.2       21 UNK        -0.5000 
    119 N         -1.2918  -21.9181  -55.9341 N.am      22 UNK        -0.5000 
    120 CA         0.0756  -21.5424  -55.5398 C.3       22 UNK         0.1400 
    121 C          1.1688  -22.6129  -55.8647 C.2       22 UNK         0.5000 
    122 N          0.8186  -23.8606  -56.1577 N.am      22 UNK        -0.7600 
    123 O          2.3618  -22.3257  -55.8277 O.2       22 UNK        -0.5000 
    124 C124        0.4526  -20.0996  -55.9894 C.3       23 UNK        -0.0398 
    125 S125        1.5377  -19.2524  -54.7863 S.3       23 UNK        -0.2404 
    126 C126        0.3156  -18.3358  -53.7906 C.3       23 UNK        -0.0205 
    127 H127       -4.4516  -11.8865  -45.4751 H         1 UNK         0.0600 
    128 H128       -3.5700  -10.8232  -46.5766 H         1 UNK         0.0600 
    129 H129       -4.2396  -12.3473  -47.1676 H         1 UNK         0.0600 
    130 H130       -2.6499  -13.8722  -47.4658 H         1 UNK         0.3000 
    131 H131       -0.0074  -13.6904  -46.6378 H         1 UNK         0.0600 
    132 H132        0.2522  -15.9828  -47.5262 H         1 UNK         0.0800 
    133 H133       -1.4654  -16.2621  -47.4500 H         1 UNK         0.0800 
    134 H134        1.4803  -14.7303  -49.2793 H         1 UNK         0.0800 
    135 H135        0.8237  -14.2815  -50.8258 H         1 UNK         0.0800 
    136 H136        0.0415  -15.9927  -52.4475 H         1 UNK         0.1150 
    137 H137        1.6576  -19.9403  -51.9823 H         1 UNK         0.1150 
    138 H138        1.9550  -17.1071  -48.7862 H         1 UNK         0.1150 
    139 H139        3.5310  -19.9704  -50.0106 H         1 UNK         0.0800 
    140 H140        3.0184  -19.2040  -48.5320 H         1 UNK         0.0800 
    141 H141        0.7851  -19.9663  -47.1180 H         1 UNK         0.0800 
    142 H142       -0.1431  -19.6449  -48.5663 H         1 UNK         0.0800 
    143 H143       -1.0631  -21.9711  -48.5134 H         1 UNK         0.0600 
    144 H144        0.7313  -22.3752  -46.2743 H         1 UNK         0.3000 
    145 H145       -0.7762  -25.4635  -45.2709 H         1 UNK         0.0600 
    146 H146        1.4758  -26.3693  -45.7737 H         1 UNK         0.0600 
    147 H147        0.5842  -26.1146  -47.2653 H         1 UNK         0.0600 
    148 H148        1.8407  -24.9767  -46.7938 H         1 UNK         0.0600 
    149 H149        1.6241  -24.2076  -44.4364 H         1 UNK         0.3000 
    150 H150        0.3645  -22.9739  -41.5379 H         1 UNK         0.0600 
    151 H151        2.3569  -24.2760  -42.3091 H         1 UNK         0.0600 
    152 H152        2.8230  -22.7390  -41.6078 H         1 UNK         0.0600 
    153 H153        2.8442  -22.9388  -43.3528 H         1 UNK         0.0600 
    154 H154        0.4979  -20.7684  -41.7671 H         1 UNK         0.3000 
    155 H155        0.0904  -18.6892  -44.0853 H         1 UNK         0.0600 
    156 H156        0.8100  -17.3883  -42.0729 H         1 UNK         0.0600 
    157 H157        1.7193  -18.7723  -41.4826 H         1 UNK         0.0600 
    158 H158       -0.0364  -18.8467  -41.6208 H         1 UNK         0.0600 
    159 H159        1.8316  -17.7832  -45.0712 H         1 UNK         0.3000 
    160 H160        5.0671  -17.2058  -44.4887 H         1 UNK         0.0600 
    161 H161        4.5832  -19.6629  -46.2455 H         1 UNK         0.0600 
    162 H162        5.7908  -19.5081  -44.9758 H         1 UNK         0.0600 
    163 H163        5.9235  -18.5306  -46.4274 H         1 UNK         0.0600 
    164 H164        3.2855  -17.6890  -46.8227 H         1 UNK         0.3000 
    165 H165        5.1234  -15.1186  -44.9723 H         1 UNK         0.0600 
    166 H166        4.7646  -13.2985  -46.6118 H         1 UNK         0.0600 
    167 H167        3.1727  -12.9712  -45.9350 H         1 UNK         0.0600 
    168 H168        4.6165  -12.7055  -44.9636 H         1 UNK         0.0600 
    169 H169        2.2594  -14.7617  -44.1662 H         1 UNK         0.3000 
    170 H170        2.0064  -15.5584  -41.6391 H         1 UNK         0.0600 
    171 H171        3.7753  -15.3898  -39.9358 H         1 UNK         0.0600 
    172 H172        3.9108  -13.6545  -40.1800 H         1 UNK         0.0600 
    173 H173        2.4355  -14.3406  -39.5005 H         1 UNK         0.0600 
    174 H174        0.7897  -13.7950  -42.1723 H         1 UNK         0.3000 
    175 H175        1.1111  -10.3738  -42.2006 H         1 UNK         0.0600 
    176 H176        1.1224  -11.9625  -44.8257 H         1 UNK         0.0600 
    177 H177        0.5099  -10.3237  -44.6142 H         1 UNK         0.0600 
    178 H178        2.2267  -10.6505  -44.4285 H         1 UNK         0.0600 
    179 H179       -0.8356  -12.1227  -43.3880 H         1 UNK         0.3000 
    180 H180       -2.5536  -12.9620  -40.3786 H         1 UNK         0.0600 
    181 H181       -3.4585  -10.7438  -41.0825 H         1 UNK         0.0600 
    182 H182       -3.3199  -11.2058  -42.7743 H         1 UNK         0.0600 
    183 H183       -4.4414  -12.0566  -41.7119 H         1 UNK         0.0600 
    184 H184       -2.9291  -13.6065  -43.1548 H         1 UNK         0.3000 
    185 H185       -1.2095  -16.7433  -43.0693 H         1 UNK         0.0600 
    186 H186       -4.1610  -15.9110  -43.1153 H         1 UNK         0.0600 
    187 H187       -3.5167  -17.3863  -43.8224 H         1 UNK         0.0600 
    188 H188       -3.4393  -17.1397  -42.0834 H         1 UNK         0.0600 
    189 H189       -2.7052  -15.3150  -45.0684 H         1 UNK         0.3000 
    190 H190       -1.1973  -21.2957  -45.0584 H         1 UNK         0.3000 
    191 H191       -3.4679  -19.4678  -45.2302 H         1 UNK         0.0600 
    192 H192       -3.5972  -19.8177  -42.7631 H         1 UNK         0.0600 
    193 H193       -1.9871  -19.3442  -43.2636 H         1 UNK         0.0600 
    194 H194       -2.3246  -21.0212  -42.8456 H         1 UNK         0.0600 
    195 H195       -2.9724  -22.9364  -44.4613 H         1 UNK         0.3000 
    196 H196       -5.6609  -23.6712  -44.0925 H         1 UNK         0.0600 
    197 H197       -4.8089  -25.9878  -44.4492 H         1 UNK         0.0600 
    198 H198       -3.7175  -25.0695  -43.4218 H         1 UNK         0.0600 
    199 H199       -3.3085  -25.3524  -45.1124 H         1 UNK         0.0600 
    200 H200       -3.7291  -23.5736  -47.0971 H         1 UNK         0.3000 
    201 H201       -5.9822  -24.4387  -48.7704 H         1 UNK         0.0600 
    202 H202       -3.7805  -25.3258  -49.2647 H         1 UNK         0.0600 
    203 H203       -3.0775  -23.7224  -49.3622 H         1 UNK         0.0600 
    204 H204       -4.2273  -24.2635  -50.5850 H         1 UNK         0.0600 
    205 H205       -5.6828  -21.6407  -47.2816 H         1 UNK         0.3000 
    206 H206       -6.5325  -19.6153  -47.4724 H         1 UNK         0.0600 
    207 H207       -8.5674  -20.8674  -48.1237 H         1 UNK         0.0600 
    208 H208       -8.5102  -19.3156  -48.9458 H         1 UNK         0.0600 
    209 H209       -8.1135  -20.7847  -49.8246 H         1 UNK         0.0600 
    210 H210       -4.2832  -19.0471  -48.0426 H         1 UNK         0.3000 
    211 H211       -2.7403  -17.8099  -49.0336 H         1 UNK         0.0600 
    212 H212       -4.8843  -16.7619  -50.9610 H         1 UNK         0.0600 
    213 H213       -3.2895  -16.0778  -50.7107 H         1 UNK         0.0600 
    214 H214       -4.4651  -16.0402  -49.4068 H         1 UNK         0.0600 
    215 H215       -3.2562  -20.4666  -49.6498 H         1 UNK         0.3000 
    216 H216       -2.9453  -22.2080  -50.9453 H         1 UNK         0.0600 
    217 H217       -0.7826  -20.5746  -52.3195 H         1 UNK         0.0600 
    218 H218       -0.9022  -22.3275  -52.3005 H         1 UNK         0.0600 
    219 H219       -0.5880  -21.4561  -50.8148 H         1 UNK         0.0600 
    220 H220       -4.9877  -20.2358  -51.9363 H         1 UNK         0.3000 
    221 H221       -5.0433  -20.3199  -54.7833 H         1 UNK         0.0600 
    222 H222       -7.3457  -19.9942  -52.7877 H         1 UNK         0.0600 
    223 H223       -6.3455  -18.6858  -53.4188 H         1 UNK         0.0600 
    224 H224       -7.3974  -19.5897  -54.4991 H         1 UNK         0.0600 
    225 H225       -6.2153  -22.5749  -52.2869 H         1 UNK         0.3000 
    226 H226       -7.6915  -24.3052  -54.0478 H         1 UNK         0.0600 
    227 H227       -8.0274  -24.2153  -51.5691 H         1 UNK         0.0600 
    228 H228       -7.6619  -25.8466  -52.1114 H         1 UNK         0.0600 
    229 H229       -6.4177  -24.8887  -51.3225 H         1 UNK         0.0600 
    230 H230       -4.2933  -23.8823  -53.5144 H         1 UNK         0.3000 
    231 H231       -3.5678  -26.4690  -54.8204 H         1 UNK         0.0600 
    232 H232       -1.8747  -24.4834  -53.2053 H         1 UNK         0.0600 
    233 H233       -2.5340  -25.9942  -52.5813 H         1 UNK         0.0600 
    234 H234       -1.3280  -26.0230  -53.8568 H         1 UNK         0.0600 
    235 H235       -4.3221  -23.3747  -55.6937 H         1 UNK         0.3000 
    236 H236       -3.8508  -21.8867  -57.2483 H         1 UNK         0.0600 
    237 H237       -4.3883  -23.8114  -58.7578 H         1 UNK         0.0600 
    238 H238       -3.2527  -22.6999  -59.5032 H         1 UNK         0.0600 
    239 H239       -2.6766  -24.2256  -58.8443 H         1 UNK         0.0600 
    240 H240       -1.9299  -22.1142  -55.1653 H         1 UNK         0.3000 
    241 H241        0.0292  -21.5401  -54.4516 H         1 UNK         0.0600 
    242 H242       -0.1544  -24.1453  -56.2134 H         1 UNK         0.3800 
    243 H243        1.5398  -24.5356  -56.3555 H         1 UNK         0.3800 
    244 H244       -0.4445  -19.4928  -56.1198 H         1 UNK         0.0800 
    245 H245        0.9394  -20.1114  -56.9659 H         1 UNK         0.0800 
    246 H246        0.0609  -17.4225  -54.3303 H         1 UNK         0.0800 
    247 H247       -0.6102  -18.9046  -53.7181 H         1 UNK         0.0800 
@<TRIPOS>BOND
     1    1    2 1    
     2    1  127 1    
     3    1  128 1    
     4    1  129 1    
     5    2    3 2    
     6    2    4 am   BACKBONE|DICT|INTERRES
     7    4    5 1    
     8    4  130 1    
     9    5    6 1    
    10    5   65 1    
    11    5  131 1    
    12    6    7 1    
    13    6  132 1    
    14    6  133 1    
    15    7    8 1    
    16    8    9 1    
    17    8  134 1    
    18    8  135 1    
    19    9   10 ar   
    20    9   14 ar   
    21   10   11 ar   
    22   10  136 1    
    23   11   12 ar   
    24   11  126 1    
    25   12   13 ar   
    26   12  137 1    
    27   13   14 ar   
    28   13   15 1    
    29   14  138 1    
    30   15   16 1    
    31   15  139 1    
    32   15  140 1    
    33   16   17 1    
    34   17   18 1    
    35   17  141 1    
    36   17  142 1    
    37   18   19 1    
    38   18   67 1    
    39   18  143 1    
    40   19   20 am   BACKBONE|DICT|INTERRES
    41   19  144 1    
    42   20   21 2    
    43   20   22 1    
    44   22   23 1    
    45   22   24 1    
    46   22  145 1    
    47   23  146 1    
    48   23  147 1    
    49   23  148 1    
    50   24   25 am   BACKBONE|DICT|INTERRES
    51   24  149 1    
    52   25   26 2    
    53   25   27 1    
    54   27   28 1    
    55   27   29 1    
    56   27  150 1    
    57   28  151 1    
    58   28  152 1    
    59   28  153 1    
    60   29   30 am   BACKBONE|DICT|INTERRES
    61   29  154 1    
    62   30   31 2    
    63   30   32 1    
    64   32   33 1    
    65   32   34 1    
    66   32  155 1    
    67   33  156 1    
    68   33  157 1    
    69   33  158 1    
    70   34   35 am   BACKBONE|DICT|INTERRES
    71   34  159 1    
    72   35   36 2    
    73   35   37 1    
    74   37   38 1    
    75   37   39 1    
    76   37  160 1    
    77   38  161 1    
    78   38  162 1    
    79   38  163 1    
    80   39   40 am   BACKBONE|DICT|INTERRES
    81   39  164 1    
    82   40   41 2    
    83   40   42 1    
    84   42   43 1    
    85   42   44 1    
    86   42  165 1    
    87   43  166 1    
    88   43  167 1    
    89   43  168 1    
    90   44   45 am   BACKBONE|DICT|INTERRES
    91   44  169 1    
    92   45   46 2    
    93   45   47 1    
    94   47   48 1    
    95   47   49 1    
    96   47  170 1    
    97   48  171 1    
    98   48  172 1    
    99   48  173 1    
   100   49   50 am   BACKBONE|DICT|INTERRES
   101   49  174 1    
   102   50   51 2    
   103   50   52 1    
   104   52   53 1    
   105   52   54 1    
   106   52  175 1    
   107   53  176 1    
   108   53  177 1    
   109   53  178 1    
   110   54   55 am   BACKBONE|DICT|INTERRES
   111   54  179 1    
   112   55   56 2    
   113   55   57 1    
   114   57   58 1    
   115   57   59 1    
   116   57  180 1    
   117   58  181 1    
   118   58  182 1    
   119   58  183 1    
   120   59   60 am   BACKBONE|DICT|INTERRES
   121   59  184 1    
   122   60   61 2    
   123   60   62 1    
   124   62   63 1    
   125   62   64 1    
   126   62  185 1    
   127   63  186 1    
   128   63  187 1    
   129   63  188 1    
   130   64   65 am   BACKBONE|DICT|INTERRES
   131   64  189 1    
   132   65   66 2    
   133   67   68 2    
   134   67   69 am   BACKBONE|DICT|INTERRES
   135   69   70 1    
   136   69  190 1    
   137   70   71 1    
   138   70   72 1    
   139   70  191 1    
   140   71  192 1    
   141   71  193 1    
   142   71  194 1    
   143   72   73 2    
   144   72   74 am   BACKBONE|DICT|INTERRES
   145   74   75 1    
   146   74  195 1    
   147   75   76 1    
   148   75   77 1    
   149   75  196 1    
   150   76  197 1    
   151   76  198 1    
   152   76  199 1    
   153   77   78 2    
   154   77   79 am   BACKBONE|DICT|INTERRES
   155   79   80 1    
   156   79  200 1    
   157   80   81 1    
   158   80   82 1    
   159   80  201 1    
   160   81  202 1    
   161   81  203 1    
   162   81  204 1    
   163   82   83 2    
   164   82   84 am   BACKBONE|DICT|INTERRES
   165   84   85 1    
   166   84  205 1    
   167   85   86 1    
   168   85   87 1    
   169   85  206 1    
   170   86  207 1    
   171   86  208 1    
   172   86  209 1    
   173   87   88 2    
   174   87   89 am   BACKBONE|DICT|INTERRES
   175   89   90 1    
   176   89  210 1    
   177   90   91 1    
   178   90   92 1    
   179   90  211 1    
   180   91  212 1    
   181   91  213 1    
   182   91  214 1    
   183   92   93 2    
   184   92   94 am   BACKBONE|DICT|INTERRES
   185   94   95 1    
   186   94  215 1    
   187   95   96 1    
   188   95   97 1    
   189   95  216 1    
   190   96  217 1    
   191   96  218 1    
   192   96  219 1    
   193   97   98 2    
   194   97   99 am   BACKBONE|DICT|INTERRES
   195   99  100 1    
   196   99  220 1    
   197  100  101 1    
   198  100  102 1    
   199  100  221 1    
   200  101  222 1    
   201  101  223 1    
   202  101  224 1    
   203  102  103 2    
   204  102  104 am   BACKBONE|DICT|INTERRES
   205  104  105 1    
   206  104  225 1    
   207  105  106 1    
   208  105  107 1    
   209  105  226 1    
   210  106  227 1    
   211  106  228 1    
   212  106  229 1    
   213  107  108 2    
   214  107  109 am   BACKBONE|DICT|INTERRES
   215  109  110 1    
   216  109  230 1    
   217  110  111 1    
   218  110  112 1    
   219  110  231 1    
   220  111  232 1    
   221  111  233 1    
   222  111  234 1    
   223  112  113 2    
   224  112  114 am   BACKBONE|DICT|INTERRES
   225  114  115 1    
   226  114  235 1    
   227  115  116 1    
   228  115  117 1    
   229  115  236 1    
   230  116  237 1    
   231  116  238 1    
   232  116  239 1    
   233  117  118 2    
   234  117  119 am   BACKBONE|DICT|INTERRES
   235  119  120 1    
   236  119  240 1    
   237  120  121 1    
   238  120  124 1    
   239  120  241 1    
   240  121  122 am   BACKBONE|DICT|INTERRES
   241  121  123 2    
   242  122  242 1    
   243  122  243 1    
   244  124  125 1    
   245  124  244 1    
   246  124  245 1    
   247  125  126 1    
   248  126  246 1    
   249  126  247 1    
@<TRIPOS>SUBSTRUCTURE
     1 UNK         1 GROUP             0       ****    0 ROOT    
