@<TRIPOS>MOLECULE
3R540
247   249    1
SMALL
USER_CHARGES


@<TRIPOS>ATOM
      1 CA          3.2572   -9.6209  -47.9937 C.3       0 UNK        -0.1800 
      2 C           2.5547  -10.5699  -47.0349 C.2       0 UNK         0.5000 
      3 O           2.9406  -10.6571  -45.8703 O.2       0 UNK        -0.5000 
      4 N           1.5132  -11.2642  -47.5113 N.am      1 UNK        -0.5000 
      5 CA          0.7319  -12.2809  -46.7871 C.3       1 UNK         0.1400 
      6 C6         -0.3209  -12.9402  -47.7123 C.3       23 UNK        -0.0398 
      7 S7          0.4588  -13.8431  -49.0951 S.3       23 UNK        -0.2404 
      8 C8         -0.4808  -15.4001  -49.0830 C.3       23 UNK        -0.0205 
      9 C9          0.2400  -16.4861  -49.8634 C.ar      23 UNK        -0.0193 
     10 C10        -0.0867  -16.7460  -51.1972 C.ar      23 UNK        -0.1150 
     11 C11         0.5727  -17.7564  -51.9054 C.ar      23 UNK        -0.0193 
     12 C12         1.5624  -18.5109  -51.2670 C.ar      23 UNK        -0.1150 
     13 C13         1.8855  -18.2685  -49.9280 C.ar      23 UNK        -0.0193 
     14 C14         1.2316  -17.2454  -49.2388 C.ar      23 UNK        -0.1150 
     15 C15         2.9250  -19.1174  -49.2083 C.3       23 UNK        -0.0205 
     16 S16         2.4588  -20.8777  -49.1114 S.3       23 UNK        -0.2404 
     17 C17         0.6969  -20.8019  -48.6373 C.3       23 UNK        -0.0398 
     18 CA          0.2699  -22.0515  -47.8353 C.3       11 UNK         0.1400 
     19 N           0.6623  -21.9888  -46.4273 N.am      11 UNK        -0.5000 
     20 C           0.5931  -23.0225  -45.5778 C.2       10 UNK         0.5000 
     21 O           0.2264  -24.1526  -45.9035 O.2       10 UNK        -0.5000 
     22 CA          0.9432  -22.7338  -44.1074 C.3       10 UNK         0.1400 
     23 CB          2.4631  -22.6255  -43.9144 C.3       10 UNK        -0.1800 
     24 N           0.2900  -21.5254  -43.6010 N.am      10 UNK        -0.5000 
     25 C          -1.0384  -21.3703  -43.4990 C.2       9 UNK         0.5000 
     26 O          -1.8540  -22.2436  -43.7959 O.2       9 UNK        -0.5000 
     27 CA         -1.5462  -19.9980  -43.0214 C.3       9 UNK         0.1400 
     28 CB         -1.4236  -19.8712  -41.4956 C.3       9 UNK        -0.1800 
     29 N          -0.8572  -18.8804  -43.6667 N.am      9 UNK        -0.5000 
     30 C          -0.8874  -18.6270  -44.9827 C.2       8 UNK         0.5000 
     31 O          -1.5275  -19.2919  -45.7946 O.2       8 UNK        -0.5000 
     32 CA         -0.0054  -17.4769  -45.4936 C.3       8 UNK         0.1400 
     33 CB         -0.6426  -16.1107  -45.2038 C.3       8 UNK        -0.1800 
     34 N           1.3478  -17.5214  -44.9431 N.am      8 UNK        -0.5000 
     35 C           2.2022  -18.5427  -45.1001 C.2       7 UNK         0.5000 
     36 O           1.9638  -19.5400  -45.7784 O.2       7 UNK        -0.5000 
     37 CA          3.5242  -18.4600  -44.3230 C.3       7 UNK         0.1400 
     38 CB          4.5420  -17.5853  -45.0693 C.3       7 UNK        -0.1800 
     39 N           3.3179  -17.9487  -42.9679 N.am      7 UNK        -0.5000 
     40 C           2.6851  -18.6254  -41.9981 C.2       6 UNK         0.5000 
     41 O           2.2500  -19.7693  -42.1332 O.2       6 UNK        -0.5000 
     42 CA          2.4640  -17.8799  -40.6695 C.3       6 UNK         0.1400 
     43 CB          3.7286  -17.9306  -39.7993 C.3       6 UNK        -0.1800 
     44 N           2.0663  -16.4857  -40.8715 N.am      6 UNK        -0.5000 
     45 C           0.8980  -16.1052  -41.4075 C.2       5 UNK         0.5000 
     46 O           0.0167  -16.8929  -41.7486 O.2       5 UNK        -0.5000 
     47 CA          0.6953  -14.5968  -41.6390 C.3       5 UNK         0.1400 
     48 CB          0.0781  -13.9334  -40.3996 C.3       5 UNK        -0.1800 
     49 N           1.9223  -13.8871  -42.0026 N.am      5 UNK        -0.5000 
     50 C           2.6558  -14.1162  -43.0991 C.2       4 UNK         0.5000 
     51 O           2.4199  -15.0275  -43.8944 O.2       4 UNK        -0.5000 
     52 CA          3.8413  -13.1588  -43.3367 C.3       4 UNK         0.1400 
     53 CB          4.5704  -13.4350  -44.6635 C.3       4 UNK        -0.1800 
     54 N           3.4080  -11.7624  -43.3267 N.am      4 UNK        -0.5000 
     55 C           3.1941  -11.0107  -42.2393 C.2       3 UNK         0.5000 
     56 O           3.3396  -11.4225  -41.0876 O.2       3 UNK        -0.5000 
     57 CA          2.6867   -9.5821  -42.4842 C.3       3 UNK         0.1400 
     58 CB          3.8124   -8.6824  -43.0191 C.3       3 UNK        -0.1800 
     59 N           1.5777   -9.5938  -43.4363 N.am      3 UNK        -0.5000 
     60 C           0.2841   -9.6753  -43.0960 C.2       2 UNK         0.5000 
     61 O          -0.1188   -9.6809  -41.9323 O.2       2 UNK        -0.5000 
     62 CA         -0.7376   -9.7670  -44.2474 C.3       2 UNK         0.1400 
     63 CB         -1.2235   -8.3658  -44.6483 C.3       2 UNK        -0.1800 
     64 N          -0.2065  -10.4446  -45.4311 N.am      2 UNK        -0.5000 
     65 C           0.0566  -11.7574  -45.4989 C.2       1 UNK         0.5000 
     66 O          -0.2003  -12.5470  -44.5907 O.2       1 UNK        -0.5000 
     67 C          -1.2339  -22.3329  -48.0005 C.2       11 UNK         0.5000 
     68 O          -1.5820  -23.1786  -48.8193 O.2       11 UNK        -0.5000 
     69 N          -2.0979  -21.6781  -47.2112 N.am      12 UNK        -0.5000 
     70 CA         -3.5439  -21.9143  -47.2169 C.3       12 UNK         0.1400 
     71 CB         -4.2536  -20.8866  -46.3245 C.3       12 UNK        -0.1800 
     72 C          -3.9221  -23.3469  -46.8018 C.2       12 UNK         0.5000 
     73 O          -4.8280  -23.9242  -47.4009 O.2       12 UNK        -0.5000 
     74 N          -3.2094  -23.9123  -45.8188 N.am      13 UNK        -0.5000 
     75 CA         -3.3603  -25.3061  -45.4030 C.3       13 UNK         0.1400 
     76 CB         -2.5834  -25.5463  -44.0996 C.3       13 UNK        -0.1800 
     77 C          -2.9229  -26.2945  -46.5007 C.2       13 UNK         0.5000 
     78 O          -3.6471  -27.2510  -46.7788 O.2       13 UNK        -0.5000 
     79 N          -1.7619  -26.0346  -47.1176 N.am      14 UNK        -0.5000 
     80 CA         -1.1841  -26.8587  -48.1805 C.3       14 UNK         0.1400 
     81 CB          0.2730  -26.4315  -48.4153 C.3       14 UNK        -0.1800 
     82 C          -1.9810  -26.8062  -49.4979 C.2       14 UNK         0.5000 
     83 O          -2.1945  -27.8455  -50.1228 O.2       14 UNK        -0.5000 
     84 N          -2.4028  -25.6000  -49.8952 N.am      15 UNK        -0.5000 
     85 CA         -3.0843  -25.3133  -51.1581 C.3       15 UNK         0.1400 
     86 CB         -2.6423  -23.9227  -51.6461 C.3       15 UNK        -0.1800 
     87 C          -4.6203  -25.4072  -51.0623 C.2       15 UNK         0.5000 
     88 O          -5.2941  -25.0478  -52.0273 O.2       15 UNK        -0.5000 
     89 N          -5.1511  -25.8654  -49.9178 N.am      16 UNK        -0.5000 
     90 CA         -6.5727  -26.0907  -49.6236 C.3       16 UNK         0.1400 
     91 CB         -7.1083  -27.2819  -50.4448 C.3       16 UNK        -0.1800 
     92 C          -7.4203  -24.8117  -49.7917 C.2       16 UNK         0.5000 
     93 O          -8.3295  -24.7645  -50.6213 O.2       16 UNK        -0.5000 
     94 N          -7.0538  -23.7879  -49.0109 N.am      17 UNK        -0.5000 
     95 CA         -7.5597  -22.4096  -48.9840 C.3       17 UNK         0.1400 
     96 CB         -9.0980  -22.3449  -48.8870 C.3       17 UNK        -0.1800 
     97 C          -6.9985  -21.5139  -50.1075 C.2       17 UNK         0.5000 
     98 O          -7.3159  -20.3238  -50.1321 O.2       17 UNK        -0.5000 
     99 N          -6.1404  -22.0744  -50.9731 N.am      18 UNK        -0.5000 
    100 CA        -5.4305  -21.4157  -52.0722 C.3       18 UNK         0.1400 
    101 CB        -4.4168  -20.3885  -51.5184 C.3       18 UNK        -0.1800 
    102 C         -6.3831  -20.8461  -53.1470 C.2       18 UNK         0.5000 
    103 O         -7.4682  -21.3954  -53.3525 O.2       18 UNK        -0.5000 
    104 N         -5.9355  -19.8020  -53.8604 N.am      19 UNK        -0.5000 
    105 CA        -6.5696  -19.0994  -54.9871 C.3       19 UNK         0.1400 
    106 CB        -7.9448  -18.5186  -54.6055 C.3       19 UNK        -0.1800 
    107 C         -6.6436  -19.9438  -56.2743 C.2       19 UNK         0.5000 
    108 O         -6.2022  -19.4867  -57.3288 O.2       19 UNK        -0.5000 
    109 N         -7.1507  -21.1759  -56.1569 N.am      20 UNK        -0.5000 
    110 CA        -7.1120  -22.2156  -57.1883 C.3       20 UNK         0.1400 
    111 CB        -8.2499  -23.2123  -56.9169 C.3       20 UNK        -0.1800 
    112 C         -5.7515  -22.9457  -57.2370 C.2       20 UNK         0.5000 
    113 O         -5.5096  -23.7230  -58.1612 O.2       20 UNK        -0.5000 
    114 N         -4.8961  -22.6890  -56.2428 N.am      21 UNK        -0.5000 
    115 CA        -3.5503  -23.2169  -56.0727 C.3       21 UNK         0.1400 
    116 CB        -3.6227  -24.5869  -55.3739 C.3       21 UNK        -0.1800 
    117 C         -2.7239  -22.1871  -55.2810 C.2       21 UNK         0.5000 
    118 O         -3.2881  -21.1998  -54.8049 O.2       21 UNK        -0.5000 
    119 N         -1.4177  -22.4526  -55.1669 N.am      22 UNK        -0.5000 
    120 CA        -0.3292  -21.5602  -54.7243 C.3       22 UNK         0.1400 
    121 C          0.2621  -20.7279  -55.8993 C.2       22 UNK         0.5000 
    122 N          1.5282  -20.3412  -55.8126 N.am      22 UNK        -0.7600 
    123 O         -0.4017  -20.4362  -56.8921 O.2       22 UNK        -0.5000 
    124 C124       -0.5866  -20.7566  -53.4038 C.3       23 UNK        -0.0398 
    125 S125       -1.2513  -19.0526  -53.5648 S.3       23 UNK        -0.2404 
    126 C126        0.2297  -18.0086  -53.3658 C.3       23 UNK        -0.0205 
    127 H127        3.2117   -8.6012  -47.6114 H         1 UNK         0.0600 
    128 H128        2.8029   -9.6349  -48.9846 H         1 UNK         0.0600 
    129 H129        4.3055   -9.9016  -48.0952 H         1 UNK         0.0600 
    130 H130        1.2565  -11.1460  -48.4813 H         1 UNK         0.3000 
    131 H131        1.4345  -13.0537  -46.4667 H         1 UNK         0.0600 
    132 H132       -0.9500  -13.6286  -47.1456 H         1 UNK         0.0800 
    133 H133       -0.9959  -12.1886  -48.1252 H         1 UNK         0.0800 
    134 H134       -0.6294  -15.7386  -48.0584 H         1 UNK         0.0800 
    135 H135       -1.4752  -15.2259  -49.4969 H         1 UNK         0.0800 
    136 H136       -0.8523  -16.1606  -51.6869 H         1 UNK         0.1150 
    137 H137        2.0754  -19.2956  -51.8047 H         1 UNK         0.1150 
    138 H138        1.4940  -17.0397  -48.2113 H         1 UNK         0.1150 
    139 H139        3.8807  -19.0307  -49.7264 H         1 UNK         0.0800 
    140 H140        3.0914  -18.7482  -48.1954 H         1 UNK         0.0800 
    141 H141        0.1289  -20.7111  -49.5658 H         1 UNK         0.0800 
    142 H142        0.4939  -19.8947  -48.0659 H         1 UNK         0.0800 
    143 H143        0.7803  -22.9154  -48.2674 H         1 UNK         0.0600 
    144 H144        1.0156  -21.0936  -46.0952 H         1 UNK         0.3000 
    145 H145        0.5868  -23.5769  -43.5119 H         1 UNK         0.0600 
    146 H146        2.8808  -21.7800  -44.4610 H         1 UNK         0.0600 
    147 H147        2.7183  -22.5015  -42.8619 H         1 UNK         0.0600 
    148 H148        2.9665  -23.5263  -44.2678 H         1 UNK         0.0600 
    149 H149        0.8980  -20.7692  -43.3042 H         1 UNK         0.3000 
    150 H150       -2.6043  -19.9287  -43.2819 H         1 UNK         0.0600 
    151 H151       -1.9356  -20.6923  -40.9922 H         1 UNK         0.0600 
    152 H152       -1.8713  -18.9427  -41.1412 H         1 UNK         0.0600 
    153 H153       -0.3823  -19.8840  -41.1722 H         1 UNK         0.0600 
    154 H154       -0.3405  -18.2527  -43.0567 H         1 UNK         0.3000 
    155 H155        0.0745  -17.5918  -46.5740 H         1 UNK         0.0600 
    156 H156       -0.8121  -15.9610  -44.1386 H         1 UNK         0.0600 
    157 H157       -1.6078  -16.0170  -45.7024 H         1 UNK         0.0600 
    158 H158       -0.0085  -15.2973  -45.5563 H         1 UNK         0.0600 
    159 H159        1.6512  -16.7129  -44.4067 H         1 UNK         0.3000 
    160 H160        3.9358  -19.4687  -44.2473 H         1 UNK         0.0600 
    161 H161        4.1641  -16.5768  -45.2342 H         1 UNK         0.0600 
    162 H162        4.7709  -18.0094  -46.0478 H         1 UNK         0.0600 
    163 H163        5.4801  -17.5099  -44.5194 H         1 UNK         0.0600 
    164 H164        3.5889  -16.9918  -42.7972 H         1 UNK         0.3000 
    165 H165        1.6603  -18.3886  -40.1326 H         1 UNK         0.0600 
    166 H166        3.5552  -17.4722  -38.8255 H         1 UNK         0.0600 
    167 H167        4.0379  -18.9615  -39.6215 H         1 UNK         0.0600 
    168 H168        4.5653  -17.4131  -40.2701 H         1 UNK         0.0600 
    169 H169        2.7345  -15.7733  -40.6175 H         1 UNK         0.3000 
    170 H170       -0.0052  -14.4811  -42.4678 H         1 UNK         0.0600 
    171 H171       -0.8538  -14.4249  -40.1166 H         1 UNK         0.0600 
    172 H172        0.7493  -13.9799  -39.5412 H         1 UNK         0.0600 
    173 H173       -0.1529  -12.8847  -40.5895 H         1 UNK         0.0600 
    174 H174        2.1971  -13.1110  -41.4108 H         1 UNK         0.3000 
    175 H175        4.5550  -13.3149  -42.5253 H         1 UNK         0.0600 
    176 H176        3.8964  -13.3589  -45.5178 H         1 UNK         0.0600 
    177 H177        5.3865  -12.7293  -44.8193 H         1 UNK         0.0600 
    178 H178        5.0041  -14.4348  -44.6702 H         1 UNK         0.0600 
    179 H179        3.2359  -11.3492  -44.2416 H         1 UNK         0.3000 
    180 H180        2.3552   -9.1705  -41.5285 H         1 UNK         0.0600 
    181 H181        4.1911   -9.0302  -43.9810 H         1 UNK         0.0600 
    182 H182        4.6533   -8.6566  -42.3250 H         1 UNK         0.0600 
    183 H183        3.4662   -7.6569  -43.1485 H         1 UNK         0.0600 
    184 H184        1.8296   -9.6661  -44.4148 H         1 UNK         0.3000 
    185 H185       -1.5968  -10.3348  -43.8835 H         1 UNK         0.0600 
    186 H186       -1.6491   -7.8407  -43.7921 H         1 UNK         0.0600 
    187 H187       -0.4095   -7.7530  -45.0377 H         1 UNK         0.0600 
    188 H188       -1.9990   -8.4206  -45.4125 H         1 UNK         0.0600 
    189 H189        0.0311   -9.8650  -46.2228 H         1 UNK         0.3000 
    190 H190       -1.7585  -20.9553  -46.5801 H         1 UNK         0.3000 
    191 H191       -3.8969  -21.7694  -48.2402 H         1 UNK         0.0600 
    192 H192       -4.0834  -19.8712  -46.6826 H         1 UNK         0.0600 
    193 H193       -5.3318  -21.0511  -46.3173 H         1 UNK         0.0600 
    194 H194       -3.9047  -20.9417  -45.2930 H         1 UNK         0.0600 
    195 H195       -2.5163  -23.3565  -45.3270 H         1 UNK         0.3000 
    196 H196       -4.4186  -25.4830  -45.1997 H         1 UNK         0.0600 
    197 H197       -2.6953  -26.5774  -43.7624 H         1 UNK         0.0600 
    198 H198       -2.9483  -24.9007  -43.3005 H         1 UNK         0.0600 
    199 H199       -1.5174  -25.3538  -44.2213 H         1 UNK         0.0600 
    200 H200       -1.2111  -25.2396  -46.8078 H         1 UNK         0.3000 
    201 H201       -1.1800  -27.8953  -47.8370 H         1 UNK         0.0600 
    202 H202        0.8672  -26.5436  -47.5082 H         1 UNK         0.0600 
    203 H203        0.3407  -25.3899  -48.7311 H         1 UNK         0.0600 
    204 H204        0.7407  -27.0417  -49.1889 H         1 UNK         0.0600 
    205 H205       -2.1560  -24.7839  -49.3358 H         1 UNK         0.3000 
    206 H206       -2.7678  -26.0414  -51.9076 H         1 UNK         0.0600 
    207 H207       -1.5558  -23.8384  -51.6742 H         1 UNK         0.0600 
    208 H208       -3.0029  -23.7210  -52.6523 H         1 UNK         0.0600 
    209 H209       -3.0232  -23.1326  -50.9995 H         1 UNK         0.0600 
    210 H210       -4.5103  -26.0816  -49.1663 H         1 UNK         0.3000 
    211 H211       -6.6304  -26.3664  -48.5693 H         1 UNK         0.0600 
    212 H212       -7.0885  -27.0799  -51.5162 H         1 UNK         0.0600 
    213 H213       -8.1400  -27.5092  -50.1739 H         1 UNK         0.0600 
    214 H214       -6.5193  -28.1809  -50.2630 H         1 UNK         0.0600 
    215 H215       -6.2541  -23.9433  -48.3945 H         1 UNK         0.3000 
    216 H216       -7.1671  -21.9884  -48.0574 H         1 UNK         0.0600 
    217 H217       -9.4286  -21.3316  -48.6562 H         1 UNK         0.0600 
    218 H218       -9.4738  -22.9958  -48.0977 H         1 UNK         0.0600 
    219 H219       -9.5785  -22.6325  -49.8222 H         1 UNK         0.0600 
    220 H220       -6.0133  -23.0758  -50.9176 H         1 UNK         0.3000 
    221 H221       -4.8650  -22.2015  -52.5726 H         1 UNK         0.0600 
    222 H222       -4.9113  -19.5049  -51.1137 H         1 UNK         0.0600 
    223 H223       -3.8093  -20.8211  -50.7235 H         1 UNK         0.0600 
    224 H224       -3.7275  -20.0560  -52.2932 H         1 UNK         0.0600 
    225 H225       -4.9947  -19.4905  -53.6575 H         1 UNK         0.3000 
    226 H226       -5.9139  -18.2553  -55.2065 H         1 UNK         0.0600 
    227 H227       -7.8729  -17.8866  -53.7204 H         1 UNK         0.0600 
    228 H228       -8.3417  -17.9031  -55.4136 H         1 UNK         0.0600 
    229 H229       -8.6799  -19.2974  -54.4021 H         1 UNK         0.0600 
    230 H230       -7.4765  -21.4556  -55.2346 H         1 UNK         0.3000 
    231 H231       -7.2788  -21.7587  -58.1658 H         1 UNK         0.0600 
    232 H232       -8.1314  -23.7026  -55.9496 H         1 UNK         0.0600 
    233 H233       -8.2798  -23.9913  -57.6797 H         1 UNK         0.0600 
    234 H234       -9.2197  -22.7144  -56.9240 H         1 UNK         0.0600 
    235 H235       -5.1338  -21.9680  -55.5746 H         1 UNK         0.3000 
    236 H236       -3.0803  -23.3311  -57.0517 H         1 UNK         0.0600 
    237 H237       -4.1022  -25.3258  -56.0160 H         1 UNK         0.0600 
    238 H238       -2.6325  -24.9702  -55.1267 H         1 UNK         0.0600 
    239 H239       -4.2001  -24.5337  -54.4516 H         1 UNK         0.0600 
    240 H240       -1.0875  -23.3023  -55.6014 H         1 UNK         0.3000 
    241 H241        0.4561  -22.2757  -54.4755 H         1 UNK         0.0600 
    242 H242        1.9255  -19.8072  -56.5699 H         1 UNK         0.3800 
    243 H243        2.1088  -20.5873  -55.0265 H         1 UNK         0.3800 
    244 H244       -1.2609  -21.3179  -52.7561 H         1 UNK         0.0800 
    245 H245        0.3459  -20.6952  -52.8429 H         1 UNK         0.0800 
    246 H246        0.0458  -17.0533  -53.8594 H         1 UNK         0.0800 
    247 H247        1.0781  -18.4523  -53.8861 H         1 UNK         0.0800 
@<TRIPOS>BOND
     1    1    2 1    
     2    1  127 1    
     3    1  128 1    
     4    1  129 1    
     5    2    3 2    
     6    2    4 am   BACKBONE|DICT|INTERRES
     7    4    5 1    
     8    4  130 1    
     9    5    6 1    
    10    5   65 1    
    11    5  131 1    
    12    6    7 1    
    13    6  132 1    
    14    6  133 1    
    15    7    8 1    
    16    8    9 1    
    17    8  134 1    
    18    8  135 1    
    19    9   10 ar   
    20    9   14 ar   
    21   10   11 ar   
    22   10  136 1    
    23   11   12 ar   
    24   11  126 1    
    25   12   13 ar   
    26   12  137 1    
    27   13   14 ar   
    28   13   15 1    
    29   14  138 1    
    30   15   16 1    
    31   15  139 1    
    32   15  140 1    
    33   16   17 1    
    34   17   18 1    
    35   17  141 1    
    36   17  142 1    
    37   18   19 1    
    38   18   67 1    
    39   18  143 1    
    40   19   20 am   BACKBONE|DICT|INTERRES
    41   19  144 1    
    42   20   21 2    
    43   20   22 1    
    44   22   23 1    
    45   22   24 1    
    46   22  145 1    
    47   23  146 1    
    48   23  147 1    
    49   23  148 1    
    50   24   25 am   BACKBONE|DICT|INTERRES
    51   24  149 1    
    52   25   26 2    
    53   25   27 1    
    54   27   28 1    
    55   27   29 1    
    56   27  150 1    
    57   28  151 1    
    58   28  152 1    
    59   28  153 1    
    60   29   30 am   BACKBONE|DICT|INTERRES
    61   29  154 1    
    62   30   31 2    
    63   30   32 1    
    64   32   33 1    
    65   32   34 1    
    66   32  155 1    
    67   33  156 1    
    68   33  157 1    
    69   33  158 1    
    70   34   35 am   BACKBONE|DICT|INTERRES
    71   34  159 1    
    72   35   36 2    
    73   35   37 1    
    74   37   38 1    
    75   37   39 1    
    76   37  160 1    
    77   38  161 1    
    78   38  162 1    
    79   38  163 1    
    80   39   40 am   BACKBONE|DICT|INTERRES
    81   39  164 1    
    82   40   41 2    
    83   40   42 1    
    84   42   43 1    
    85   42   44 1    
    86   42  165 1    
    87   43  166 1    
    88   43  167 1    
    89   43  168 1    
    90   44   45 am   BACKBONE|DICT|INTERRES
    91   44  169 1    
    92   45   46 2    
    93   45   47 1    
    94   47   48 1    
    95   47   49 1    
    96   47  170 1    
    97   48  171 1    
    98   48  172 1    
    99   48  173 1    
   100   49   50 am   BACKBONE|DICT|INTERRES
   101   49  174 1    
   102   50   51 2    
   103   50   52 1    
   104   52   53 1    
   105   52   54 1    
   106   52  175 1    
   107   53  176 1    
   108   53  177 1    
   109   53  178 1    
   110   54   55 am   BACKBONE|DICT|INTERRES
   111   54  179 1    
   112   55   56 2    
   113   55   57 1    
   114   57   58 1    
   115   57   59 1    
   116   57  180 1    
   117   58  181 1    
   118   58  182 1    
   119   58  183 1    
   120   59   60 am   BACKBONE|DICT|INTERRES
   121   59  184 1    
   122   60   61 2    
   123   60   62 1    
   124   62   63 1    
   125   62   64 1    
   126   62  185 1    
   127   63  186 1    
   128   63  187 1    
   129   63  188 1    
   130   64   65 am   BACKBONE|DICT|INTERRES
   131   64  189 1    
   132   65   66 2    
   133   67   68 2    
   134   67   69 am   BACKBONE|DICT|INTERRES
   135   69   70 1    
   136   69  190 1    
   137   70   71 1    
   138   70   72 1    
   139   70  191 1    
   140   71  192 1    
   141   71  193 1    
   142   71  194 1    
   143   72   73 2    
   144   72   74 am   BACKBONE|DICT|INTERRES
   145   74   75 1    
   146   74  195 1    
   147   75   76 1    
   148   75   77 1    
   149   75  196 1    
   150   76  197 1    
   151   76  198 1    
   152   76  199 1    
   153   77   78 2    
   154   77   79 am   BACKBONE|DICT|INTERRES
   155   79   80 1    
   156   79  200 1    
   157   80   81 1    
   158   80   82 1    
   159   80  201 1    
   160   81  202 1    
   161   81  203 1    
   162   81  204 1    
   163   82   83 2    
   164   82   84 am   BACKBONE|DICT|INTERRES
   165   84   85 1    
   166   84  205 1    
   167   85   86 1    
   168   85   87 1    
   169   85  206 1    
   170   86  207 1    
   171   86  208 1    
   172   86  209 1    
   173   87   88 2    
   174   87   89 am   BACKBONE|DICT|INTERRES
   175   89   90 1    
   176   89  210 1    
   177   90   91 1    
   178   90   92 1    
   179   90  211 1    
   180   91  212 1    
   181   91  213 1    
   182   91  214 1    
   183   92   93 2    
   184   92   94 am   BACKBONE|DICT|INTERRES
   185   94   95 1    
   186   94  215 1    
   187   95   96 1    
   188   95   97 1    
   189   95  216 1    
   190   96  217 1    
   191   96  218 1    
   192   96  219 1    
   193   97   98 2    
   194   97   99 am   BACKBONE|DICT|INTERRES
   195   99  100 1    
   196   99  220 1    
   197  100  101 1    
   198  100  102 1    
   199  100  221 1    
   200  101  222 1    
   201  101  223 1    
   202  101  224 1    
   203  102  103 2    
   204  102  104 am   BACKBONE|DICT|INTERRES
   205  104  105 1    
   206  104  225 1    
   207  105  106 1    
   208  105  107 1    
   209  105  226 1    
   210  106  227 1    
   211  106  228 1    
   212  106  229 1    
   213  107  108 2    
   214  107  109 am   BACKBONE|DICT|INTERRES
   215  109  110 1    
   216  109  230 1    
   217  110  111 1    
   218  110  112 1    
   219  110  231 1    
   220  111  232 1    
   221  111  233 1    
   222  111  234 1    
   223  112  113 2    
   224  112  114 am   BACKBONE|DICT|INTERRES
   225  114  115 1    
   226  114  235 1    
   227  115  116 1    
   228  115  117 1    
   229  115  236 1    
   230  116  237 1    
   231  116  238 1    
   232  116  239 1    
   233  117  118 2    
   234  117  119 am   BACKBONE|DICT|INTERRES
   235  119  120 1    
   236  119  240 1    
   237  120  121 1    
   238  120  124 1    
   239  120  241 1    
   240  121  122 am   BACKBONE|DICT|INTERRES
   241  121  123 2    
   242  122  242 1    
   243  122  243 1    
   244  124  125 1    
   245  124  244 1    
   246  124  245 1    
   247  125  126 1    
   248  126  246 1    
   249  126  247 1    
@<TRIPOS>SUBSTRUCTURE
     1 UNK         1 GROUP             0       ****    0 ROOT    
