@<TRIPOS>MOLECULE
3R540
247   249    1
SMALL
USER_CHARGES


@<TRIPOS>ATOM
      1 CA          6.1094  -11.2939  -46.5019 C.3       0 UNK        -0.1800 
      2 C           4.8047  -11.0157  -47.2343 C.2       0 UNK         0.5000 
      3 O           4.5941   -9.8998  -47.7091 O.2       0 UNK        -0.5000 
      4 N           3.9324  -12.0269  -47.3250 N.am      1 UNK        -0.5000 
      5 CA          2.6014  -11.9706  -47.9369 C.3       1 UNK         0.1400 
      6 C6          2.6250  -11.6740  -49.4642 C.3       23 UNK        -0.0398 
      7 S7          1.3464  -12.6244  -50.3599 S.3       23 UNK        -0.2404 
      8 C8          2.2737  -14.1432  -50.7508 C.3       23 UNK        -0.0205 
      9 C9          1.3515  -15.3141  -51.0635 C.ar      23 UNK        -0.0193 
     10 C10         1.2844  -15.8568  -52.3497 C.ar      23 UNK        -0.1150 
     11 C11         0.4670  -16.9626  -52.6121 C.ar      23 UNK        -0.0193 
     12 C12        -0.2815  -17.5309  -51.5749 C.ar      23 UNK        -0.1150 
     13 C13        -0.2219  -16.9970  -50.2843 C.ar      23 UNK        -0.0193 
     14 C14         0.5933  -15.8887  -50.0415 C.ar      23 UNK        -0.1150 
     15 C15        -1.0478  -17.5917  -49.1524 C.3       23 UNK        -0.0205 
     16 S16        -0.0065  -18.4770  -47.9454 S.3       23 UNK        -0.2404 
     17 C17        -1.1234  -18.5547  -46.5060 C.3       23 UNK        -0.0398 
     18 CA         -1.8561  -19.9072  -46.3977 C.3       11 UNK         0.1400 
     19 N          -0.9389  -21.0327  -46.1845 N.am      11 UNK        -0.5000 
     20 C          -1.2917  -22.3245  -46.2600 C.2       10 UNK         0.5000 
     21 O          -2.4341  -22.6976  -46.5225 O.2       10 UNK        -0.5000 
     22 CA         -0.2134  -23.3790  -45.9494 C.3       10 UNK         0.1400 
     23 CB          0.5628  -23.7266  -47.2280 C.3       10 UNK        -0.1800 
     24 N           0.7295  -22.9567  -44.9136 N.am      10 UNK        -0.5000 
     25 C           0.4011  -22.5886  -43.6665 C.2       9 UNK         0.5000 
     26 O          -0.7384  -22.6765  -43.2113 O.2       9 UNK        -0.5000 
     27 CA          1.5138  -21.9576  -42.8022 C.3       9 UNK         0.1400 
     28 CB          2.0453  -22.9760  -41.7834 C.3       9 UNK        -0.1800 
     29 N           2.6437  -21.4062  -43.5630 N.am      9 UNK        -0.5000 
     30 C           2.5583  -20.4557  -44.5033 C.2       8 UNK         0.5000 
     31 O           1.4937  -19.9341  -44.8515 O.2       8 UNK        -0.5000 
     32 CA          3.8650  -20.0638  -45.2064 C.3       8 UNK         0.1400 
     33 CB          4.4209  -21.2436  -46.0296 C.3       8 UNK        -0.1800 
     34 N           3.5661  -18.9396  -46.0809 N.am      8 UNK        -0.5000 
     35 C           4.4381  -18.1407  -46.7023 C.2       7 UNK         0.5000 
     36 O           5.6610  -18.2361  -46.5931 O.2       7 UNK        -0.5000 
     37 CA          3.8321  -17.0508  -47.6004 C.3       7 UNK         0.1400 
     38 CB          3.5548  -17.6218  -48.9998 C.3       7 UNK        -0.1800 
     39 N           2.5961  -16.5174  -47.0162 N.am      7 UNK        -0.5000 
     40 C           2.5582  -15.4187  -46.2526 C.2       6 UNK         0.5000 
     41 O           3.5145  -14.6553  -46.1038 O.2       6 UNK        -0.5000 
     42 CA          1.2393  -15.1167  -45.5168 C.3       6 UNK         0.1400 
     43 CB          0.0885  -14.7671  -46.4719 C.3       6 UNK        -0.1800 
     44 N           0.7885  -16.1636  -44.6027 N.am      6 UNK        -0.5000 
     45 C           1.4811  -16.7090  -43.5942 C.2       5 UNK         0.5000 
     46 O           2.6754  -16.5008  -43.3786 O.2       5 UNK        -0.5000 
     47 CA          0.6571  -17.5812  -42.6233 C.3       5 UNK         0.1400 
     48 CB          1.5049  -18.1888  -41.4915 C.3       5 UNK        -0.1800 
     49 N          -0.4298  -16.7994  -42.0313 N.am      5 UNK        -0.5000 
     50 C          -1.6194  -16.5795  -42.6053 C.2       4 UNK         0.5000 
     51 O          -1.9407  -17.0390  -43.7005 O.2       4 UNK        -0.5000 
     52 CA         -2.5803  -15.6440  -41.8532 C.3       4 UNK         0.1400 
     53 CB         -3.1382  -16.3261  -40.5939 C.3       4 UNK        -0.1800 
     54 N          -1.9527  -14.3682  -41.4927 N.am      4 UNK        -0.5000 
     55 C          -1.5672  -13.4393  -42.3805 C.2       3 UNK         0.5000 
     56 O          -1.7113  -13.5717  -43.5977 O.2       3 UNK        -0.5000 
     57 CA         -0.9849  -12.1244  -41.8140 C.3       3 UNK         0.1400 
     58 CB          0.0329  -12.3545  -40.6742 C.3       3 UNK        -0.1800 
     59 N          -0.4410  -11.2613  -42.8744 N.am      3 UNK        -0.5000 
     60 C           0.6731  -11.4566  -43.5940 C.2       2 UNK         0.5000 
     61 O           1.5273  -12.3094  -43.3419 O.2       2 UNK        -0.5000 
     62 CA          0.8714  -10.5294  -44.8030 C.3       2 UNK         0.1400 
     63 CB          1.5286   -9.2029  -44.3868 C.3       2 UNK        -0.1800 
     64 N           1.7180  -11.2053  -45.7822 N.am      2 UNK        -0.5000 
     65 C           1.6202  -11.0999  -47.1138 C.2       1 UNK         0.5000 
     66 O           0.8085  -10.3638  -47.6770 O.2       1 UNK        -0.5000 
     67 C          -2.9598  -19.8483  -45.3229 C.2       11 UNK         0.5000 
     68 O          -4.1053  -19.5422  -45.6556 O.2       11 UNK        -0.5000 
     69 N          -2.6190  -20.2140  -44.0778 N.am      12 UNK        -0.5000 
     70 CA         -3.5605  -20.3139  -42.9600 C.3       12 UNK         0.1400 
     71 CB         -2.7802  -20.3653  -41.6373 C.3       12 UNK        -0.1800 
     72 C          -4.5164  -21.5184  -43.0944 C.2       12 UNK         0.5000 
     73 O          -5.5989  -21.4996  -42.5095 O.2       12 UNK        -0.5000 
     74 N          -4.1280  -22.5139  -43.9033 N.am      13 UNK        -0.5000 
     75 CA         -4.9364  -23.6630  -44.3120 C.3       13 UNK         0.1400 
     76 CB         -4.0329  -24.9086  -44.3673 C.3       13 UNK        -0.1800 
     77 C          -5.6516  -23.4014  -45.6569 C.2       13 UNK         0.5000 
     78 O          -5.8534  -24.3355  -46.4350 O.2       13 UNK        -0.5000 
     79 N          -6.0071  -22.1334  -45.9189 N.am      14 UNK        -0.5000 
     80 CA         -6.7011  -21.6280  -47.1090 C.3       14 UNK         0.1400 
     81 CB         -8.1473  -22.1642  -47.1630 C.3       14 UNK        -0.1800 
     82 C          -5.9155  -21.8856  -48.4103 C.2       14 UNK         0.5000 
     83 O          -6.4893  -22.3388  -49.4011 O.2       14 UNK        -0.5000 
     84 N          -4.6016  -21.6234  -48.3620 N.am      15 UNK        -0.5000 
     85 CA         -3.6127  -21.8822  -49.4158 C.3       15 UNK         0.1400 
     86 CB         -3.8491  -20.9637  -50.6306 C.3       15 UNK        -0.1800 
     87 C          -3.5530  -23.3789  -49.7760 C.2       15 UNK         0.5000 
     88 O          -3.6470  -23.7400  -50.9492 O.2       15 UNK        -0.5000 
     89 N          -3.4376  -24.2151  -48.7340 N.am      16 UNK        -0.5000 
     90 CA         -3.4642  -25.6808  -48.7553 C.3       16 UNK         0.1400 
     91 CB         -2.1798  -26.2313  -49.4103 C.3       16 UNK        -0.1800 
     92 C          -4.7516  -26.2273  -49.4065 C.2       16 UNK         0.5000 
     93 O          -4.6806  -27.0488  -50.3203 O.2       16 UNK        -0.5000 
     94 N          -5.9067  -25.7118  -48.9599 N.am      17 UNK        -0.5000 
     95 CA         -7.2440  -25.9416  -49.5230 C.3       17 UNK         0.1400 
     96 CB         -7.7212  -27.3770  -49.2210 C.3       17 UNK        -0.1800 
     97 C          -7.3152  -25.5786  -51.0244 C.2       17 UNK         0.5000 
     98 O          -7.8190  -26.3553  -51.8375 O.2       17 UNK        -0.5000 
     99 N          -6.7617  -24.4037  -51.3500 N.am      18 UNK        -0.5000 
    100 CA        -6.5981  -23.7943  -52.6710 C.3       18 UNK         0.1400 
    101 CB        -7.9653  -23.5330  -53.3346 C.3       18 UNK        -0.1800 
    102 C         -5.6145  -24.5135  -53.6213 C.2       18 UNK         0.5000 
    103 O         -5.5068  -24.1048  -54.7783 O.2       18 UNK        -0.5000 
    104 N         -4.8835  -25.5338  -53.1482 N.am      19 UNK        -0.5000 
    105 CA        -3.8876  -26.2598  -53.9434 C.3       19 UNK         0.1400 
    106 CB        -3.5535  -27.5949  -53.2630 C.3       19 UNK        -0.1800 
    107 C         -2.5987  -25.4521  -54.1933 C.2       19 UNK         0.5000 
    108 O         -1.9312  -25.6852  -55.2017 O.2       19 UNK        -0.5000 
    109 N         -2.2741  -24.5237  -53.2847 N.am      20 UNK        -0.5000 
    110 CA        -1.1003  -23.6504  -53.3412 C.3       20 UNK         0.1400 
    111 CB        -0.3337  -23.7688  -52.0110 C.3       20 UNK        -0.1800 
    112 C         -1.4860  -22.1877  -53.6420 C.2       20 UNK         0.5000 
    113 O         -0.6525  -21.2962  -53.4729 O.2       20 UNK        -0.5000 
    114 N         -2.7366  -21.9508  -54.0643 N.am      21 UNK        -0.5000 
    115 CA        -3.2518  -20.6342  -54.4395 C.3       21 UNK         0.1400 
    116 CB        -4.7803  -20.7107  -54.5719 C.3       21 UNK        -0.1800 
    117 C         -2.6210  -20.1072  -55.7426 C.2       21 UNK         0.5000 
    118 O         -2.2140  -20.8956  -56.6000 O.2       21 UNK        -0.5000 
    119 N         -2.5813  -18.7784  -55.8674 N.am      22 UNK        -0.5000 
    120 CA        -1.9895  -18.0404  -56.9956 C.3       22 UNK         0.1400 
    121 C         -2.9244  -16.9422  -57.5839 C.2       22 UNK         0.5000 
    122 N         -4.1899  -16.8634  -57.1886 N.am      22 UNK        -0.7600 
    123 O         -2.5075  -16.1614  -58.4355 O.2       22 UNK        -0.5000 
    124 C124       -0.5688  -17.5155  -56.6511 C.3       23 UNK        -0.0398 
    125 S125       -0.5135  -16.4695  -55.1513 S.3       23 UNK        -0.2404 
    126 C126        0.4059  -17.5515  -54.0130 C.3       23 UNK        -0.0205 
    127 H127        6.9563  -11.1324  -47.1688 H         1 UNK         0.0600 
    128 H128        6.1562  -12.3195  -46.1343 H         1 UNK         0.0600 
    129 H129        6.2115  -10.6223  -45.6495 H         1 UNK         0.0600 
    130 H130        4.1530  -12.9177  -46.8884 H         1 UNK         0.3000 
    131 H131        2.2385  -12.9886  -47.8222 H         1 UNK         0.0600 
    132 H132        3.5949  -11.9368  -49.8888 H         1 UNK         0.0800 
    133 H133        2.5011  -10.6094  -49.6694 H         1 UNK         0.0800 
    134 H134        2.9035  -14.4137  -49.9019 H         1 UNK         0.0800 
    135 H135        2.9486  -13.9461  -51.5851 H         1 UNK         0.0800 
    136 H136        1.8694  -15.4238  -53.1490 H         1 UNK         0.1150 
    137 H137       -0.9098  -18.3883  -51.7730 H         1 UNK         0.1150 
    138 H138        0.6537  -15.4742  -49.0494 H         1 UNK         0.1150 
    139 H139       -1.5928  -16.7842  -48.6625 H         1 UNK         0.0800 
    140 H140       -1.8013  -18.2780  -49.5419 H         1 UNK         0.0800 
    141 H141       -1.8347  -17.7282  -46.5560 H         1 UNK         0.0800 
    142 H142       -0.5301  -18.3838  -45.6091 H         1 UNK         0.0800 
    143 H143       -2.3611  -20.0713  -47.3496 H         1 UNK         0.0600 
    144 H144        0.0101  -20.7897  -45.9198 H         1 UNK         0.3000 
    145 H145       -0.7225  -24.2776  -45.5954 H         1 UNK         0.0600 
    146 H146        1.1522  -22.8802  -47.5835 H         1 UNK         0.0600 
    147 H147        1.2414  -24.5635  -47.0628 H         1 UNK         0.0600 
    148 H148       -0.1148  -24.0111  -48.0335 H         1 UNK         0.0600 
    149 H149        1.6925  -22.8548  -45.1956 H         1 UNK         0.3000 
    150 H150        1.0562  -21.1330  -42.2523 H         1 UNK         0.0600 
    151 H151        1.2342  -23.3862  -41.1800 H         1 UNK         0.0600 
    152 H152        2.7557  -22.5144  -41.0973 H         1 UNK         0.0600 
    153 H153        2.5448  -23.8122  -42.2742 H         1 UNK         0.0600 
    154 H154        3.5515  -21.7913  -43.3447 H         1 UNK         0.3000 
    155 H155        4.5890  -19.7514  -44.4516 H         1 UNK         0.0600 
    156 H156        4.6464  -22.1016  -45.3956 H         1 UNK         0.0600 
    157 H157        5.3472  -20.9753  -46.5374 H         1 UNK         0.0600 
    158 H158        3.7099  -21.5721  -46.7889 H         1 UNK         0.0600 
    159 H159        2.5729  -18.7748  -46.1808 H         1 UNK         0.3000 
    160 H160        4.5761  -16.2588  -47.7097 H         1 UNK         0.0600 
    161 H161        3.2438  -16.8407  -49.6892 H         1 UNK         0.0600 
    162 H162        2.7798  -18.3880  -48.9848 H         1 UNK         0.0600 
    163 H163        4.4530  -18.0756  -49.4206 H         1 UNK         0.0600 
    164 H164        1.7603  -17.0765  -47.1206 H         1 UNK         0.3000 
    165 H165        1.4280  -14.2370  -44.9059 H         1 UNK         0.0600 
    166 H166       -0.2818  -15.6477  -46.9914 H         1 UNK         0.0600 
    167 H167       -0.7517  -14.3381  -45.9274 H         1 UNK         0.0600 
    168 H168        0.3823  -14.0347  -47.2207 H         1 UNK         0.0600 
    169 H169       -0.2022  -16.3753  -44.6314 H         1 UNK         0.3000 
    170 H170        0.2304  -18.4067  -43.1950 H         1 UNK         0.0600 
    171 H171        1.9461  -17.4177  -40.8589 H         1 UNK         0.0600 
    172 H172        0.9037  -18.8400  -40.8569 H         1 UNK         0.0600 
    173 H173        2.3208  -18.7910  -41.8924 H         1 UNK         0.0600 
    174 H174       -0.2247  -16.3369  -41.1579 H         1 UNK         0.3000 
    175 H175       -3.4201  -15.4314  -42.5185 H         1 UNK         0.0600 
    176 H176       -2.3570  -16.5318  -39.8612 H         1 UNK         0.0600 
    177 H177       -3.8935  -15.7049  -40.1123 H         1 UNK         0.0600 
    178 H178       -3.6126  -17.2764  -40.8432 H         1 UNK         0.0600 
    179 H179       -1.8258  -14.1872  -40.5077 H         1 UNK         0.3000 
    180 H180       -1.8286  -11.5752  -41.3939 H         1 UNK         0.0600 
    181 H181        0.8117  -13.0634  -40.9572 H         1 UNK         0.0600 
    182 H182       -0.4554  -12.7489  -39.7828 H         1 UNK         0.0600 
    183 H183        0.5180  -11.4223  -40.3845 H         1 UNK         0.0600 
    184 H184       -1.0695  -10.5311  -43.1790 H         1 UNK         0.3000 
    185 H185       -0.1086  -10.3286  -45.2414 H         1 UNK         0.0600 
    186 H186        1.6543   -8.5399  -45.2431 H         1 UNK         0.0600 
    187 H187        0.9180   -8.6749  -43.6534 H         1 UNK         0.0600 
    188 H188        2.5115   -9.3650  -43.9425 H         1 UNK         0.0600 
    189 H189        2.3831  -11.8530  -45.3787 H         1 UNK         0.3000 
    190 H190       -1.6714  -20.5133  -43.8977 H         1 UNK         0.3000 
    191 H191       -4.1712  -19.4085  -42.9530 H         1 UNK         0.0600 
    192 H192       -2.1902  -21.2771  -41.5486 H         1 UNK         0.0600 
    193 H193       -2.1032  -19.5162  -41.5424 H         1 UNK         0.0600 
    194 H194       -3.4605  -20.3346  -40.7854 H         1 UNK         0.0600 
    195 H195       -3.2303  -22.4297  -44.3614 H         1 UNK         0.3000 
    196 H196       -5.7138  -23.8481  -43.5684 H         1 UNK         0.0600 
    197 H197       -3.5197  -25.0652  -43.4184 H         1 UNK         0.0600 
    198 H198       -3.2754  -24.8256  -45.1466 H         1 UNK         0.0600 
    199 H199       -4.6157  -25.8075  -44.5716 H         1 UNK         0.0600 
    200 H200       -5.7573  -21.4310  -45.2367 H         1 UNK         0.3000 
    201 H201       -6.7548  -20.5442  -46.9967 H         1 UNK         0.0600 
    202 H202       -8.7044  -21.7036  -47.9797 H         1 UNK         0.0600 
    203 H203       -8.6839  -21.9432  -46.2405 H         1 UNK         0.0600 
    204 H204       -8.1759  -23.2432  -47.3170 H         1 UNK         0.0600 
    205 H205       -4.2261  -21.3269  -47.4719 H         1 UNK         0.3000 
    206 H206       -2.6326  -21.6323  -49.0110 H         1 UNK         0.0600 
    207 H207       -4.7758  -21.2037  -51.1514 H         1 UNK         0.0600 
    208 H208       -3.0341  -21.0592  -51.3466 H         1 UNK         0.0600 
    209 H209       -3.8939  -19.9169  -50.3310 H         1 UNK         0.0600 
    210 H210       -3.3499  -23.7910  -47.8148 H         1 UNK         0.3000 
    211 H211       -3.4785  -26.0094  -47.7151 H         1 UNK         0.0600 
    212 H212       -1.2894  -25.8749  -48.8946 H         1 UNK         0.0600 
    213 H213       -2.1584  -27.3210  -49.3732 H         1 UNK         0.0600 
    214 H214       -2.1002  -25.9389  -50.4575 H         1 UNK         0.0600 
    215 H215       -5.8662  -25.0663  -48.1736 H         1 UNK         0.3000 
    216 H216       -7.9160  -25.2534  -49.0083 H         1 UNK         0.0600 
    217 H217       -8.7539  -27.5199  -49.5408 H         1 UNK         0.0600 
    218 H218       -7.1137  -28.1234  -49.7337 H         1 UNK         0.0600 
    219 H219       -7.6804  -27.5878  -48.1524 H         1 UNK         0.0600 
    220 H220       -6.4129  -23.8285  -50.5866 H         1 UNK         0.3000 
    221 H221       -6.1466  -22.8232  -52.4702 H         1 UNK         0.0600 
    222 H222       -8.4579  -24.4603  -53.6275 H         1 UNK         0.0600 
    223 H223       -8.6329  -22.9940  -52.6623 H         1 UNK         0.0600 
    224 H224       -7.8547  -22.9255  -54.2336 H         1 UNK         0.0600 
    225 H225       -4.9869  -25.8094  -52.1789 H         1 UNK         0.3000 
    226 H226       -4.3305  -26.4845  -54.9160 H         1 UNK         0.0600 
    227 H227       -4.4549  -28.1708  -53.0524 H         1 UNK         0.0600 
    228 H228       -2.9163  -28.2074  -53.9019 H         1 UNK         0.0600 
    229 H229       -3.0214  -27.4448  -52.3233 H         1 UNK         0.0600 
    230 H230       -2.8903  -24.3758  -52.4859 H         1 UNK         0.3000 
    231 H231       -0.4295  -23.9673  -54.1418 H         1 UNK         0.0600 
    232 H232        0.6027  -23.2109  -52.0464 H         1 UNK         0.0600 
    233 H233       -0.0825  -24.8065  -51.7914 H         1 UNK         0.0600 
    234 H234       -0.9130  -23.3803  -51.1738 H         1 UNK         0.0600 
    235 H235       -3.3458  -22.7406  -54.2218 H         1 UNK         0.3000 
    236 H236       -3.0101  -19.9362  -53.6350 H         1 UNK         0.0600 
    237 H237       -5.2421  -21.0087  -53.6320 H         1 UNK         0.0600 
    238 H238       -5.2017  -19.7418  -54.8419 H         1 UNK         0.0600 
    239 H239       -5.0824  -21.4243  -55.3393 H         1 UNK         0.0600 
    240 H240       -2.9305  -18.1990  -55.1174 H         1 UNK         0.3000 
    241 H241       -1.8688  -18.7311  -57.8319 H         1 UNK         0.0600 
    242 H242       -4.7857  -16.1530  -57.5848 H         1 UNK         0.3800 
    243 H243       -4.5724  -17.5233  -56.5312 H         1 UNK         0.3800 
    244 H244        0.1023  -18.3654  -56.5210 H         1 UNK         0.0800 
    245 H245       -0.1511  -16.9484  -57.4845 H         1 UNK         0.0800 
    246 H246        1.4191  -17.6988  -54.3898 H         1 UNK         0.0800 
    247 H247       -0.0637  -18.5367  -53.9920 H         1 UNK         0.0800 
@<TRIPOS>BOND
     1    1    2 1    
     2    1  127 1    
     3    1  128 1    
     4    1  129 1    
     5    2    3 2    
     6    2    4 am   BACKBONE|DICT|INTERRES
     7    4    5 1    
     8    4  130 1    
     9    5    6 1    
    10    5   65 1    
    11    5  131 1    
    12    6    7 1    
    13    6  132 1    
    14    6  133 1    
    15    7    8 1    
    16    8    9 1    
    17    8  134 1    
    18    8  135 1    
    19    9   10 ar   
    20    9   14 ar   
    21   10   11 ar   
    22   10  136 1    
    23   11   12 ar   
    24   11  126 1    
    25   12   13 ar   
    26   12  137 1    
    27   13   14 ar   
    28   13   15 1    
    29   14  138 1    
    30   15   16 1    
    31   15  139 1    
    32   15  140 1    
    33   16   17 1    
    34   17   18 1    
    35   17  141 1    
    36   17  142 1    
    37   18   19 1    
    38   18   67 1    
    39   18  143 1    
    40   19   20 am   BACKBONE|DICT|INTERRES
    41   19  144 1    
    42   20   21 2    
    43   20   22 1    
    44   22   23 1    
    45   22   24 1    
    46   22  145 1    
    47   23  146 1    
    48   23  147 1    
    49   23  148 1    
    50   24   25 am   BACKBONE|DICT|INTERRES
    51   24  149 1    
    52   25   26 2    
    53   25   27 1    
    54   27   28 1    
    55   27   29 1    
    56   27  150 1    
    57   28  151 1    
    58   28  152 1    
    59   28  153 1    
    60   29   30 am   BACKBONE|DICT|INTERRES
    61   29  154 1    
    62   30   31 2    
    63   30   32 1    
    64   32   33 1    
    65   32   34 1    
    66   32  155 1    
    67   33  156 1    
    68   33  157 1    
    69   33  158 1    
    70   34   35 am   BACKBONE|DICT|INTERRES
    71   34  159 1    
    72   35   36 2    
    73   35   37 1    
    74   37   38 1    
    75   37   39 1    
    76   37  160 1    
    77   38  161 1    
    78   38  162 1    
    79   38  163 1    
    80   39   40 am   BACKBONE|DICT|INTERRES
    81   39  164 1    
    82   40   41 2    
    83   40   42 1    
    84   42   43 1    
    85   42   44 1    
    86   42  165 1    
    87   43  166 1    
    88   43  167 1    
    89   43  168 1    
    90   44   45 am   BACKBONE|DICT|INTERRES
    91   44  169 1    
    92   45   46 2    
    93   45   47 1    
    94   47   48 1    
    95   47   49 1    
    96   47  170 1    
    97   48  171 1    
    98   48  172 1    
    99   48  173 1    
   100   49   50 am   BACKBONE|DICT|INTERRES
   101   49  174 1    
   102   50   51 2    
   103   50   52 1    
   104   52   53 1    
   105   52   54 1    
   106   52  175 1    
   107   53  176 1    
   108   53  177 1    
   109   53  178 1    
   110   54   55 am   BACKBONE|DICT|INTERRES
   111   54  179 1    
   112   55   56 2    
   113   55   57 1    
   114   57   58 1    
   115   57   59 1    
   116   57  180 1    
   117   58  181 1    
   118   58  182 1    
   119   58  183 1    
   120   59   60 am   BACKBONE|DICT|INTERRES
   121   59  184 1    
   122   60   61 2    
   123   60   62 1    
   124   62   63 1    
   125   62   64 1    
   126   62  185 1    
   127   63  186 1    
   128   63  187 1    
   129   63  188 1    
   130   64   65 am   BACKBONE|DICT|INTERRES
   131   64  189 1    
   132   65   66 2    
   133   67   68 2    
   134   67   69 am   BACKBONE|DICT|INTERRES
   135   69   70 1    
   136   69  190 1    
   137   70   71 1    
   138   70   72 1    
   139   70  191 1    
   140   71  192 1    
   141   71  193 1    
   142   71  194 1    
   143   72   73 2    
   144   72   74 am   BACKBONE|DICT|INTERRES
   145   74   75 1    
   146   74  195 1    
   147   75   76 1    
   148   75   77 1    
   149   75  196 1    
   150   76  197 1    
   151   76  198 1    
   152   76  199 1    
   153   77   78 2    
   154   77   79 am   BACKBONE|DICT|INTERRES
   155   79   80 1    
   156   79  200 1    
   157   80   81 1    
   158   80   82 1    
   159   80  201 1    
   160   81  202 1    
   161   81  203 1    
   162   81  204 1    
   163   82   83 2    
   164   82   84 am   BACKBONE|DICT|INTERRES
   165   84   85 1    
   166   84  205 1    
   167   85   86 1    
   168   85   87 1    
   169   85  206 1    
   170   86  207 1    
   171   86  208 1    
   172   86  209 1    
   173   87   88 2    
   174   87   89 am   BACKBONE|DICT|INTERRES
   175   89   90 1    
   176   89  210 1    
   177   90   91 1    
   178   90   92 1    
   179   90  211 1    
   180   91  212 1    
   181   91  213 1    
   182   91  214 1    
   183   92   93 2    
   184   92   94 am   BACKBONE|DICT|INTERRES
   185   94   95 1    
   186   94  215 1    
   187   95   96 1    
   188   95   97 1    
   189   95  216 1    
   190   96  217 1    
   191   96  218 1    
   192   96  219 1    
   193   97   98 2    
   194   97   99 am   BACKBONE|DICT|INTERRES
   195   99  100 1    
   196   99  220 1    
   197  100  101 1    
   198  100  102 1    
   199  100  221 1    
   200  101  222 1    
   201  101  223 1    
   202  101  224 1    
   203  102  103 2    
   204  102  104 am   BACKBONE|DICT|INTERRES
   205  104  105 1    
   206  104  225 1    
   207  105  106 1    
   208  105  107 1    
   209  105  226 1    
   210  106  227 1    
   211  106  228 1    
   212  106  229 1    
   213  107  108 2    
   214  107  109 am   BACKBONE|DICT|INTERRES
   215  109  110 1    
   216  109  230 1    
   217  110  111 1    
   218  110  112 1    
   219  110  231 1    
   220  111  232 1    
   221  111  233 1    
   222  111  234 1    
   223  112  113 2    
   224  112  114 am   BACKBONE|DICT|INTERRES
   225  114  115 1    
   226  114  235 1    
   227  115  116 1    
   228  115  117 1    
   229  115  236 1    
   230  116  237 1    
   231  116  238 1    
   232  116  239 1    
   233  117  118 2    
   234  117  119 am   BACKBONE|DICT|INTERRES
   235  119  120 1    
   236  119  240 1    
   237  120  121 1    
   238  120  124 1    
   239  120  241 1    
   240  121  122 am   BACKBONE|DICT|INTERRES
   241  121  123 2    
   242  122  242 1    
   243  122  243 1    
   244  124  125 1    
   245  124  244 1    
   246  124  245 1    
   247  125  126 1    
   248  126  246 1    
   249  126  247 1    
@<TRIPOS>SUBSTRUCTURE
     1 UNK         1 GROUP             0       ****    0 ROOT    
