@<TRIPOS>MOLECULE
3R540
247   249    1
SMALL
USER_CHARGES


@<TRIPOS>ATOM
      1 CA         -0.9920   -7.5257  -47.2470 C.3       0 UNK        -0.1800 
      2 C          -0.9296   -8.4311  -48.4692 C.2       0 UNK         0.5000 
      3 O          -0.4564   -8.0066  -49.5241 O.2       0 UNK        -0.5000 
      4 N          -1.4139   -9.6706  -48.3329 N.am      1 UNK        -0.5000 
      5 CA         -1.3576  -10.7186  -49.3557 C.3       1 UNK         0.1400 
      6 C6         -2.3588  -11.8668  -49.0639 C.3       23 UNK        -0.0398 
      7 S7         -2.3157  -12.5350  -47.3587 S.3       23 UNK        -0.2404 
      8 C8         -3.8549  -13.5170  -47.3067 C.3       23 UNK        -0.0205 
      9 C9         -3.6514  -14.9002  -47.9066 C.ar      23 UNK        -0.0193 
     10 C10        -3.6035  -15.0580  -49.2936 C.ar      23 UNK        -0.1150 
     11 C11        -3.2768  -16.2913  -49.8569 C.ar      23 UNK        -0.0193 
     12 C12        -3.0906  -17.3939  -49.0212 C.ar      23 UNK        -0.1150 
     13 C13        -3.2054  -17.2736  -47.6331 C.ar      23 UNK        -0.0193 
     14 C14        -3.4709  -16.0158  -47.0806 C.ar      23 UNK        -0.1150 
     15 C15        -2.9910  -18.4897  -46.7377 C.3       23 UNK        -0.0205 
     16 S16        -4.1690  -19.8269  -47.1144 S.3       23 UNK        -0.2404 
     17 C17        -3.7221  -21.1178  -45.9039 C.3       23 UNK        -0.0398 
     18 CA         -2.6435  -22.0833  -46.4585 C.3       11 UNK         0.1400 
     19 N          -1.2812  -21.6206  -46.1880 N.am      11 UNK        -0.5000 
     20 C          -0.1952  -22.0941  -46.8142 C.2       10 UNK         0.5000 
     21 O          -0.2333  -22.9663  -47.6829 O.2       10 UNK        -0.5000 
     22 CA          1.1625  -21.5350  -46.3572 C.3       10 UNK         0.1400 
     23 CB          1.3516  -20.0895  -46.8441 C.3       10 UNK        -0.1800 
     24 N           1.3398  -21.5974  -44.9051 N.am      10 UNK        -0.5000 
     25 C           1.3370  -22.7266  -44.1810 C.2       9 UNK         0.5000 
     26 O           1.1649  -23.8477  -44.6584 O.2       9 UNK        -0.5000 
     27 CA          1.5284  -22.5781  -42.6633 C.3       9 UNK         0.1400 
     28 CB          3.0130  -22.3991  -42.3110 C.3       9 UNK        -0.1800 
     29 N           0.7548  -21.4578  -42.1329 N.am      9 UNK        -0.5000 
     30 C          -0.5684  -21.4933  -41.9227 C.2       8 UNK         0.5000 
     31 O          -1.2650  -22.4881  -42.1134 O.2       8 UNK        -0.5000 
     32 CA         -1.2360  -20.1867  -41.4571 C.3       8 UNK         0.1400 
     33 CB         -1.1380  -20.0410  -39.9312 C.3       8 UNK        -0.1800 
     34 N          -0.6722  -18.9974  -42.0946 N.am      8 UNK        -0.5000 
     35 C          -0.6999  -18.7600  -43.4128 C.2       7 UNK         0.5000 
     36 O          -1.2138  -19.5154  -44.2371 O.2       7 UNK        -0.5000 
     37 CA          0.0087  -17.4859  -43.8960 C.3       7 UNK         0.1400 
     38 CB         -0.9347  -16.2810  -43.7684 C.3       7 UNK        -0.1800 
     39 N           1.2722  -17.1946  -43.2075 N.am      7 UNK        -0.5000 
     40 C           2.3109  -18.0359  -43.0888 C.2       6 UNK         0.5000 
     41 O           2.3010  -19.1963  -43.5050 O.2       6 UNK        -0.5000 
     42 CA          3.5523  -17.4817  -42.3583 C.3       6 UNK         0.1400 
     43 CB          4.7592  -18.4434  -42.3944 C.3       6 UNK        -0.1800 
     44 N           3.9262  -16.1401  -42.8211 N.am      6 UNK        -0.5000 
     45 C           4.3307  -15.7916  -44.0513 C.2       5 UNK         0.5000 
     46 O           4.4950  -16.5818  -44.9825 O.2       5 UNK        -0.5000 
     47 CA          4.5683  -14.2869  -44.2825 C.3       5 UNK         0.1400 
     48 CB          5.8700  -14.0269  -45.0592 C.3       5 UNK        -0.1800 
     49 N           3.4498  -13.7077  -45.0206 N.am      5 UNK        -0.5000 
     50 C           2.2186  -13.5237  -44.5260 C.2       4 UNK         0.5000 
     51 O           1.9194  -13.7129  -43.3455 O.2       4 UNK        -0.5000 
     52 CA          1.1317  -13.0778  -45.5250 C.3       4 UNK         0.1400 
     53 CB          1.0680  -11.5441  -45.5809 C.3       4 UNK        -0.1800 
     54 N           1.2818  -13.6300  -46.8810 N.am      4 UNK        -0.5000 
     55 C           1.3361  -14.9434  -47.1689 C.2       3 UNK         0.5000 
     56 O           1.3222  -15.8165  -46.3056 O.2       3 UNK        -0.5000 
     57 CA          1.4035  -15.3868  -48.6434 C.3       3 UNK         0.1400 
     58 CB          0.3808  -16.4991  -48.9215 C.3       3 UNK        -0.1800 
     59 N           1.1617  -14.2930  -49.5803 N.am      3 UNK        -0.5000 
     60 C           2.1106  -13.5699  -50.1858 C.2       2 UNK         0.5000 
     61 O           3.3182  -13.7497  -50.0264 O.2       2 UNK        -0.5000 
     62 CA          1.6256  -12.4343  -51.1102 C.3       2 UNK         0.1400 
     63 CB          1.5539  -12.9221  -52.5656 C.3       2 UNK        -0.1800 
     64 N           0.3255  -11.8685  -50.7284 N.am      2 UNK        -0.5000 
     65 C           0.0797  -11.2463  -49.5664 C.2       1 UNK         0.5000 
     66 O           0.9295  -11.1144  -48.6832 O.2       1 UNK        -0.5000 
     67 C          -2.8653  -23.5365  -45.9905 C.2       11 UNK         0.5000 
     68 O          -3.6064  -24.2576  -46.6563 O.2       11 UNK        -0.5000 
     69 N          -2.2066  -23.9731  -44.9050 N.am      12 UNK        -0.5000 
     70 CA         -2.2413  -25.3687  -44.4545 C.3       12 UNK         0.1400 
     71 CB         -1.6248  -25.5059  -43.0555 C.3       12 UNK        -0.1800 
     72 C          -1.5566  -26.3213  -45.4501 C.2       12 UNK         0.5000 
     73 O          -2.1285  -27.3602  -45.7810 O.2       12 UNK        -0.5000 
     74 N          -0.3760  -25.9292  -45.9506 N.am      13 UNK        -0.5000 
     75 CA          0.3840  -26.6596  -46.9687 C.3       13 UNK         0.1400 
     76 CB          1.7556  -25.9946  -47.1580 C.3       13 UNK        -0.1800 
     77 C          -0.3592  -26.7695  -48.3140 C.2       13 UNK         0.5000 
     78 O          -0.2737  -27.8056  -48.9738 O.2       13 UNK        -0.5000 
     79 N          -1.1049  -25.7168  -48.6737 N.am      14 UNK        -0.5000 
     80 CA         -1.9679  -25.6651  -49.8548 C.3       14 UNK         0.1400 
     81 CB         -2.1580  -24.1961  -50.2568 C.3       14 UNK        -0.1800 
     82 C          -3.3331  -26.3596  -49.6614 C.2       14 UNK         0.5000 
     83 O          -4.1123  -26.4026  -50.6121 O.2       14 UNK        -0.5000 
     84 N          -3.6172  -26.8723  -48.4541 N.am      15 UNK        -0.5000 
     85 CA         -4.8610  -27.5355  -48.0455 C.3       15 UNK         0.1400 
     86 CB         -5.0401  -28.8763  -48.7882 C.3       15 UNK        -0.1800 
     87 C          -6.0911  -26.6079  -48.1504 C.2       15 UNK         0.5000 
     88 O          -7.1241  -26.9956  -48.6985 O.2       15 UNK        -0.5000 
     89 N          -5.9338  -25.3872  -47.6207 N.am      16 UNK        -0.5000 
     90 CA         -6.9008  -24.2871  -47.5428 C.3       16 UNK         0.1400 
     91 CB         -8.1946  -24.7137  -46.8185 C.3       16 UNK        -0.1800 
     92 C          -7.1767  -23.5800  -48.8851 C.2       16 UNK         0.5000 
     93 O          -8.0777  -22.7410  -48.9485 O.2       16 UNK        -0.5000 
     94 N          -6.3897  -23.8816  -49.9272 N.am      17 UNK        -0.5000 
     95 CA         -6.4380  -23.2064  -51.2218 C.3       17 UNK         0.1400 
     96 CB         -5.8710  -24.1334  -52.3080 C.3       17 UNK        -0.1800 
     97 C          -5.6971  -21.8582  -51.1511 C.2       17 UNK         0.5000 
     98 O          -4.5422  -21.7531  -51.5786 O.2       17 UNK        -0.5000 
     99 N          -6.3858  -20.8419  -50.6147 N.am      18 UNK        -0.5000 
    100 CA        -5.9412  -19.4512  -50.4652 C.3       18 UNK         0.1400 
    101 CB        -6.8573  -18.7433  -49.4518 C.3       18 UNK        -0.1800 
    102 C         -5.8481  -18.6941  -51.8106 C.2       18 UNK         0.5000 
    103 O         -6.4032  -17.6059  -51.9670 O.2       18 UNK        -0.5000 
    104 N         -5.1385  -19.3048  -52.7588 N.am      19 UNK        -0.5000 
    105 CA        -4.8420  -18.8277  -54.1022 C.3       19 UNK         0.1400 
    106 CB        -6.0514  -19.0176  -55.0339 C.3       19 UNK        -0.1800 
    107 C         -3.6089  -19.5824  -54.6128 C.2       19 UNK         0.5000 
    108 O         -2.6638  -18.9503  -55.0809 O.2       19 UNK        -0.5000 
    109 N         -3.6009  -20.9138  -54.4337 N.am      20 UNK        -0.5000 
    110 CA        -2.4500  -21.7837  -54.6935 C.3       20 UNK         0.1400 
    111 CB        -2.8821  -23.2530  -54.5866 C.3       20 UNK        -0.1800 
    112 C         -1.2782  -21.4925  -53.7383 C.2       20 UNK         0.5000 
    113 O         -0.1270  -21.4722  -54.1742 O.2       20 UNK        -0.5000 
    114 N         -1.6017  -21.1926  -52.4710 N.am      21 UNK        -0.5000 
    115 CA        -0.6654  -20.7228  -51.4433 C.3       21 UNK         0.1400 
    116 CB        -1.4153  -20.6087  -50.1061 C.3       21 UNK        -0.1800 
    117 C          0.0483  -19.3969  -51.7913 C.2       21 UNK         0.5000 
    118 O          1.1487  -19.1586  -51.2939 O.2       21 UNK        -0.5000 
    119 N         -0.5734  -18.5817  -52.6527 N.am      22 UNK        -0.5000 
    120 CA        -0.0008  -17.3577  -53.2348 C.3       22 UNK         0.1400 
    121 C          0.7946  -17.6085  -54.5522 C.2       22 UNK         0.5000 
    122 N          0.9351  -18.8353  -55.0421 N.am      22 UNK        -0.7600 
    123 O          1.3226  -16.6668  -55.1374 O.2       22 UNK        -0.5000 
    124 C124       -1.0863  -16.2607  -53.4142 C.3       23 UNK        -0.0398 
    125 S125       -1.5427  -15.4977  -51.8244 S.3       23 UNK        -0.2404 
    126 C126       -3.0493  -16.4067  -51.3560 C.3       23 UNK        -0.0205 
    127 H127       -1.4396   -8.0312  -46.3908 H         1 UNK         0.0600 
    128 H128       -1.5852   -6.6380  -47.4664 H         1 UNK         0.0600 
    129 H129        0.0116   -7.2065  -46.9659 H         1 UNK         0.0600 
    130 H130       -1.7649   -9.9730  -47.4353 H         1 UNK         0.3000 
    131 H131       -1.6595  -10.2616  -50.3008 H         1 UNK         0.0600 
    132 H132       -2.2037  -12.6829  -49.7689 H         1 UNK         0.0800 
    133 H133       -3.3693  -11.5022  -49.2527 H         1 UNK         0.0800 
    134 H134       -4.6573  -12.9936  -47.8284 H         1 UNK         0.0800 
    135 H135       -4.1755  -13.6044  -46.2676 H         1 UNK         0.0800 
    136 H136       -3.7601  -14.2092  -49.9416 H         1 UNK         0.1150 
    137 H137       -2.8353  -18.3466  -49.4477 H         1 UNK         0.1150 
    138 H138       -3.5199  -15.8996  -46.0075 H         1 UNK         0.1150 
    139 H139       -1.9715  -18.8536  -46.8712 H         1 UNK         0.0800 
    140 H140       -3.0947  -18.2151  -45.6876 H         1 UNK         0.0800 
    141 H141       -4.6505  -21.6498  -45.6871 H         1 UNK         0.0800 
    142 H142       -3.4182  -20.6687  -44.9582 H         1 UNK         0.0800 
    143 H143       -2.7574  -22.1189  -47.5442 H         1 UNK         0.0600 
    144 H144       -1.1740  -20.9046  -45.4722 H         1 UNK         0.3000 
    145 H145        1.9433  -22.1499  -46.8095 H         1 UNK         0.0600 
    146 H146        2.3248  -19.6959  -46.5498 H         1 UNK         0.0600 
    147 H147        1.2920  -20.0333  -47.9319 H         1 UNK         0.0600 
    148 H148        0.5888  -19.4239  -46.4413 H         1 UNK         0.0600 
    149 H149        1.5205  -20.7185  -44.4281 H         1 UNK         0.3000 
    150 H150        1.1815  -23.4984  -42.1882 H         1 UNK         0.0600 
    151 H151        3.5974  -23.2549  -42.6511 H         1 UNK         0.0600 
    152 H152        3.1558  -22.3153  -41.2336 H         1 UNK         0.0600 
    153 H153        3.4378  -21.5095  -42.7762 H         1 UNK         0.0600 
    154 H154        1.2409  -20.5767  -42.0388 H         1 UNK         0.3000 
    155 H155       -2.2923  -20.2409  -41.7289 H         1 UNK         0.0600 
    156 H156       -0.1027  -19.9503  -39.6002 H         1 UNK         0.0600 
    157 H157       -1.5689  -20.9079  -39.4284 H         1 UNK         0.0600 
    158 H158       -1.6808  -19.1621  -39.5830 H         1 UNK         0.0600 
    159 H159       -0.2193  -18.3254  -41.4932 H         1 UNK         0.3000 
    160 H160        0.2359  -17.6365  -44.9508 H         1 UNK         0.0600 
    161 H161       -1.1576  -16.0498  -42.7262 H         1 UNK         0.0600 
    162 H162       -1.8817  -16.4688  -44.2747 H         1 UNK         0.0600 
    163 H163       -0.4990  -15.3938  -44.2222 H         1 UNK         0.0600 
    164 H164        1.3868  -16.2480  -42.8731 H         1 UNK         0.3000 
    165 H165        3.2604  -17.3712  -41.3131 H         1 UNK         0.0600 
    166 H166        5.0677  -18.6733  -43.4145 H         1 UNK         0.0600 
    167 H167        5.6168  -18.0211  -41.8709 H         1 UNK         0.0600 
    168 H168        4.5170  -19.3888  -41.9079 H         1 UNK         0.0600 
    169 H169        3.7869  -15.3986  -42.1481 H         1 UNK         0.3000 
    170 H170        4.6490  -13.7847  -43.3161 H         1 UNK         0.0600 
    171 H171        5.8398  -14.4607  -46.0596 H         1 UNK         0.0600 
    172 H172        6.0591  -12.9584  -45.1638 H         1 UNK         0.0600 
    173 H173        6.7258  -14.4593  -44.5393 H         1 UNK         0.0600 
    174 H174        3.5870  -13.5674  -46.0105 H         1 UNK         0.3000 
    175 H175        0.1734  -13.4289  -45.1411 H         1 UNK         0.0600 
    176 H176        1.9530  -11.1214  -46.0577 H         1 UNK         0.0600 
    177 H177        0.1922  -11.2058  -46.1334 H         1 UNK         0.0600 
    178 H178        0.9969  -11.1161  -44.5802 H         1 UNK         0.0600 
    179 H179        1.2852  -12.9582  -47.6395 H         1 UNK         0.3000 
    180 H180        2.3995  -15.8029  -48.8068 H         1 UNK         0.0600 
    181 H181       -0.6319  -16.1535  -48.7205 H         1 UNK         0.0600 
    182 H182        0.5602  -17.3756  -48.2979 H         1 UNK         0.0600 
    183 H183        0.4267  -16.8292  -49.9583 H         1 UNK         0.0600 
    184 H184        0.1949  -14.0745  -49.7717 H         1 UNK         0.3000 
    185 H185        2.3647  -11.6322  -51.0554 H         1 UNK         0.0600 
    186 H186        1.2951  -12.1088  -53.2436 H         1 UNK         0.0600 
    187 H187        2.5152  -13.3216  -52.8917 H         1 UNK         0.0600 
    188 H188        0.8134  -13.7126  -52.6898 H         1 UNK         0.0600 
    189 H189       -0.4115  -11.9464  -51.4145 H         1 UNK         0.3000 
    190 H190       -1.6122  -23.3387  -44.3889 H         1 UNK         0.3000 
    191 H191       -3.2885  -25.6710  -44.3825 H         1 UNK         0.0600 
    192 H192       -1.6077  -26.5486  -42.7359 H         1 UNK         0.0600 
    193 H193       -2.2054  -24.9545  -42.3164 H         1 UNK         0.0600 
    194 H194       -0.5998  -25.1371  -43.0248 H         1 UNK         0.0600 
    195 H195        0.0480  -25.0742  -45.5985 H         1 UNK         0.3000 
    196 H196        0.5459  -27.6737  -46.5977 H         1 UNK         0.0600 
    197 H197        1.6590  -24.9617  -47.4941 H         1 UNK         0.0600 
    198 H198        2.3226  -25.9902  -46.2269 H         1 UNK         0.0600 
    199 H199        2.3510  -26.5284  -47.8996 H         1 UNK         0.0600 
    200 H200       -1.0640  -24.8790  -48.1034 H         1 UNK         0.3000 
    201 H201       -1.4634  -26.1737  -50.6787 H         1 UNK         0.0600 
    202 H202       -2.7183  -24.1069  -51.1867 H         1 UNK         0.0600 
    203 H203       -2.6986  -23.6377  -49.4922 H         1 UNK         0.0600 
    204 H204       -1.1948  -23.7134  -50.4195 H         1 UNK         0.0600 
    205 H205       -2.9214  -26.7791  -47.7242 H         1 UNK         0.3000 
    206 H206       -4.7461  -27.7648  -46.9851 H         1 UNK         0.0600 
    207 H207       -4.1621  -29.5113  -48.6699 H         1 UNK         0.0600 
    208 H208       -5.8945  -29.4280  -48.3948 H         1 UNK         0.0600 
    209 H209       -5.2088  -28.7324  -49.8557 H         1 UNK         0.0600 
    210 H210       -5.0153  -25.1509  -47.2439 H         1 UNK         0.3000 
    211 H211       -6.4208  -23.5331  -46.9174 H         1 UNK         0.0600 
    212 H212       -8.8217  -23.8490  -46.5983 H         1 UNK         0.0600 
    213 H213       -7.9737  -25.2015  -45.8692 H         1 UNK         0.0600 
    214 H214       -8.7913  -25.3996  -47.4200 H         1 UNK         0.0600 
    215 H215       -5.6719  -24.5829  -49.8078 H         1 UNK         0.3000 
    216 H216       -7.4792  -23.0054  -51.4833 H         1 UNK         0.0600 
    217 H217       -4.8310  -24.3908  -52.1182 H         1 UNK         0.0600 
    218 H218       -5.9184  -23.6606  -53.2896 H         1 UNK         0.0600 
    219 H219       -6.4365  -25.0635  -52.3660 H         1 UNK         0.0600 
    220 H220       -7.3089  -21.0491  -50.2547 H         1 UNK         0.3000 
    221 H221       -4.9348  -19.4697  -50.0450 H         1 UNK         0.0600 
    222 H222       -6.8847  -19.2785  -48.5026 H         1 UNK         0.0600 
    223 H223       -7.8803  -18.6630  -49.8209 H         1 UNK         0.0600 
    224 H224       -6.4989  -17.7345  -49.2413 H         1 UNK         0.0600 
    225 H225       -4.7252  -20.1970  -52.4999 H         1 UNK         0.3000 
    226 H226       -4.5924  -17.7657  -54.0528 H         1 UNK         0.0600 
    227 H227       -6.3666  -20.0606  -55.0805 H         1 UNK         0.0600 
    228 H228       -6.9039  -18.4266  -54.6991 H         1 UNK         0.0600 
    229 H229       -5.8145  -18.6981  -56.0494 H         1 UNK         0.0600 
    230 H230       -4.4178  -21.3642  -54.0486 H         1 UNK         0.3000 
    231 H231       -2.1078  -21.5984  -55.7139 H         1 UNK         0.0600 
    232 H232       -3.2128  -23.5004  -53.5785 H         1 UNK         0.0600 
    233 H233       -2.0552  -23.9205  -54.8319 H         1 UNK         0.0600 
    234 H234       -3.6974  -23.4784  -55.2742 H         1 UNK         0.0600 
    235 H235       -2.5697  -21.2919  -52.1878 H         1 UNK         0.3000 
    236 H236        0.1165  -21.4767  -51.3308 H         1 UNK         0.0600 
    237 H237       -1.4740  -21.5729  -49.6098 H         1 UNK         0.0600 
    238 H238       -0.9206  -19.9287  -49.4106 H         1 UNK         0.0600 
    239 H239       -2.4382  -20.2665  -50.2504 H         1 UNK         0.0600 
    240 H240       -1.4412  -18.8903  -53.0649 H         1 UNK         0.3000 
    241 H241        0.7455  -16.9635  -52.5422 H         1 UNK         0.0600 
    242 H242        1.4619  -18.9638  -55.8911 H         1 UNK         0.3800 
    243 H243        0.5265  -19.6434  -54.5862 H         1 UNK         0.3800 
    244 H244       -1.9720  -16.6527  -53.9147 H         1 UNK         0.0800 
    245 H245       -0.7224  -15.4486  -54.0457 H         1 UNK         0.0800 
    246 H246       -2.9532  -17.4532  -51.6456 H         1 UNK         0.0800 
    247 H247       -3.9070  -16.0050  -51.8973 H         1 UNK         0.0800 
@<TRIPOS>BOND
     1    1    2 1    
     2    1  127 1    
     3    1  128 1    
     4    1  129 1    
     5    2    3 2    
     6    2    4 am   BACKBONE|DICT|INTERRES
     7    4    5 1    
     8    4  130 1    
     9    5    6 1    
    10    5   65 1    
    11    5  131 1    
    12    6    7 1    
    13    6  132 1    
    14    6  133 1    
    15    7    8 1    
    16    8    9 1    
    17    8  134 1    
    18    8  135 1    
    19    9   10 ar   
    20    9   14 ar   
    21   10   11 ar   
    22   10  136 1    
    23   11   12 ar   
    24   11  126 1    
    25   12   13 ar   
    26   12  137 1    
    27   13   14 ar   
    28   13   15 1    
    29   14  138 1    
    30   15   16 1    
    31   15  139 1    
    32   15  140 1    
    33   16   17 1    
    34   17   18 1    
    35   17  141 1    
    36   17  142 1    
    37   18   19 1    
    38   18   67 1    
    39   18  143 1    
    40   19   20 am   BACKBONE|DICT|INTERRES
    41   19  144 1    
    42   20   21 2    
    43   20   22 1    
    44   22   23 1    
    45   22   24 1    
    46   22  145 1    
    47   23  146 1    
    48   23  147 1    
    49   23  148 1    
    50   24   25 am   BACKBONE|DICT|INTERRES
    51   24  149 1    
    52   25   26 2    
    53   25   27 1    
    54   27   28 1    
    55   27   29 1    
    56   27  150 1    
    57   28  151 1    
    58   28  152 1    
    59   28  153 1    
    60   29   30 am   BACKBONE|DICT|INTERRES
    61   29  154 1    
    62   30   31 2    
    63   30   32 1    
    64   32   33 1    
    65   32   34 1    
    66   32  155 1    
    67   33  156 1    
    68   33  157 1    
    69   33  158 1    
    70   34   35 am   BACKBONE|DICT|INTERRES
    71   34  159 1    
    72   35   36 2    
    73   35   37 1    
    74   37   38 1    
    75   37   39 1    
    76   37  160 1    
    77   38  161 1    
    78   38  162 1    
    79   38  163 1    
    80   39   40 am   BACKBONE|DICT|INTERRES
    81   39  164 1    
    82   40   41 2    
    83   40   42 1    
    84   42   43 1    
    85   42   44 1    
    86   42  165 1    
    87   43  166 1    
    88   43  167 1    
    89   43  168 1    
    90   44   45 am   BACKBONE|DICT|INTERRES
    91   44  169 1    
    92   45   46 2    
    93   45   47 1    
    94   47   48 1    
    95   47   49 1    
    96   47  170 1    
    97   48  171 1    
    98   48  172 1    
    99   48  173 1    
   100   49   50 am   BACKBONE|DICT|INTERRES
   101   49  174 1    
   102   50   51 2    
   103   50   52 1    
   104   52   53 1    
   105   52   54 1    
   106   52  175 1    
   107   53  176 1    
   108   53  177 1    
   109   53  178 1    
   110   54   55 am   BACKBONE|DICT|INTERRES
   111   54  179 1    
   112   55   56 2    
   113   55   57 1    
   114   57   58 1    
   115   57   59 1    
   116   57  180 1    
   117   58  181 1    
   118   58  182 1    
   119   58  183 1    
   120   59   60 am   BACKBONE|DICT|INTERRES
   121   59  184 1    
   122   60   61 2    
   123   60   62 1    
   124   62   63 1    
   125   62   64 1    
   126   62  185 1    
   127   63  186 1    
   128   63  187 1    
   129   63  188 1    
   130   64   65 am   BACKBONE|DICT|INTERRES
   131   64  189 1    
   132   65   66 2    
   133   67   68 2    
   134   67   69 am   BACKBONE|DICT|INTERRES
   135   69   70 1    
   136   69  190 1    
   137   70   71 1    
   138   70   72 1    
   139   70  191 1    
   140   71  192 1    
   141   71  193 1    
   142   71  194 1    
   143   72   73 2    
   144   72   74 am   BACKBONE|DICT|INTERRES
   145   74   75 1    
   146   74  195 1    
   147   75   76 1    
   148   75   77 1    
   149   75  196 1    
   150   76  197 1    
   151   76  198 1    
   152   76  199 1    
   153   77   78 2    
   154   77   79 am   BACKBONE|DICT|INTERRES
   155   79   80 1    
   156   79  200 1    
   157   80   81 1    
   158   80   82 1    
   159   80  201 1    
   160   81  202 1    
   161   81  203 1    
   162   81  204 1    
   163   82   83 2    
   164   82   84 am   BACKBONE|DICT|INTERRES
   165   84   85 1    
   166   84  205 1    
   167   85   86 1    
   168   85   87 1    
   169   85  206 1    
   170   86  207 1    
   171   86  208 1    
   172   86  209 1    
   173   87   88 2    
   174   87   89 am   BACKBONE|DICT|INTERRES
   175   89   90 1    
   176   89  210 1    
   177   90   91 1    
   178   90   92 1    
   179   90  211 1    
   180   91  212 1    
   181   91  213 1    
   182   91  214 1    
   183   92   93 2    
   184   92   94 am   BACKBONE|DICT|INTERRES
   185   94   95 1    
   186   94  215 1    
   187   95   96 1    
   188   95   97 1    
   189   95  216 1    
   190   96  217 1    
   191   96  218 1    
   192   96  219 1    
   193   97   98 2    
   194   97   99 am   BACKBONE|DICT|INTERRES
   195   99  100 1    
   196   99  220 1    
   197  100  101 1    
   198  100  102 1    
   199  100  221 1    
   200  101  222 1    
   201  101  223 1    
   202  101  224 1    
   203  102  103 2    
   204  102  104 am   BACKBONE|DICT|INTERRES
   205  104  105 1    
   206  104  225 1    
   207  105  106 1    
   208  105  107 1    
   209  105  226 1    
   210  106  227 1    
   211  106  228 1    
   212  106  229 1    
   213  107  108 2    
   214  107  109 am   BACKBONE|DICT|INTERRES
   215  109  110 1    
   216  109  230 1    
   217  110  111 1    
   218  110  112 1    
   219  110  231 1    
   220  111  232 1    
   221  111  233 1    
   222  111  234 1    
   223  112  113 2    
   224  112  114 am   BACKBONE|DICT|INTERRES
   225  114  115 1    
   226  114  235 1    
   227  115  116 1    
   228  115  117 1    
   229  115  236 1    
   230  116  237 1    
   231  116  238 1    
   232  116  239 1    
   233  117  118 2    
   234  117  119 am   BACKBONE|DICT|INTERRES
   235  119  120 1    
   236  119  240 1    
   237  120  121 1    
   238  120  124 1    
   239  120  241 1    
   240  121  122 am   BACKBONE|DICT|INTERRES
   241  121  123 2    
   242  122  242 1    
   243  122  243 1    
   244  124  125 1    
   245  124  244 1    
   246  124  245 1    
   247  125  126 1    
   248  126  246 1    
   249  126  247 1    
@<TRIPOS>SUBSTRUCTURE
     1 UNK         1 GROUP             0       ****    0 ROOT    
