@<TRIPOS>MOLECULE
3R540
247   249    1
SMALL
USER_CHARGES


@<TRIPOS>ATOM
      1 CA          5.0420  -13.3431  -47.7064 C.3       0 UNK        -0.1800 
      2 C           3.5610  -13.1081  -47.9641 C.2       0 UNK         0.5000 
      3 O           3.1680  -11.9829  -48.2739 O.2       0 UNK        -0.5000 
      4 N           2.7401  -14.1591  -47.8271 N.am      1 UNK        -0.5000 
      5 CA          1.2840  -14.1645  -48.0291 C.3       1 UNK         0.1400 
      6 C6          0.8681  -13.9636  -49.5127 C.3       23 UNK        -0.0398 
      7 S7          1.5568  -15.2528  -50.6087 S.3       23 UNK        -0.2404 
      8 C8          0.0679  -15.9266  -51.4102 C.3       23 UNK        -0.0205 
      9 C9         -0.5747  -17.0438  -50.6010 C.ar      23 UNK        -0.0193 
     10 C10        -1.6101  -16.7683  -49.7027 C.ar      23 UNK        -0.1150 
     11 C11        -2.2600  -17.8090  -49.0308 C.ar      23 UNK        -0.0193 
     12 C12        -1.8432  -19.1266  -49.2339 C.ar      23 UNK        -0.1150 
     13 C13        -0.7973  -19.4136  -50.1158 C.ar      23 UNK        -0.0193 
     14 C14        -0.1693  -18.3678  -50.7974 C.ar      23 UNK        -0.1150 
     15 C15        -0.3754  -20.8544  -50.3671 C.3       23 UNK        -0.0205 
     16 S16         1.1456  -21.3204  -49.4799 S.3       23 UNK        -0.2404 
     17 C17         0.6670  -21.1324  -47.7307 C.3       23 UNK        -0.0398 
     18 CA          0.2111  -22.4422  -47.0421 C.3       11 UNK         0.1400 
     19 N           0.3966  -22.3510  -45.5875 N.am      11 UNK        -0.5000 
     20 C           0.1500  -23.3098  -44.6836 C.2       10 UNK         0.5000 
     21 O          -0.2800  -24.4259  -44.9694 O.2       10 UNK        -0.5000 
     22 CA          0.3619  -22.9366  -43.2063 C.3       10 UNK         0.1400 
     23 CB          1.8539  -22.9108  -42.8414 C.3       10 UNK        -0.1800 
     24 N          -0.2548  -21.6477  -42.8938 N.am      10 UNK        -0.5000 
     25 C          -1.5779  -21.4633  -42.7790 C.2       9 UNK         0.5000 
     26 O          -2.3982  -22.3804  -42.8151 O.2       9 UNK        -0.5000 
     27 CA         -2.0761  -20.0131  -42.6273 C.3       9 UNK         0.1400 
     28 CB         -2.1245  -19.6109  -41.1459 C.3       9 UNK        -0.1800 
     29 N          -1.2692  -19.0420  -43.3680 N.am      9 UNK        -0.5000 
     30 C          -1.1387  -19.0132  -44.7019 C.2       8 UNK         0.5000 
     31 O          -1.7200  -19.7841  -45.4630 O.2       8 UNK        -0.5000 
     32 CA         -0.1466  -17.9890  -45.2797 C.3       8 UNK         0.1400 
     33 CB         -0.7996  -16.6067  -45.3807 C.3       8 UNK        -0.1800 
     34 N           1.0878  -17.8941  -44.4978 N.am      8 UNK        -0.5000 
     35 C           1.9418  -18.9073  -44.2936 C.2       7 UNK         0.5000 
     36 O           1.7971  -20.0282  -44.7773 O.2       7 UNK        -0.5000 
     37 CA          3.1202  -18.6454  -43.3441 C.3       7 UNK         0.1400 
     38 CB          4.2811  -17.9589  -44.0799 C.3       7 UNK        -0.1800 
     39 N           2.7020  -17.8390  -42.1986 N.am      7 UNK        -0.5000 
     40 C           1.9887  -18.3147  -41.1677 C.2       6 UNK         0.5000 
     41 O           1.6713  -19.4984  -41.0472 O.2       6 UNK        -0.5000 
     42 CA          1.5264  -17.2929  -40.1105 C.3       6 UNK         0.1400 
     43 CB          2.6093  -17.0980  -39.0389 C.3       6 UNK        -0.1800 
     44 N           1.1783  -15.9922  -40.6869 N.am      6 UNK        -0.5000 
     45 C           0.1290  -15.7794  -41.4934 C.2       5 UNK         0.5000 
     46 O          -0.6814  -16.6537  -41.7977 O.2       5 UNK        -0.5000 
     47 CA         -0.0138  -14.3687  -42.1010 C.3       5 UNK         0.1400 
     48 CB         -0.8577  -13.4710  -41.1846 C.3       5 UNK        -0.1800 
     49 N           1.2577  -13.6987  -42.3959 N.am      5 UNK        -0.5000 
     50 C           2.2248  -14.1917  -43.1810 C.2       4 UNK         0.5000 
     51 O           2.1825  -15.3105  -43.6949 O.2       4 UNK        -0.5000 
     52 CA          3.4162  -13.2638  -43.4455 C.3       4 UNK         0.1400 
     53 CB          4.6041  -13.9883  -44.1064 C.3       4 UNK        -0.1800 
     54 N           2.9738  -12.1600  -44.2933 N.am      4 UNK        -0.5000 
     55 C           3.4637  -10.9136  -44.2392 C.2       3 UNK         0.5000 
     56 O           4.3218  -10.5645  -43.4271 O.2       3 UNK        -0.5000 
     57 CA          2.9398   -9.8750  -45.2535 C.3       3 UNK         0.1400 
     58 CB          4.0754   -9.3974  -46.1740 C.3       3 UNK        -0.1800 
     59 N           1.8440  -10.3779  -46.0830 N.am      3 UNK        -0.5000 
     60 C           0.5458  -10.3083  -45.7553 C.2       2 UNK         0.5000 
     61 O           0.1315   -9.7739  -44.7262 O.2       2 UNK        -0.5000 
     62 CA         -0.4648  -10.9600  -46.7252 C.3       2 UNK         0.1400 
     63 CB         -1.0778   -9.9009  -47.6538 C.3       2 UNK        -0.1800 
     64 N           0.1008  -12.0383  -47.5426 N.am      2 UNK        -0.5000 
     65 C           0.6176  -13.1723  -47.0486 C.2       1 UNK         0.5000 
     66 O           0.6391  -13.4213  -45.8445 O.2       1 UNK        -0.5000 
     67 C          -1.2350  -22.8202  -47.4374 C.2       11 UNK         0.5000 
     68 O          -1.4346  -23.6068  -48.3659 O.2       11 UNK        -0.5000 
     69 N          -2.2180  -22.3013  -46.6883 N.am      12 UNK        -0.5000 
     70 CA         -3.6420  -22.6172  -46.8068 C.3       12 UNK         0.1400 
     71 CB         -4.4411  -21.7547  -45.8200 C.3       12 UNK        -0.1800 
     72 C          -3.9790  -24.1117  -46.6292 C.2       12 UNK         0.5000 
     73 O          -4.9687  -24.5712  -47.1986 O.2       12 UNK        -0.5000 
     74 N          -3.1467  -24.8436  -45.8777 N.am      13 UNK        -0.5000 
     75 CA         -3.2357  -26.2913  -45.7155 C.3       13 UNK         0.1400 
     76 CB         -2.9863  -26.6534  -44.2423 C.3       13 UNK        -0.1800 
     77 C          -2.2305  -27.0047  -46.6345 C.2       13 UNK         0.5000 
     78 O          -2.6233  -27.8952  -47.3877 O.2       13 UNK        -0.5000 
     79 N          -0.9543  -26.6020  -46.5584 N.am      14 UNK        -0.5000 
     80 CA          0.1867  -27.2702  -47.1887 C.3       14 UNK         0.1400 
     81 CB          1.4885  -26.6576  -46.6490 C.3       14 UNK        -0.1800 
     82 C           0.1769  -27.2357  -48.7263 C.2       14 UNK         0.5000 
     83 O           0.5779  -28.2179  -49.3520 O.2       14 UNK        -0.5000 
     84 N          -0.2841  -26.1198  -49.3023 N.am      15 UNK        -0.5000 
     85 CA         -0.4177  -25.9159  -50.7460 C.3       15 UNK         0.1400 
     86 CB          0.3777  -24.6613  -51.1432 C.3       15 UNK        -0.1800 
     87 C          -1.8955  -25.7845  -51.1560 C.2       15 UNK         0.5000 
     88 O          -2.1728  -25.3811  -52.2860 O.2       15 UNK        -0.5000 
     89 N          -2.8193  -26.0821  -50.2275 N.am      16 UNK        -0.5000 
     90 CA         -4.2781  -25.9825  -50.3592 C.3       16 UNK         0.1400 
     91 CB         -4.8017  -27.0719  -51.3177 C.3       16 UNK        -0.1800 
     92 C          -4.7658  -24.5657  -50.7411 C.2       16 UNK         0.5000 
     93 O          -5.7749  -24.4321  -51.4338 O.2       16 UNK        -0.5000 
     94 N          -4.0199  -23.5420  -50.2947 N.am      17 UNK        -0.5000 
     95 CA         -4.1936  -22.1145  -50.5898 C.3       17 UNK         0.1400 
     96 CB         -5.5926  -21.6061  -50.1754 C.3       17 UNK        -0.1800 
     97 C          -3.8243  -21.7194  -52.0349 C.2       17 UNK         0.5000 
     98 O          -4.1675  -20.6123  -52.4436 O.2       17 UNK        -0.5000 
     99 N          -3.1017  -22.5953  -52.7517 N.am      18 UNK        -0.5000 
    100 CA        -2.6941  -22.4975  -54.1587 C.3       18 UNK         0.1400 
    101 CB        -1.9216  -21.1899  -54.4449 C.3       18 UNK        -0.1800 
    102 C         -3.8616  -22.7392  -55.1419 C.2       18 UNK         0.5000 
    103 O         -4.9649  -23.1025  -54.7280 O.2       18 UNK        -0.5000 
    104 N         -3.5789  -22.5905  -56.4458 N.am      19 UNK        -0.5000 
    105 CA        -4.5030  -22.8705  -57.5539 C.3       19 UNK         0.1400 
    106 CB        -3.7349  -22.7867  -58.8820 C.3       19 UNK        -0.1800 
    107 C         -5.7408  -21.9520  -57.5872 C.2       19 UNK         0.5000 
    108 O         -6.8146  -22.3885  -58.0039 O.2       19 UNK        -0.5000 
    109 N         -5.5683  -20.7140  -57.1184 N.am      20 UNK        -0.5000 
    110 CA        -6.6287  -19.7872  -56.7470 C.3       20 UNK         0.1400 
    111 CB        -6.5728  -18.5459  -57.6511 C.3       20 UNK        -0.1800 
    112 C         -6.3559  -19.4262  -55.2825 C.2       20 UNK         0.5000 
    113 O         -5.1938  -19.1986  -54.9424 O.2       20 UNK        -0.5000 
    114 N         -7.4075  -19.4306  -54.4534 N.am      21 UNK        -0.5000 
    115 CA        -7.3423  -19.3190  -52.9950 C.3       21 UNK         0.1400 
    116 CB        -8.7504  -19.5332  -52.4138 C.3       21 UNK        -0.1800 
    117 C         -6.7222  -17.9958  -52.5030 C.2       21 UNK         0.5000 
    118 O         -7.4143  -16.9758  -52.4572 O.2       21 UNK        -0.5000 
    119 N         -5.4382  -18.0571  -52.1349 N.am      22 UNK        -0.5000 
    120 CA        -4.6113  -16.9564  -51.6172 C.3       22 UNK         0.1400 
    121 C         -4.4060  -15.7834  -52.6301 C.2       22 UNK         0.5000 
    122 N         -3.9338  -14.6224  -52.1911 N.am      22 UNK        -0.7600 
    123 O         -4.6189  -15.9173  -53.8330 O.2       22 UNK        -0.5000 
    124 C124       -5.0619  -16.4891  -50.1991 C.3       23 UNK        -0.0398 
    125 S125       -5.0289  -17.8277  -48.9539 S.3       23 UNK        -0.2404 
    126 C126       -3.4399  -17.5223  -48.1150 C.3       23 UNK        -0.0205 
    127 H127        5.2520  -14.3850  -47.4635 H         1 UNK         0.0600 
    128 H128        5.3799  -12.7236  -46.8757 H         1 UNK         0.0600 
    129 H129        5.6222  -13.0764  -48.5896 H         1 UNK         0.0600 
    130 H130        3.1305  -15.0480  -47.5497 H         1 UNK         0.3000 
    131 H131        0.9407  -15.1559  -47.7309 H         1 UNK         0.0600 
    132 H132       -0.2190  -13.9615  -49.6011 H         1 UNK         0.0800 
    133 H133        1.2091  -12.9984  -49.8898 H         1 UNK         0.0800 
    134 H134        0.3528  -16.3122  -52.3903 H         1 UNK         0.0800 
    135 H135       -0.6515  -15.1304  -51.6074 H         1 UNK         0.0800 
    136 H136       -1.9350  -15.7488  -49.5556 H         1 UNK         0.1150 
    137 H137       -2.3465  -19.9272  -48.7108 H         1 UNK         0.1150 
    138 H138        0.6280  -18.5874  -51.4937 H         1 UNK         0.1150 
    139 H139       -1.1736  -21.5434  -50.0980 H         1 UNK         0.0800 
    140 H140       -0.2090  -20.9982  -51.4352 H         1 UNK         0.0800 
    141 H141       -0.0693  -20.3405  -47.6058 H         1 UNK         0.0800 
    142 H142        1.5663  -20.7614  -47.2393 H         1 UNK         0.0800 
    143 H143        0.8590  -23.2523  -47.3819 H         1 UNK         0.0600 
    144 H144        0.7791  -21.4707  -45.2481 H         1 UNK         0.3000 
    145 H145       -0.1155  -23.7061  -42.5956 H         1 UNK         0.0600 
    146 H146        1.9961  -22.6728  -41.7870 H         1 UNK         0.0600 
    147 H147        2.3130  -23.8837  -43.0207 H         1 UNK         0.0600 
    148 H148        2.4083  -22.1767  -43.4251 H         1 UNK         0.0600 
    149 H149        0.3564  -20.8439  -42.8470 H         1 UNK         0.3000 
    150 H150       -3.0920  -19.9720  -43.0257 H         1 UNK         0.0600 
    151 H151       -2.7299  -20.3113  -40.5692 H         1 UNK         0.0600 
    152 H152       -2.5648  -18.6215  -41.0208 H         1 UNK         0.0600 
    153 H153       -1.1287  -19.5923  -40.7019 H         1 UNK         0.0600 
    154 H154       -0.8103  -18.3211  -42.8187 H         1 UNK         0.3000 
    155 H155        0.1260  -18.3095  -46.2869 H         1 UNK         0.0600 
    156 H156       -1.1977  -16.2735  -44.4233 H         1 UNK         0.0600 
    157 H157       -1.6242  -16.6148  -46.0915 H         1 UNK         0.0600 
    158 H158       -0.0818  -15.8651  -45.7203 H         1 UNK         0.0600 
    159 H159        1.3135  -16.9870  -44.0988 H         1 UNK         0.3000 
    160 H160        3.4792  -19.6101  -42.9786 H         1 UNK         0.0600 
    161 H161        3.9794  -17.0132  -44.5293 H         1 UNK         0.0600 
    162 H162        4.6570  -18.5934  -44.8834 H         1 UNK         0.0600 
    163 H163        5.1142  -17.7600  -43.4057 H         1 UNK         0.0600 
    164 H164        2.8452  -16.8411  -42.2762 H         1 UNK         0.3000 
    165 H165        0.6357  -17.6986  -39.6258 H         1 UNK         0.0600 
    166 H166        2.2633  -16.4368  -38.2443 H         1 UNK         0.0600 
    167 H167        2.8752  -18.0492  -38.5759 H         1 UNK         0.0600 
    168 H168        3.5209  -16.6711  -39.4591 H         1 UNK         0.0600 
    169 H169        1.7966  -15.2201  -40.4867 H         1 UNK         0.3000 
    170 H170       -0.5438  -14.4745  -43.0490 H         1 UNK         0.0600 
    171 H171       -1.8224  -13.9317  -40.9668 H         1 UNK         0.0600 
    172 H172       -0.3593  -13.2860  -40.2323 H         1 UNK         0.0600 
    173 H173       -1.0586  -12.5071  -41.6528 H         1 UNK         0.0600 
    174 H174        1.3656  -12.7635  -42.0308 H         1 UNK         0.3000 
    175 H175        3.7438  -12.8834  -42.4757 H         1 UNK         0.0600 
    176 H176        4.3268  -14.4157  -45.0699 H         1 UNK         0.0600 
    177 H177        5.4426  -13.3108  -44.2675 H         1 UNK         0.0600 
    178 H178        4.9618  -14.8036  -43.4766 H         1 UNK         0.0600 
    179 H179        2.2223  -12.3799  -44.9393 H         1 UNK         0.3000 
    180 H180        2.5926   -9.0123  -44.6812 H         1 UNK         0.0600 
    181 H181        4.5150  -10.2217  -46.7355 H         1 UNK         0.0600 
    182 H182        4.8763   -8.9317  -45.5984 H         1 UNK         0.0600 
    183 H183        3.7189   -8.6562  -46.8895 H         1 UNK         0.0600 
    184 H184        2.1129  -10.8533  -46.9392 H         1 UNK         0.3000 
    185 H185       -1.2659  -11.3882  -46.1191 H         1 UNK         0.0600 
    186 H186       -1.5357   -9.0947  -47.0789 H         1 UNK         0.0600 
    187 H187       -0.3256   -9.4535  -48.3047 H         1 UNK         0.0600 
    188 H188       -1.8565  -10.3307  -48.2841 H         1 UNK         0.0600 
    189 H189        0.1633  -11.8595  -48.5337 H         1 UNK         0.3000 
    190 H190       -1.9736  -21.5938  -45.9999 H         1 UNK         0.3000 
    191 H191       -3.9503  -22.3338  -47.8095 H         1 UNK         0.0600 
    192 H192       -4.1584  -21.9588  -44.7877 H         1 UNK         0.0600 
    193 H193       -5.5110  -21.9453  -45.9119 H         1 UNK         0.0600 
    194 H194       -4.2849  -20.6922  -46.0085 H         1 UNK         0.0600 
    195 H195       -2.3348  -24.3943  -45.4714 H         1 UNK         0.3000 
    196 H196       -4.2358  -26.6436  -45.9768 H         1 UNK         0.0600 
    197 H197       -3.0349  -27.7326  -44.0918 H         1 UNK         0.0600 
    198 H198       -3.7387  -26.2008  -43.5962 H         1 UNK         0.0600 
    199 H199       -2.0080  -26.3168  -43.8975 H         1 UNK         0.0600 
    200 H200       -0.7229  -25.8356  -45.9279 H         1 UNK         0.3000 
    201 H201        0.1579  -28.3191  -46.8866 H         1 UNK         0.0600 
    202 H202        1.5486  -26.7513  -45.5646 H         1 UNK         0.0600 
    203 H203        1.5676  -25.5988  -46.8974 H         1 UNK         0.0600 
    204 H204        2.3614  -27.1600  -47.0678 H         1 UNK         0.0600 
    205 H205       -0.6094  -25.3527  -48.7210 H         1 UNK         0.3000 
    206 H206       -0.0110  -26.7645  -51.2990 H         1 UNK         0.0600 
    207 H207        1.4145  -24.7273  -50.8133 H         1 UNK         0.0600 
    208 H208        0.3889  -24.5269  -52.2254 H         1 UNK         0.0600 
    209 H209       -0.0564  -23.7627  -50.7074 H         1 UNK         0.0600 
    210 H210       -2.4856  -26.4223  -49.3359 H         1 UNK         0.3000 
    211 H211       -4.6887  -26.1903  -49.3705 H         1 UNK         0.0600 
    212 H212       -4.4789  -26.8958  -52.3444 H         1 UNK         0.0600 
    213 H213       -5.8918  -27.1033  -51.3181 H         1 UNK         0.0600 
    214 H214       -4.4510  -28.0601  -51.0200 H         1 UNK         0.0600 
    215 H215       -3.2012  -23.7730  -49.7437 H         1 UNK         0.3000 
    216 H216       -3.4733  -21.5970  -49.9594 H         1 UNK         0.0600 
    217 H217       -5.6298  -20.5169  -50.1892 H         1 UNK         0.0600 
    218 H218       -5.8549  -21.9248  -49.1670 H         1 UNK         0.0600 
    219 H219       -6.3709  -21.9609  -50.8510 H         1 UNK         0.0600 
    220 H220       -2.9137  -23.5013  -52.3360 H         1 UNK         0.3000 
    221 H221       -1.9993  -23.3249  -54.3091 H         1 UNK         0.0600 
    222 H222       -2.5844  -20.3247  -54.4835 H         1 UNK         0.0600 
    223 H223       -1.1688  -20.9996  -53.6807 H         1 UNK         0.0600 
    224 H224       -1.3986  -21.2394  -55.3999 H         1 UNK         0.0600 
    225 H225       -2.6481  -22.3004  -56.7079 H         1 UNK         0.3000 
    226 H226       -4.8622  -23.8947  -57.4334 H         1 UNK         0.0600 
    227 H227       -2.9119  -23.5011  -58.9086 H         1 UNK         0.0600 
    228 H228       -4.3878  -23.0144  -59.7258 H         1 UNK         0.0600 
    229 H229       -3.3223  -21.7905  -59.0461 H         1 UNK         0.0600 
    230 H230       -4.6646  -20.4763  -56.7303 H         1 UNK         0.3000 
    231 H231       -7.6109  -20.2572  -56.8323 H         1 UNK         0.0600 
    232 H232       -6.7224  -18.8151  -58.6968 H         1 UNK         0.0600 
    233 H233       -5.6143  -18.0311  -57.5716 H         1 UNK         0.0600 
    234 H234       -7.3530  -17.8333  -57.3813 H         1 UNK         0.0600 
    235 H235       -8.3252  -19.5987  -54.8388 H         1 UNK         0.3000 
    236 H236       -6.7224  -20.1414  -52.6359 H         1 UNK         0.0600 
    237 H237       -9.4592  -18.7929  -52.7870 H         1 UNK         0.0600 
    238 H238       -9.1344  -20.5225  -52.6632 H         1 UNK         0.0600 
    239 H239       -8.7371  -19.4564  -51.3258 H         1 UNK         0.0600 
    240 H240       -4.9435  -18.9339  -52.2924 H         1 UNK         0.3000 
    241 H241       -3.6197  -17.3968  -51.5234 H         1 UNK         0.0600 
    242 H242       -3.7322  -14.4548  -51.2198 H         1 UNK         0.3800 
    243 H243       -3.7902  -13.8804  -52.8584 H         1 UNK         0.3800 
    244 H244       -4.4374  -15.6765  -49.8296 H         1 UNK         0.0800 
    245 H245       -6.0744  -16.0858  -50.2398 H         1 UNK         0.0800 
    246 H246       -3.4097  -16.4947  -47.7501 H         1 UNK         0.0800 
    247 H247       -3.3788  -18.1629  -47.2335 H         1 UNK         0.0800 
@<TRIPOS>BOND
     1    1    2 1    
     2    1  127 1    
     3    1  128 1    
     4    1  129 1    
     5    2    3 2    
     6    2    4 am   BACKBONE|DICT|INTERRES
     7    4    5 1    
     8    4  130 1    
     9    5    6 1    
    10    5   65 1    
    11    5  131 1    
    12    6    7 1    
    13    6  132 1    
    14    6  133 1    
    15    7    8 1    
    16    8    9 1    
    17    8  134 1    
    18    8  135 1    
    19    9   10 ar   
    20    9   14 ar   
    21   10   11 ar   
    22   10  136 1    
    23   11   12 ar   
    24   11  126 1    
    25   12   13 ar   
    26   12  137 1    
    27   13   14 ar   
    28   13   15 1    
    29   14  138 1    
    30   15   16 1    
    31   15  139 1    
    32   15  140 1    
    33   16   17 1    
    34   17   18 1    
    35   17  141 1    
    36   17  142 1    
    37   18   19 1    
    38   18   67 1    
    39   18  143 1    
    40   19   20 am   BACKBONE|DICT|INTERRES
    41   19  144 1    
    42   20   21 2    
    43   20   22 1    
    44   22   23 1    
    45   22   24 1    
    46   22  145 1    
    47   23  146 1    
    48   23  147 1    
    49   23  148 1    
    50   24   25 am   BACKBONE|DICT|INTERRES
    51   24  149 1    
    52   25   26 2    
    53   25   27 1    
    54   27   28 1    
    55   27   29 1    
    56   27  150 1    
    57   28  151 1    
    58   28  152 1    
    59   28  153 1    
    60   29   30 am   BACKBONE|DICT|INTERRES
    61   29  154 1    
    62   30   31 2    
    63   30   32 1    
    64   32   33 1    
    65   32   34 1    
    66   32  155 1    
    67   33  156 1    
    68   33  157 1    
    69   33  158 1    
    70   34   35 am   BACKBONE|DICT|INTERRES
    71   34  159 1    
    72   35   36 2    
    73   35   37 1    
    74   37   38 1    
    75   37   39 1    
    76   37  160 1    
    77   38  161 1    
    78   38  162 1    
    79   38  163 1    
    80   39   40 am   BACKBONE|DICT|INTERRES
    81   39  164 1    
    82   40   41 2    
    83   40   42 1    
    84   42   43 1    
    85   42   44 1    
    86   42  165 1    
    87   43  166 1    
    88   43  167 1    
    89   43  168 1    
    90   44   45 am   BACKBONE|DICT|INTERRES
    91   44  169 1    
    92   45   46 2    
    93   45   47 1    
    94   47   48 1    
    95   47   49 1    
    96   47  170 1    
    97   48  171 1    
    98   48  172 1    
    99   48  173 1    
   100   49   50 am   BACKBONE|DICT|INTERRES
   101   49  174 1    
   102   50   51 2    
   103   50   52 1    
   104   52   53 1    
   105   52   54 1    
   106   52  175 1    
   107   53  176 1    
   108   53  177 1    
   109   53  178 1    
   110   54   55 am   BACKBONE|DICT|INTERRES
   111   54  179 1    
   112   55   56 2    
   113   55   57 1    
   114   57   58 1    
   115   57   59 1    
   116   57  180 1    
   117   58  181 1    
   118   58  182 1    
   119   58  183 1    
   120   59   60 am   BACKBONE|DICT|INTERRES
   121   59  184 1    
   122   60   61 2    
   123   60   62 1    
   124   62   63 1    
   125   62   64 1    
   126   62  185 1    
   127   63  186 1    
   128   63  187 1    
   129   63  188 1    
   130   64   65 am   BACKBONE|DICT|INTERRES
   131   64  189 1    
   132   65   66 2    
   133   67   68 2    
   134   67   69 am   BACKBONE|DICT|INTERRES
   135   69   70 1    
   136   69  190 1    
   137   70   71 1    
   138   70   72 1    
   139   70  191 1    
   140   71  192 1    
   141   71  193 1    
   142   71  194 1    
   143   72   73 2    
   144   72   74 am   BACKBONE|DICT|INTERRES
   145   74   75 1    
   146   74  195 1    
   147   75   76 1    
   148   75   77 1    
   149   75  196 1    
   150   76  197 1    
   151   76  198 1    
   152   76  199 1    
   153   77   78 2    
   154   77   79 am   BACKBONE|DICT|INTERRES
   155   79   80 1    
   156   79  200 1    
   157   80   81 1    
   158   80   82 1    
   159   80  201 1    
   160   81  202 1    
   161   81  203 1    
   162   81  204 1    
   163   82   83 2    
   164   82   84 am   BACKBONE|DICT|INTERRES
   165   84   85 1    
   166   84  205 1    
   167   85   86 1    
   168   85   87 1    
   169   85  206 1    
   170   86  207 1    
   171   86  208 1    
   172   86  209 1    
   173   87   88 2    
   174   87   89 am   BACKBONE|DICT|INTERRES
   175   89   90 1    
   176   89  210 1    
   177   90   91 1    
   178   90   92 1    
   179   90  211 1    
   180   91  212 1    
   181   91  213 1    
   182   91  214 1    
   183   92   93 2    
   184   92   94 am   BACKBONE|DICT|INTERRES
   185   94   95 1    
   186   94  215 1    
   187   95   96 1    
   188   95   97 1    
   189   95  216 1    
   190   96  217 1    
   191   96  218 1    
   192   96  219 1    
   193   97   98 2    
   194   97   99 am   BACKBONE|DICT|INTERRES
   195   99  100 1    
   196   99  220 1    
   197  100  101 1    
   198  100  102 1    
   199  100  221 1    
   200  101  222 1    
   201  101  223 1    
   202  101  224 1    
   203  102  103 2    
   204  102  104 am   BACKBONE|DICT|INTERRES
   205  104  105 1    
   206  104  225 1    
   207  105  106 1    
   208  105  107 1    
   209  105  226 1    
   210  106  227 1    
   211  106  228 1    
   212  106  229 1    
   213  107  108 2    
   214  107  109 am   BACKBONE|DICT|INTERRES
   215  109  110 1    
   216  109  230 1    
   217  110  111 1    
   218  110  112 1    
   219  110  231 1    
   220  111  232 1    
   221  111  233 1    
   222  111  234 1    
   223  112  113 2    
   224  112  114 am   BACKBONE|DICT|INTERRES
   225  114  115 1    
   226  114  235 1    
   227  115  116 1    
   228  115  117 1    
   229  115  236 1    
   230  116  237 1    
   231  116  238 1    
   232  116  239 1    
   233  117  118 2    
   234  117  119 am   BACKBONE|DICT|INTERRES
   235  119  120 1    
   236  119  240 1    
   237  120  121 1    
   238  120  124 1    
   239  120  241 1    
   240  121  122 am   BACKBONE|DICT|INTERRES
   241  121  123 2    
   242  122  242 1    
   243  122  243 1    
   244  124  125 1    
   245  124  244 1    
   246  124  245 1    
   247  125  126 1    
   248  126  246 1    
   249  126  247 1    
@<TRIPOS>SUBSTRUCTURE
     1 UNK         1 GROUP             0       ****    0 ROOT    
