@<TRIPOS>MOLECULE
3R540
247   249    1
SMALL
USER_CHARGES


@<TRIPOS>ATOM
      1 CA          4.0624  -12.8668  -45.8631 C.3       0 UNK        -0.1800 
      2 C           2.6798  -13.1655  -46.4233 C.2       0 UNK         0.5000 
      3 O           1.7192  -13.2695  -45.6602 O.2       0 UNK        -0.5000 
      4 N           2.5806  -13.2947  -47.7526 N.am      1 UNK        -0.5000 
      5 CA          1.3567  -13.6077  -48.5012 C.3       1 UNK         0.1400 
      6 C6          1.6375  -13.7931  -50.0127 C.3       23 UNK        -0.0398 
      7 S7          2.8143  -15.1446  -50.3618 S.3       23 UNK        -0.2404 
      8 C8          1.8312  -16.2286  -51.4450 C.3       23 UNK        -0.0205 
      9 C9          1.0023  -17.2287  -50.6542 C.ar      23 UNK        -0.0193 
     10 C10        -0.2240  -16.8537  -50.0939 C.ar      23 UNK        -0.1150 
     11 C11        -0.9955  -17.7853  -49.3943 C.ar      23 UNK        -0.0193 
     12 C12        -0.5336  -19.0952  -49.2584 C.ar      23 UNK        -0.1150 
     13 C13         0.6829  -19.4847  -49.8187 C.ar      23 UNK        -0.0193 
     14 C14         1.4515  -18.5459  -50.5107 C.ar      23 UNK        -0.1150 
     15 C15         1.1527  -20.9204  -49.6685 C.3       23 UNK        -0.0205 
     16 S16         1.9229  -21.1680  -48.0452 S.3       23 UNK        -0.2404 
     17 C17         1.8603  -22.9773  -47.8855 C.3       23 UNK        -0.0398 
     18 CA          0.7715  -23.5145  -46.9238 C.3       11 UNK         0.1400 
     19 N           0.8785  -23.0001  -45.5523 N.am      11 UNK        -0.5000 
     20 C           0.3556  -23.6409  -44.4954 C.2       10 UNK         0.5000 
     21 O          -0.2508  -24.7090  -44.5846 O.2       10 UNK        -0.5000 
     22 CA          0.4965  -22.9773  -43.1151 C.3       10 UNK         0.1400 
     23 CB          1.9310  -23.1101  -42.5823 C.3       10 UNK        -0.1800 
     24 N           0.0836  -21.5749  -43.1102 N.am      10 UNK        -0.5000 
     25 C          -1.1641  -21.1510  -43.3584 C.2       9 UNK         0.5000 
     26 O          -2.1032  -21.9052  -43.6078 O.2       9 UNK        -0.5000 
     27 CA         -1.4018  -19.6296  -43.3691 C.3       9 UNK         0.1400 
     28 CB         -1.6157  -19.0973  -41.9451 C.3       9 UNK        -0.1800 
     29 N          -0.3154  -18.8920  -44.0098 N.am      9 UNK        -0.5000 
     30 C           0.0492  -19.0358  -45.2907 C.2       8 UNK         0.5000 
     31 O          -0.5258  -19.7825  -46.0803 O.2       8 UNK        -0.5000 
     32 CA          1.2961  -18.2550  -45.7396 C.3       8 UNK         0.1400 
     33 CB          0.9533  -16.7918  -46.0631 C.3       8 UNK        -0.1800 
     34 N           2.3594  -18.3067  -44.7345 N.am      8 UNK        -0.5000 
     35 C           3.0370  -19.4146  -44.3970 C.2       7 UNK         0.5000 
     36 O           2.8612  -20.5170  -44.9153 O.2       7 UNK        -0.5000 
     37 CA          4.0575  -19.2727  -43.2526 C.3       7 UNK         0.1400 
     38 CB          5.3543  -18.6201  -43.7554 C.3       7 UNK        -0.1800 
     39 N           3.5316  -18.5031  -42.1245 N.am      7 UNK        -0.5000 
     40 C           2.5219  -18.9047  -41.3392 C.2       6 UNK         0.5000 
     41 O           1.9571  -19.9913  -41.4544 O.2       6 UNK        -0.5000 
     42 CA          2.0272  -17.9042  -40.2759 C.3       6 UNK         0.1400 
     43 CB          2.8326  -18.0574  -38.9772 C.3       6 UNK        -0.1800 
     44 N           2.0668  -16.5030  -40.7093 N.am      6 UNK        -0.5000 
     45 C           1.4446  -16.0169  -41.7917 C.2       5 UNK         0.5000 
     46 O           0.8033  -16.7166  -42.5780 O.2       5 UNK        -0.5000 
     47 CA          1.6221  -14.5116  -42.0626 C.3       5 UNK         0.1400 
     48 CB          3.0376  -14.2306  -42.5906 C.3       5 UNK        -0.1800 
     49 N           0.6598  -13.9981  -43.0362 N.am      5 UNK        -0.5000 
     50 C          -0.6666  -13.9220  -42.8592 C.2       4 UNK         0.5000 
     51 O          -1.2434  -14.2409  -41.8170 O.2       4 UNK        -0.5000 
     52 CA         -1.4567  -13.3451  -44.0519 C.3       4 UNK         0.1400 
     53 CB         -2.9593  -13.1468  -43.7634 C.3       4 UNK        -0.1800 
     54 N          -0.8401  -12.1103  -44.5451 N.am      4 UNK        -0.5000 
     55 C          -0.6482  -10.9675  -43.8667 C.2       3 UNK         0.5000 
     56 O          -1.1071  -10.7405  -42.7467 O.2       3 UNK        -0.5000 
     57 CA          0.2399   -9.9023  -44.5375 C.3       3 UNK         0.1400 
     58 CB          1.6431   -9.9147  -43.9099 C.3       3 UNK        -0.1800 
     59 N           0.3723  -10.0974  -45.9812 N.am      3 UNK        -0.5000 
     60 C          -0.5559   -9.7576  -46.8853 C.2       2 UNK         0.5000 
     61 O          -1.6153   -9.1973  -46.6026 O.2       2 UNK        -0.5000 
     62 CA         -0.2487  -10.1092  -48.3523 C.3       2 UNK         0.1400 
     63 CB          0.3808   -8.9071  -49.0727 C.3       2 UNK        -0.1800 
     64 N           0.6415  -11.2653  -48.4865 N.am      2 UNK        -0.5000 
     65 C           0.2645  -12.5385  -48.2994 C.2       1 UNK         0.5000 
     66 O          -0.8713  -12.8769  -47.9666 O.2       1 UNK        -0.5000 
     67 C          -0.6641  -23.4126  -47.4876 C.2       11 UNK         0.5000 
     68 O          -1.0517  -24.2676  -48.2858 O.2       11 UNK        -0.5000 
     69 N          -1.4534  -22.4278  -47.0299 N.am      12 UNK        -0.5000 
     70 CA         -2.8912  -22.3431  -47.2958 C.3       12 UNK         0.1400 
     71 CB         -3.4448  -20.9852  -46.8401 C.3       12 UNK        -0.1800 
     72 C          -3.6725  -23.4999  -46.6473 C.2       12 UNK         0.5000 
     73 O          -4.4655  -24.1464  -47.3313 O.2       12 UNK        -0.5000 
     74 N          -3.4054  -23.7748  -45.3617 N.am      13 UNK        -0.5000 
     75 CA         -4.0068  -24.8733  -44.5977 C.3       13 UNK         0.1400 
     76 CB         -3.6080  -24.7535  -43.1193 C.3       13 UNK        -0.1800 
     77 C          -3.6441  -26.2664  -45.1460 C.2       13 UNK         0.5000 
     78 O          -4.4854  -27.1654  -45.1284 O.2       13 UNK        -0.5000 
     79 N          -2.4158  -26.4072  -45.6621 N.am      14 UNK        -0.5000 
     80 CA         -1.9262  -27.5995  -46.3582 C.3       14 UNK         0.1400 
     81 CB         -0.3921  -27.5344  -46.4249 C.3       14 UNK        -0.1800 
     82 C          -2.5125  -27.7772  -47.7761 C.2       14 UNK         0.5000 
     83 O          -2.2884  -28.8242  -48.3844 O.2       14 UNK        -0.5000 
     84 N          -3.2189  -26.7552  -48.2858 N.am      15 UNK        -0.5000 
     85 CA         -3.8032  -26.6407  -49.6272 C.3       15 UNK         0.1400 
     86 CB         -4.8576  -27.7381  -49.8793 C.3       15 UNK        -0.1800 
     87 C          -2.7527  -26.5491  -50.7544 C.2       15 UNK         0.5000 
     88 O          -3.0864  -26.7578  -51.9215 O.2       15 UNK        -0.5000 
     89 N          -1.5119  -26.1891  -50.3993 N.am      16 UNK        -0.5000 
     90 CA         -0.3985  -25.9712  -51.3230 C.3       16 UNK         0.1400 
     91 CB          0.9228  -26.0993  -50.5508 C.3       16 UNK        -0.1800 
     92 C          -0.4950  -24.6168  -52.0520 C.2       16 UNK         0.5000 
     93 O           0.1373  -24.4467  -53.0945 O.2       16 UNK        -0.5000 
     94 N          -1.3084  -23.6940  -51.5142 N.am      17 UNK        -0.5000 
     95 CA         -1.7051  -22.4367  -52.1542 C.3       17 UNK         0.1400 
     96 CB         -2.5491  -21.6226  -51.1633 C.3       17 UNK        -0.1800 
     97 C          -2.4904  -22.6540  -53.4647 C.2       17 UNK         0.5000 
     98 O          -2.3311  -21.8738  -54.4037 O.2       17 UNK        -0.5000 
     99 N          -3.2971  -23.7271  -53.4969 N.am      18 UNK        -0.5000 
    100 CA        -4.0931  -24.2732  -54.6030 C.3       18 UNK         0.1400 
    101 CB        -3.1841  -24.7420  -55.7549 C.3       18 UNK        -0.1800 
    102 C         -5.2240  -23.3621  -55.1216 C.2       18 UNK         0.5000 
    103 O         -6.3708  -23.8059  -55.1958 O.2       18 UNK        -0.5000 
    104 N         -4.8883  -22.1235  -55.4922 N.am      19 UNK        -0.5000 
    105 CA        -5.8074  -21.1245  -56.0286 C.3       19 UNK         0.1400 
    106 CB        -4.9893  -20.0505  -56.7626 C.3       19 UNK        -0.1800 
    107 C         -6.6553  -20.4757  -54.9228 C.2       19 UNK         0.5000 
    108 O         -6.1796  -20.3061  -53.7977 O.2       19 UNK        -0.5000 
    109 N         -7.8710  -20.0454  -55.2868 N.am      20 UNK        -0.5000 
    110 CA        -8.7864  -19.2901  -54.4216 C.3       20 UNK         0.1400 
    111 CB       -10.1608  -19.2007  -55.1021 C.3       20 UNK        -0.1800 
    112 C         -8.2655  -17.8812  -54.0666 C.2       20 UNK         0.5000 
    113 O         -8.6412  -17.3335  -53.0302 O.2       20 UNK        -0.5000 
    114 N         -7.3816  -17.3405  -54.9166 N.am      21 UNK        -0.5000 
    115 CA        -6.6375  -16.0976  -54.7030 C.3       21 UNK         0.1400 
    116 CB        -6.1771  -15.5707  -56.0725 C.3       21 UNK        -0.1800 
    117 C         -5.4331  -16.2592  -53.7472 C.2       21 UNK         0.5000 
    118 O         -4.7584  -15.2680  -53.4644 O.2       21 UNK        -0.5000 
    119 N         -5.1804  -17.4870  -53.2719 N.am      22 UNK        -0.5000 
    120 CA        -4.0309  -17.9008  -52.4558 C.3       22 UNK         0.1400 
    121 C         -2.7064  -18.0062  -53.2715 C.2       22 UNK         0.5000 
    122 N         -1.5927  -18.3268  -52.6301 N.am      22 UNK        -0.7600 
    123 O         -2.6731  -17.8324  -54.4881 O.2       22 UNK        -0.5000 
    124 C124       -3.9022  -17.0908  -51.1269 C.3       23 UNK        -0.0398 
    125 S125       -3.7246  -18.1610  -49.6597 S.3       23 UNK        -0.2404 
    126 C126       -2.3276  -17.3921  -48.7801 C.3       23 UNK        -0.0205 
    127 H127        4.0105  -12.0532  -45.1402 H         1 UNK         0.0600 
    128 H128        4.4612  -13.7472  -45.3604 H         1 UNK         0.0600 
    129 H129        4.7614  -12.5771  -46.6478 H         1 UNK         0.0600 
    130 H130        3.4173  -13.2195  -48.3135 H         1 UNK         0.3000 
    131 H131        0.9647  -14.5488  -48.1104 H         1 UNK         0.0600 
    132 H132        2.0545  -12.8792  -50.4395 H         1 UNK         0.0800 
    133 H133        0.7075  -13.9698  -50.5541 H         1 UNK         0.0800 
    134 H134        2.5163  -16.7593  -52.1079 H         1 UNK         0.0800 
    135 H135        1.1882  -15.6381  -52.0993 H         1 UNK         0.0800 
    136 H136       -0.5844  -15.8424  -50.2100 H         1 UNK         0.1150 
    137 H137       -1.1208  -19.8165  -48.7091 H         1 UNK         0.1150 
    138 H138        2.3970  -18.8427  -50.9423 H         1 UNK         0.1150 
    139 H139        0.3046  -21.5958  -49.7816 H         1 UNK         0.0800 
    140 H140        1.8638  -21.1806  -50.4539 H         1 UNK         0.0800 
    141 H141        1.7603  -23.4241  -48.8747 H         1 UNK         0.0800 
    142 H142        2.8379  -23.2982  -47.5238 H         1 UNK         0.0800 
    143 H143        0.9690  -24.5863  -46.8597 H         1 UNK         0.0600 
    144 H144        1.3594  -22.1159  -45.4255 H         1 UNK         0.3000 
    145 H145       -0.1620  -23.5133  -42.4283 H         1 UNK         0.0600 
    146 H146        2.0036  -22.7503  -41.5559 H         1 UNK         0.0600 
    147 H147        2.2534  -24.1520  -42.5834 H         1 UNK         0.0600 
    148 H148        2.6422  -22.5457  -43.1850 H         1 UNK         0.0600 
    149 H149        0.7930  -20.8935  -42.8620 H         1 UNK         0.3000 
    150 H150       -2.3109  -19.4384  -43.9424 H         1 UNK         0.0600 
    151 H151       -2.4671  -19.5866  -41.4705 H         1 UNK         0.0600 
    152 H152       -1.8147  -18.0252  -41.9491 H         1 UNK         0.0600 
    153 H153       -0.7438  -19.2736  -41.3159 H         1 UNK         0.0600 
    154 H154        0.1842  -18.2154  -43.4362 H         1 UNK         0.3000 
    155 H155        1.6715  -18.7128  -46.6547 H         1 UNK         0.0600 
    156 H156        1.8269  -16.2584  -46.4374 H         1 UNK         0.0600 
    157 H157        0.5808  -16.2539  -45.1914 H         1 UNK         0.0600 
    158 H158        0.1850  -16.7356  -46.8348 H         1 UNK         0.0600 
    159 H159        2.5131  -17.4645  -44.2009 H         1 UNK         0.3000 
    160 H160        4.2979  -20.2763  -42.8948 H         1 UNK         0.0600 
    161 H161        5.1877  -17.5976  -44.0968 H         1 UNK         0.0600 
    162 H162        5.7736  -19.1812  -44.5917 H         1 UNK         0.0600 
    163 H163        6.1114  -18.5931  -42.9715 H         1 UNK         0.0600 
    164 H164        3.9374  -17.5943  -41.9589 H         1 UNK         0.3000 
    165 H165        0.9857  -18.1475  -40.0583 H         1 UNK         0.0600 
    166 H166        3.8801  -17.7881  -39.1183 H         1 UNK         0.0600 
    167 H167        2.4272  -17.4286  -38.1843 H         1 UNK         0.0600 
    168 H168        2.8038  -19.0875  -38.6192 H         1 UNK         0.0600 
    169 H169        2.5872  -15.8689  -40.1203 H         1 UNK         0.3000 
    170 H170        1.4763  -13.9719  -41.1250 H         1 UNK         0.0600 
    171 H171        3.7983  -14.5202  -41.8649 H         1 UNK         0.0600 
    172 H172        3.2346  -14.7811  -43.5112 H         1 UNK         0.0600 
    173 H173        3.1779  -13.1695  -42.7982 H         1 UNK         0.0600 
    174 H174        1.0372  -13.7254  -43.9402 H         1 UNK         0.3000 
    175 H175       -1.3694  -14.0741  -44.8592 H         1 UNK         0.0600 
    176 H176       -3.4768  -12.7453  -44.6347 H         1 UNK         0.0600 
    177 H177       -3.4338  -14.0961  -43.5123 H         1 UNK         0.0600 
    178 H178       -3.1301  -12.4670  -42.9285 H         1 UNK         0.0600 
    179 H179       -0.3759  -12.1967  -45.4397 H         1 UNK         0.3000 
    180 H180       -0.2110   -8.9251  -44.3518 H         1 UNK         0.0600 
    181 H181        2.2841   -9.1539  -44.3555 H         1 UNK         0.0600 
    182 H182        1.5932   -9.7105  -42.8395 H         1 UNK         0.0600 
    183 H183        2.1299  -10.8825  -44.0342 H         1 UNK         0.0600 
    184 H184        1.2068  -10.5651  -46.3018 H         1 UNK         0.3000 
    185 H185       -1.1970  -10.3415  -48.8422 H         1 UNK         0.0600 
    186 H186        0.5419   -9.1205  -50.1296 H         1 UNK         0.0600 
    187 H187       -0.2692   -8.0329  -49.0147 H         1 UNK         0.0600 
    188 H188        1.3410   -8.6315  -48.6347 H         1 UNK         0.0600 
    189 H189        1.5994  -11.0729  -48.7419 H         1 UNK         0.3000 
    190 H190       -1.0554  -21.7078  -46.4345 H         1 UNK         0.3000 
    191 H191       -3.0378  -22.4167  -48.3739 H         1 UNK         0.0600 
    192 H192       -4.5121  -20.9085  -47.0503 H         1 UNK         0.0600 
    193 H193       -2.9558  -20.1637  -47.3603 H         1 UNK         0.0600 
    194 H194       -3.3086  -20.8293  -45.7707 H         1 UNK         0.0600 
    195 H195       -2.7680  -23.1692  -44.8500 H         1 UNK         0.3000 
    196 H196       -5.0914  -24.7673  -44.6653 H         1 UNK         0.0600 
    197 H197       -4.0489  -25.5567  -42.5276 H         1 UNK         0.0600 
    198 H198       -3.9523  -23.8107  -42.6941 H         1 UNK         0.0600 
    199 H199       -2.5265  -24.8038  -42.9891 H         1 UNK         0.0600 
    200 H200       -1.7579  -25.6417  -45.5532 H         1 UNK         0.3000 
    201 H201       -2.2067  -28.4784  -45.7744 H         1 UNK         0.0600 
    202 H202        0.0442  -27.4206  -45.4324 H         1 UNK         0.0600 
    203 H203       -0.0546  -26.7003  -47.0397 H         1 UNK         0.0600 
    204 H204        0.0207  -28.4465  -46.8577 H         1 UNK         0.0600 
    205 H205       -3.3501  -25.9383  -47.7010 H         1 UNK         0.3000 
    206 H206       -4.3264  -25.6838  -49.6378 H         1 UNK         0.0600 
    207 H207       -5.5831  -27.7813  -49.0670 H         1 UNK         0.0600 
    208 H208       -5.4124  -27.5429  -50.7977 H         1 UNK         0.0600 
    209 H209       -4.4040  -28.7244  -49.9788 H         1 UNK         0.0600 
    210 H210       -1.3466  -25.9334  -49.4319 H         1 UNK         0.3000 
    211 H211       -0.4204  -26.7520  -52.0862 H         1 UNK         0.0600 
    212 H212        0.9761  -25.3918  -49.7256 H         1 UNK         0.0600 
    213 H213        1.7792  -25.9162  -51.2011 H         1 UNK         0.0600 
    214 H214        1.0375  -27.1009  -50.1360 H         1 UNK         0.0600 
    215 H215       -1.7318  -23.9086  -50.6222 H         1 UNK         0.3000 
    216 H216       -0.8003  -21.8723  -52.3897 H         1 UNK         0.0600 
    217 H217       -2.8356  -20.6651  -51.5940 H         1 UNK         0.0600 
    218 H218       -1.9967  -21.4122  -50.2500 H         1 UNK         0.0600 
    219 H219       -3.4668  -22.1436  -50.8881 H         1 UNK         0.0600 
    220 H220       -3.3314  -24.2860  -52.6564 H         1 UNK         0.3000 
    221 H221       -4.5765  -25.1628  -54.1955 H         1 UNK         0.0600 
    222 H222       -2.6443  -23.9131  -56.2135 H         1 UNK         0.0600 
    223 H223       -2.4485  -25.4659  -55.4036 H         1 UNK         0.0600 
    224 H224       -3.7674  -25.2253  -56.5396 H         1 UNK         0.0600 
    225 H225       -3.9321  -21.8265  -55.3124 H         1 UNK         0.3000 
    226 H226       -6.4716  -21.6100  -56.7469 H         1 UNK         0.0600 
    227 H227       -5.6378  -19.2983  -57.2130 H         1 UNK         0.0600 
    228 H228       -4.3066  -19.5339  -56.0860 H         1 UNK         0.0600 
    229 H229       -4.3954  -20.4879  -57.5654 H         1 UNK         0.0600 
    230 H230       -8.1894  -20.2176  -56.2300 H         1 UNK         0.3000 
    231 H231       -8.9014  -19.8423  -53.4865 H         1 UNK         0.0600 
    232 H232      -10.8747  -18.6683  -54.4721 H         1 UNK         0.0600 
    233 H233      -10.5732  -20.1921  -55.2908 H         1 UNK         0.0600 
    234 H234      -10.1054  -18.6718  -56.0544 H         1 UNK         0.0600 
    235 H235       -7.1459  -17.8633  -55.7466 H         1 UNK         0.3000 
    236 H236       -7.3078  -15.3585  -54.2595 H         1 UNK         0.0600 
    237 H237       -5.4876  -16.2631  -56.5573 H         1 UNK         0.0600 
    238 H238       -7.0239  -15.4145  -56.7411 H         1 UNK         0.0600 
    239 H239       -5.6643  -14.6132  -55.9731 H         1 UNK         0.0600 
    240 H240       -5.7714  -18.2515  -53.5739 H         1 UNK         0.3000 
    241 H241       -4.2786  -18.9326  -52.2078 H         1 UNK         0.0600 
    242 H242       -0.7396  -18.4075  -53.1589 H         1 UNK         0.3800 
    243 H243       -1.5719  -18.4504  -51.6290 H         1 UNK         0.3800 
    244 H244       -4.7998  -16.4976  -50.9487 H         1 UNK         0.0800 
    245 H245       -3.0891  -16.3649  -51.1784 H         1 UNK         0.0800 
    246 H246       -2.4507  -16.3081  -48.7595 H         1 UNK         0.0800 
    247 H247       -2.3440  -17.7201  -47.7395 H         1 UNK         0.0800 
@<TRIPOS>BOND
     1    1    2 1    
     2    1  127 1    
     3    1  128 1    
     4    1  129 1    
     5    2    3 2    
     6    2    4 am   BACKBONE|DICT|INTERRES
     7    4    5 1    
     8    4  130 1    
     9    5    6 1    
    10    5   65 1    
    11    5  131 1    
    12    6    7 1    
    13    6  132 1    
    14    6  133 1    
    15    7    8 1    
    16    8    9 1    
    17    8  134 1    
    18    8  135 1    
    19    9   10 ar   
    20    9   14 ar   
    21   10   11 ar   
    22   10  136 1    
    23   11   12 ar   
    24   11  126 1    
    25   12   13 ar   
    26   12  137 1    
    27   13   14 ar   
    28   13   15 1    
    29   14  138 1    
    30   15   16 1    
    31   15  139 1    
    32   15  140 1    
    33   16   17 1    
    34   17   18 1    
    35   17  141 1    
    36   17  142 1    
    37   18   19 1    
    38   18   67 1    
    39   18  143 1    
    40   19   20 am   BACKBONE|DICT|INTERRES
    41   19  144 1    
    42   20   21 2    
    43   20   22 1    
    44   22   23 1    
    45   22   24 1    
    46   22  145 1    
    47   23  146 1    
    48   23  147 1    
    49   23  148 1    
    50   24   25 am   BACKBONE|DICT|INTERRES
    51   24  149 1    
    52   25   26 2    
    53   25   27 1    
    54   27   28 1    
    55   27   29 1    
    56   27  150 1    
    57   28  151 1    
    58   28  152 1    
    59   28  153 1    
    60   29   30 am   BACKBONE|DICT|INTERRES
    61   29  154 1    
    62   30   31 2    
    63   30   32 1    
    64   32   33 1    
    65   32   34 1    
    66   32  155 1    
    67   33  156 1    
    68   33  157 1    
    69   33  158 1    
    70   34   35 am   BACKBONE|DICT|INTERRES
    71   34  159 1    
    72   35   36 2    
    73   35   37 1    
    74   37   38 1    
    75   37   39 1    
    76   37  160 1    
    77   38  161 1    
    78   38  162 1    
    79   38  163 1    
    80   39   40 am   BACKBONE|DICT|INTERRES
    81   39  164 1    
    82   40   41 2    
    83   40   42 1    
    84   42   43 1    
    85   42   44 1    
    86   42  165 1    
    87   43  166 1    
    88   43  167 1    
    89   43  168 1    
    90   44   45 am   BACKBONE|DICT|INTERRES
    91   44  169 1    
    92   45   46 2    
    93   45   47 1    
    94   47   48 1    
    95   47   49 1    
    96   47  170 1    
    97   48  171 1    
    98   48  172 1    
    99   48  173 1    
   100   49   50 am   BACKBONE|DICT|INTERRES
   101   49  174 1    
   102   50   51 2    
   103   50   52 1    
   104   52   53 1    
   105   52   54 1    
   106   52  175 1    
   107   53  176 1    
   108   53  177 1    
   109   53  178 1    
   110   54   55 am   BACKBONE|DICT|INTERRES
   111   54  179 1    
   112   55   56 2    
   113   55   57 1    
   114   57   58 1    
   115   57   59 1    
   116   57  180 1    
   117   58  181 1    
   118   58  182 1    
   119   58  183 1    
   120   59   60 am   BACKBONE|DICT|INTERRES
   121   59  184 1    
   122   60   61 2    
   123   60   62 1    
   124   62   63 1    
   125   62   64 1    
   126   62  185 1    
   127   63  186 1    
   128   63  187 1    
   129   63  188 1    
   130   64   65 am   BACKBONE|DICT|INTERRES
   131   64  189 1    
   132   65   66 2    
   133   67   68 2    
   134   67   69 am   BACKBONE|DICT|INTERRES
   135   69   70 1    
   136   69  190 1    
   137   70   71 1    
   138   70   72 1    
   139   70  191 1    
   140   71  192 1    
   141   71  193 1    
   142   71  194 1    
   143   72   73 2    
   144   72   74 am   BACKBONE|DICT|INTERRES
   145   74   75 1    
   146   74  195 1    
   147   75   76 1    
   148   75   77 1    
   149   75  196 1    
   150   76  197 1    
   151   76  198 1    
   152   76  199 1    
   153   77   78 2    
   154   77   79 am   BACKBONE|DICT|INTERRES
   155   79   80 1    
   156   79  200 1    
   157   80   81 1    
   158   80   82 1    
   159   80  201 1    
   160   81  202 1    
   161   81  203 1    
   162   81  204 1    
   163   82   83 2    
   164   82   84 am   BACKBONE|DICT|INTERRES
   165   84   85 1    
   166   84  205 1    
   167   85   86 1    
   168   85   87 1    
   169   85  206 1    
   170   86  207 1    
   171   86  208 1    
   172   86  209 1    
   173   87   88 2    
   174   87   89 am   BACKBONE|DICT|INTERRES
   175   89   90 1    
   176   89  210 1    
   177   90   91 1    
   178   90   92 1    
   179   90  211 1    
   180   91  212 1    
   181   91  213 1    
   182   91  214 1    
   183   92   93 2    
   184   92   94 am   BACKBONE|DICT|INTERRES
   185   94   95 1    
   186   94  215 1    
   187   95   96 1    
   188   95   97 1    
   189   95  216 1    
   190   96  217 1    
   191   96  218 1    
   192   96  219 1    
   193   97   98 2    
   194   97   99 am   BACKBONE|DICT|INTERRES
   195   99  100 1    
   196   99  220 1    
   197  100  101 1    
   198  100  102 1    
   199  100  221 1    
   200  101  222 1    
   201  101  223 1    
   202  101  224 1    
   203  102  103 2    
   204  102  104 am   BACKBONE|DICT|INTERRES
   205  104  105 1    
   206  104  225 1    
   207  105  106 1    
   208  105  107 1    
   209  105  226 1    
   210  106  227 1    
   211  106  228 1    
   212  106  229 1    
   213  107  108 2    
   214  107  109 am   BACKBONE|DICT|INTERRES
   215  109  110 1    
   216  109  230 1    
   217  110  111 1    
   218  110  112 1    
   219  110  231 1    
   220  111  232 1    
   221  111  233 1    
   222  111  234 1    
   223  112  113 2    
   224  112  114 am   BACKBONE|DICT|INTERRES
   225  114  115 1    
   226  114  235 1    
   227  115  116 1    
   228  115  117 1    
   229  115  236 1    
   230  116  237 1    
   231  116  238 1    
   232  116  239 1    
   233  117  118 2    
   234  117  119 am   BACKBONE|DICT|INTERRES
   235  119  120 1    
   236  119  240 1    
   237  120  121 1    
   238  120  124 1    
   239  120  241 1    
   240  121  122 am   BACKBONE|DICT|INTERRES
   241  121  123 2    
   242  122  242 1    
   243  122  243 1    
   244  124  125 1    
   245  124  244 1    
   246  124  245 1    
   247  125  126 1    
   248  126  246 1    
   249  126  247 1    
@<TRIPOS>SUBSTRUCTURE
     1 UNK         1 GROUP             0       ****    0 ROOT    
