@<TRIPOS>MOLECULE
3R540
247   249    1
SMALL
USER_CHARGES


@<TRIPOS>ATOM
      1 CA          5.3966  -12.7028  -46.6630 C.3       0 UNK        -0.1800 
      2 C           4.4855  -13.9154  -46.5527 C.2       0 UNK         0.5000 
      3 O           3.8818  -14.1458  -45.5050 O.2       0 UNK        -0.5000 
      4 N           4.3797  -14.6884  -47.6413 N.am      1 UNK        -0.5000 
      5 CA          3.6255  -15.9469  -47.7126 C.3       1 UNK         0.1400 
      6 C6          4.0433  -16.7997  -48.9348 C.3       23 UNK        -0.0398 
      7 S7          3.6005  -16.0557  -50.5451 S.3       23 UNK        -0.2404 
      8 C8          3.3840  -17.5370  -51.5921 C.3       23 UNK        -0.0205 
      9 C9          2.3355  -18.5353  -51.1007 C.ar      23 UNK        -0.0193 
     10 C10         1.1491  -18.1195  -50.4836 C.ar      23 UNK        -0.1150 
     11 C11         0.1960  -19.0528  -50.0634 C.ar      23 UNK        -0.0193 
     12 C12         0.4354  -20.4145  -50.2637 C.ar      23 UNK        -0.1150 
     13 C13         1.6091  -20.8453  -50.8869 C.ar      23 UNK        -0.0193 
     14 C14         2.5527  -19.9020  -51.3017 C.ar      23 UNK        -0.1150 
     15 C15         1.8394  -22.3273  -51.1443 C.3       23 UNK        -0.0205 
     16 S16         3.1952  -23.0275  -50.1456 S.3       23 UNK        -0.2404 
     17 C17         2.6661  -22.7004  -48.4301 C.3       23 UNK        -0.0398 
     18 CA          1.7714  -23.8207  -47.8408 C.3       11 UNK         0.1400 
     19 N           1.9881  -23.9957  -46.4034 N.am      11 UNK        -0.5000 
     20 C           1.5650  -25.0457  -45.6866 C.2       10 UNK         0.5000 
     21 O           0.9760  -26.0131  -46.1693 O.2       10 UNK        -0.5000 
     22 CA          1.8102  -24.9812  -44.1672 C.3       10 UNK         0.1400 
     23 CB          3.2240  -25.4744  -43.8253 C.3       10 UNK        -0.1800 
     24 N           1.6194  -23.6351  -43.6207 N.am      10 UNK        -0.5000 
     25 C           0.4336  -23.0141  -43.5587 C.2       9 UNK         0.5000 
     26 O          -0.6215  -23.5215  -43.9348 O.2       9 UNK        -0.5000 
     27 CA          0.4258  -21.5674  -43.0326 C.3       9 UNK         0.1400 
     28 CB          0.3740  -21.5508  -41.4979 C.3       9 UNK        -0.1800 
     29 N           1.5468  -20.7395  -43.4874 N.am      9 UNK        -0.5000 
     30 C           1.9012  -20.5317  -44.7624 C.2       8 UNK         0.5000 
     31 O           1.3920  -21.1131  -45.7211 O.2       8 UNK        -0.5000 
     32 CA          2.9543  -19.4382  -45.0023 C.3       8 UNK         0.1400 
     33 CB          3.6505  -19.5907  -46.3663 C.3       8 UNK        -0.1800 
     34 N           2.2888  -18.1406  -44.9493 N.am      8 UNK        -0.5000 
     35 C           1.9932  -17.4706  -43.8311 C.2       7 UNK         0.5000 
     36 O           2.3721  -17.8012  -42.7040 O.2       7 UNK        -0.5000 
     37 CA          1.0717  -16.2605  -44.0067 C.3       7 UNK         0.1400 
     38 CB         -0.3961  -16.7087  -44.1518 C.3       7 UNK        -0.1800 
     39 N           1.2226  -15.3496  -42.8795 N.am      7 UNK        -0.5000 
     40 C           0.8779  -14.0604  -42.9191 C.2       6 UNK         0.5000 
     41 O           0.3530  -13.5308  -43.9000 O.2       6 UNK        -0.5000 
     42 CA          1.1972  -13.2155  -41.6773 C.3       6 UNK         0.1400 
     43 CB          2.5687  -12.5390  -41.8226 C.3       6 UNK        -0.1800 
     44 N           0.1758  -12.1845  -41.5160 N.am      6 UNK        -0.5000 
     45 C          -0.9307  -12.3274  -40.7755 C.2       5 UNK         0.5000 
     46 O          -1.1480  -13.3014  -40.0530 O.2       5 UNK        -0.5000 
     47 CA         -1.9783  -11.1995  -40.8486 C.3       5 UNK         0.1400 
     48 CB         -1.7745  -10.2002  -39.6994 C.3       5 UNK        -0.1800 
     49 N          -1.9593  -10.4730  -42.1183 N.am      5 UNK        -0.5000 
     50 C          -2.3802  -10.9647  -43.2912 C.2       4 UNK         0.5000 
     51 O          -2.8751  -12.0846  -43.4260 O.2       4 UNK        -0.5000 
     52 CA         -2.2387  -10.0503  -44.5249 C.3       4 UNK         0.1400 
     53 CB         -2.2370   -8.5426  -44.1857 C.3       4 UNK        -0.1800 
     54 N          -1.0706  -10.3948  -45.3387 N.am      4 UNK        -0.5000 
     55 C           0.2162  -10.4145  -44.9652 C.2       3 UNK         0.5000 
     56 O           0.6068  -10.1630  -43.8221 O.2       3 UNK        -0.5000 
     57 CA          1.2271  -10.7743  -46.0747 C.3       3 UNK         0.1400 
     58 CB          2.6856  -10.5199  -45.6585 C.3       3 UNK        -0.1800 
     59 N           1.0957  -12.1646  -46.5129 N.am      3 UNK        -0.5000 
     60 C           0.1447  -12.6382  -47.3299 C.2       2 UNK         0.5000 
     61 O          -0.7289  -11.9257  -47.8289 O.2       2 UNK        -0.5000 
     62 CA          0.2061  -14.1415  -47.6616 C.3       2 UNK         0.1400 
     63 CB         -0.6206  -14.5223  -48.9049 C.3       2 UNK        -0.1800 
     64 N           1.5978  -14.5497  -47.8404 N.am      2 UNK        -0.5000 
     65 C           2.0917  -15.7719  -47.6104 C.2       1 UNK         0.5000 
     66 O           1.4009  -16.7386  -47.2854 O.2       1 UNK        -0.5000 
     67 C           0.2818  -23.5635  -48.1305 C.2       11 UNK         0.5000 
     68 O          -0.2902  -24.2029  -49.0124 O.2       11 UNK        -0.5000 
     69 N          -0.3276  -22.6624  -47.3469 N.am      12 UNK        -0.5000 
     70 CA         -1.7484  -22.3281  -47.4021 C.3       12 UNK         0.1400 
     71 CB         -2.0480  -21.1786  -46.4294 C.3       12 UNK        -0.1800 
     72 C          -2.6503  -23.5422  -47.1256 C.2       12 UNK         0.5000 
     73 O          -3.6205  -23.7393  -47.8537 O.2       12 UNK        -0.5000 
     74 N          -2.2903  -24.3601  -46.1263 N.am      13 UNK        -0.5000 
     75 CA         -2.9621  -25.6185  -45.8012 C.3       13 UNK         0.1400 
     76 CB         -2.3975  -26.1885  -44.4914 C.3       13 UNK        -0.1800 
     77 C          -2.8663  -26.6565  -46.9336 C.2       13 UNK         0.5000 
     78 O          -3.8782  -27.2709  -47.2712 O.2       13 UNK        -0.5000 
     79 N          -1.6717  -26.8072  -47.5250 N.am      14 UNK        -0.5000 
     80 CA         -1.4153  -27.6995  -48.6597 C.3       14 UNK         0.1400 
     81 CB          0.0965  -27.7777  -48.9216 C.3       14 UNK        -0.1800 
     82 C          -2.1709  -27.2820  -49.9364 C.2       14 UNK         0.5000 
     83 O          -2.6881  -28.1426  -50.6492 O.2       14 UNK        -0.5000 
     84 N          -2.2480  -25.9680  -50.1805 N.am      15 UNK        -0.5000 
     85 CA         -2.9938  -25.3550  -51.2806 C.3       15 UNK         0.1400 
     86 CB         -2.4472  -23.9338  -51.4964 C.3       15 UNK        -0.1800 
     87 C          -4.5176  -25.3003  -51.0448 C.2       15 UNK         0.5000 
     88 O          -5.2536  -24.9478  -51.9688 O.2       15 UNK        -0.5000 
     89 N          -4.9573  -25.5753  -49.8058 N.am      16 UNK        -0.5000 
     90 CA         -6.3154  -25.3865  -49.2777 C.3       16 UNK         0.1400 
     91 CB         -7.2812  -26.4204  -49.8908 C.3       16 UNK        -0.1800 
     92 C          -6.8082  -23.9307  -49.4438 C.2       16 UNK         0.5000 
     93 O          -7.9876  -23.6986  -49.7170 O.2       16 UNK        -0.5000 
     94 N          -5.8615  -22.9849  -49.3449 N.am      17 UNK        -0.5000 
     95 CA         -5.8975  -21.5585  -49.6834 C.3       17 UNK         0.1400 
     96 CB         -6.8662  -20.7939  -48.7656 C.3       17 UNK        -0.1800 
     97 C          -6.1837  -21.2603  -51.1706 C.2       17 UNK         0.5000 
     98 O          -5.4915  -20.4344  -51.7671 O.2       17 UNK        -0.5000 
     99 N          -7.1955  -21.9277  -51.7352 N.am      18 UNK        -0.5000 
    100 CA        -7.7625  -21.7166  -53.0634 C.3       18 UNK         0.1400 
    101 CB        -8.9722  -22.6460  -53.2423 C.3       18 UNK        -0.1800 
    102 C         -6.7730  -21.8944  -54.2256 C.2       18 UNK         0.5000 
    103 O         -6.7976  -21.0822  -55.1504 O.2       18 UNK        -0.5000 
    104 N         -5.9098  -22.9208  -54.1673 N.am      19 UNK        -0.5000 
    105 CA        -4.9568  -23.2255  -55.2435 C.3       19 UNK         0.1400 
    106 CB        -4.3913  -24.6416  -55.0604 C.3       19 UNK        -0.1800 
    107 C         -3.8168  -22.1951  -55.3608 C.2       19 UNK         0.5000 
    108 O         -3.2447  -22.0458  -56.4409 O.2       19 UNK        -0.5000 
    109 N         -3.5247  -21.4951  -54.2578 N.am      20 UNK        -0.5000 
    110 CA        -2.5504  -20.4064  -54.1881 C.3       20 UNK         0.1400 
    111 CB        -1.7888  -20.5303  -52.8607 C.3       20 UNK        -0.1800 
    112 C         -3.2135  -19.0191  -54.3202 C.2       20 UNK         0.5000 
    113 O         -2.4991  -18.0196  -54.4010 O.2       20 UNK        -0.5000 
    114 N         -4.5560  -18.9829  -54.3404 N.am      21 UNK        -0.5000 
    115 CA        -5.4265  -17.8025  -54.3450 C.3       21 UNK         0.1400 
    116 CB        -5.2641  -16.9982  -55.6518 C.3       21 UNK        -0.1800 
    117 C         -5.2781  -16.9391  -53.0723 C.2       21 UNK         0.5000 
    118 O         -5.3841  -15.7128  -53.1398 O.2       21 UNK        -0.5000 
    119 N         -5.0445  -17.6006  -51.9322 N.am      22 UNK        -0.5000 
    120 CA        -4.8491  -16.9785  -50.6106 C.3       22 UNK         0.1400 
    121 C         -6.1656  -16.8069  -49.7979 C.2       22 UNK         0.5000 
    122 N         -7.3210  -17.2277  -50.2991 N.am      22 UNK        -0.7600 
    123 O         -6.1428  -16.2687  -48.6948 O.2       22 UNK        -0.5000 
    124 C124       -3.7674  -17.7217  -49.7822 C.3       23 UNK        -0.0398 
    125 S125       -2.1578  -17.7436  -50.6357 S.3       23 UNK        -0.2404 
    126 C126       -1.1032  -18.5906  -49.4204 C.3       23 UNK        -0.0205 
    127 H127        5.3246  -12.0817  -45.7701 H         1 UNK         0.0600 
    128 H128        6.4341  -13.0182  -46.7723 H         1 UNK         0.0600 
    129 H129        5.1266  -12.0944  -47.5262 H         1 UNK         0.0600 
    130 H130        4.8817  -14.4351  -48.4813 H         1 UNK         0.3000 
    131 H131        3.9107  -16.5162  -46.8260 H         1 UNK         0.0600 
    132 H132        3.5985  -17.7916  -48.8533 H         1 UNK         0.0800 
    133 H133        5.1214  -16.9650  -48.9204 H         1 UNK         0.0800 
    134 H134        3.1054  -17.2138  -52.5957 H         1 UNK         0.0800 
    135 H135        4.3544  -18.0274  -51.6853 H         1 UNK         0.0800 
    136 H136        0.9546  -17.0667  -50.3384 H         1 UNK         0.1150 
    137 H137       -0.3036  -21.1399  -49.9566 H         1 UNK         0.1150 
    138 H138        3.4569  -20.2381  -51.7896 H         1 UNK         0.1150 
    139 H139        0.9269  -22.8983  -50.9725 H         1 UNK         0.0800 
    140 H140        2.0796  -22.4662  -52.1993 H         1 UNK         0.0800 
    141 H141        3.5891  -22.6320  -47.8532 H         1 UNK         0.0800 
    142 H142        2.2091  -21.7131  -48.3451 H         1 UNK         0.0800 
    143 H143        2.0405  -24.7670  -48.3157 H         1 UNK         0.0600 
    144 H144        2.3777  -23.2051  -45.9105 H         1 UNK         0.3000 
    145 H145        1.0915  -25.6487  -43.6869 H         1 UNK         0.0600 
    146 H146        3.3801  -25.5064  -42.7469 H         1 UNK         0.0600 
    147 H147        3.3874  -26.4835  -44.2062 H         1 UNK         0.0600 
    148 H148        3.9920  -24.8318  -44.2575 H         1 UNK         0.0600 
    149 H149        2.4404  -23.1467  -43.2945 H         1 UNK         0.3000 
    150 H150       -0.4862  -21.0959  -43.4030 H         1 UNK         0.0600 
    151 H151       -0.4656  -22.1411  -41.1281 H         1 UNK         0.0600 
    152 H152        0.2479  -20.5365  -41.1185 H         1 UNK         0.0600 
    153 H153        1.2840  -21.9627  -41.0598 H         1 UNK         0.0600 
    154 H154        1.9961  -20.1741  -42.7791 H         1 UNK         0.3000 
    155 H155        3.7140  -19.5044  -44.2206 H         1 UNK         0.0600 
    156 H156        4.4383  -18.8486  -46.4910 H         1 UNK         0.0600 
    157 H157        2.9487  -19.4814  -47.1946 H         1 UNK         0.0600 
    158 H158        4.1175  -20.5718  -46.4574 H         1 UNK         0.0600 
    159 H159        1.8889  -17.8096  -45.8247 H         1 UNK         0.3000 
    160 H160        1.3825  -15.7291  -44.9048 H         1 UNK         0.0600 
    161 H161       -1.0575  -15.8615  -44.3332 H         1 UNK         0.0600 
    162 H162       -0.7474  -17.2228  -43.2564 H         1 UNK         0.0600 
    163 H163       -0.5159  -17.3925  -44.9934 H         1 UNK         0.0600 
    164 H164        1.6871  -15.7451  -42.0714 H         1 UNK         0.3000 
    165 H165        1.2236  -13.8651  -40.7997 H         1 UNK         0.0600 
    166 H166        2.8223  -11.9688  -40.9290 H         1 UNK         0.0600 
    167 H167        3.3570  -13.2775  -41.9743 H         1 UNK         0.0600 
    168 H168        2.5909  -11.8558  -42.6714 H         1 UNK         0.0600 
    169 H169        0.2360  -11.4004  -42.1573 H         1 UNK         0.3000 
    170 H170       -2.9631  -11.6567  -40.7316 H         1 UNK         0.0600 
    171 H171       -1.8103  -10.7041  -38.7327 H         1 UNK         0.0600 
    172 H172       -0.8099   -9.6959  -39.7713 H         1 UNK         0.0600 
    173 H173       -2.5537   -9.4378  -39.6962 H         1 UNK         0.0600 
    174 H174       -1.5363   -9.5561  -42.1101 H         1 UNK         0.3000 
    175 H175       -3.1139  -10.2416  -45.1477 H         1 UNK         0.0600 
    176 H176       -1.3481   -8.2390  -43.6321 H         1 UNK         0.0600 
    177 H177       -2.2762   -7.9421  -45.0946 H         1 UNK         0.0600 
    178 H178       -3.1087   -8.2747  -43.5873 H         1 UNK         0.0600 
    179 H179       -1.2712  -10.7050  -46.2840 H         1 UNK         0.3000 
    180 H180        1.0156  -10.1177  -46.9214 H         1 UNK         0.0600 
    181 H181        3.0154  -11.2215  -44.8925 H         1 UNK         0.0600 
    182 H182        2.8139   -9.5116  -45.2628 H         1 UNK         0.0600 
    183 H183        3.3540  -10.6149  -46.5133 H         1 UNK         0.0600 
    184 H184        1.7068  -12.8298  -46.0579 H         1 UNK         0.3000 
    185 H185       -0.2086  -14.6635  -46.7966 H         1 UNK         0.0600 
    186 H186       -1.6723  -14.2656  -48.7738 H         1 UNK         0.0600 
    187 H187       -0.2612  -14.0087  -49.7970 H         1 UNK         0.0600 
    188 H188       -0.5736  -15.5927  -49.0964 H         1 UNK         0.0600 
    189 H189        2.2410  -13.8163  -48.1041 H         1 UNK         0.3000 
    190 H190        0.2332  -22.1605  -46.6610 H         1 UNK         0.3000 
    191 H191       -1.9655  -21.9812  -48.4139 H         1 UNK         0.0600 
    192 H192       -3.0871  -20.8583  -46.5136 H         1 UNK         0.0600 
    193 H193       -1.4199  -20.3115  -46.6351 H         1 UNK         0.0600 
    194 H194       -1.8778  -21.4739  -45.3942 H         1 UNK         0.0600 
    195 H195       -1.5131  -24.0940  -45.5279 H         1 UNK         0.3000 
    196 H196       -4.0200  -25.3976  -45.6445 H         1 UNK         0.0600 
    197 H197       -2.8832  -27.1301  -44.2323 H         1 UNK         0.0600 
    198 H198       -2.5598  -25.5009  -43.6613 H         1 UNK         0.0600 
    199 H199       -1.3263  -26.3790  -44.5631 H         1 UNK         0.0600 
    200 H200       -0.8785  -26.2823  -47.1731 H         1 UNK         0.3000 
    201 H201       -1.7619  -28.6973  -48.3829 H         1 UNK         0.0600 
    202 H202        0.6285  -28.1524  -48.0470 H         1 UNK         0.0600 
    203 H203        0.5141  -26.8026  -49.1736 H         1 UNK         0.0600 
    204 H204        0.3155  -28.4530  -49.7496 H         1 UNK         0.0600 
    205 H205       -1.7263  -25.3335  -49.5805 H         1 UNK         0.3000 
    206 H206       -2.8213  -25.9352  -52.1891 H         1 UNK         0.0600 
    207 H207       -1.3857  -23.9527  -51.7435 H         1 UNK         0.0600 
    208 H208       -2.9614  -23.4320  -52.3146 H         1 UNK         0.0600 
    209 H209       -2.5717  -23.3159  -50.6063 H         1 UNK         0.0600 
    210 H210       -4.2620  -25.8264  -49.1153 H         1 UNK         0.3000 
    211 H211       -6.2581  -25.5728  -48.2044 H         1 UNK         0.0600 
    212 H212       -7.4271  -26.2544  -50.9586 H         1 UNK         0.0600 
    213 H213       -8.2610  -26.3712  -49.4147 H         1 UNK         0.0600 
    214 H214       -6.9065  -27.4352  -49.7571 H         1 UNK         0.0600 
    215 H215       -4.9505  -23.3143  -49.0302 H         1 UNK         0.3000 
    216 H216       -4.8916  -21.1874  -49.4812 H         1 UNK         0.0600 
    217 H217       -7.9013  -21.1011  -48.9173 H         1 UNK         0.0600 
    218 H218       -6.8137  -19.7214  -48.9521 H         1 UNK         0.0600 
    219 H219       -6.6198  -20.9525  -47.7157 H         1 UNK         0.0600 
    220 H220       -7.6738  -22.6034  -51.1436 H         1 UNK         0.3000 
    221 H221       -8.1204  -20.6857  -53.0974 H         1 UNK         0.0600 
    222 H222       -8.6863  -23.6957  -53.1613 H         1 UNK         0.0600 
    223 H223       -9.7353  -22.4487  -52.4892 H         1 UNK         0.0600 
    224 H224       -9.4359  -22.5042  -54.2194 H         1 UNK         0.0600 
    225 H225       -5.9170  -23.5458  -53.3666 H         1 UNK         0.3000 
    226 H226       -5.5057  -23.2103  -56.1876 H         1 UNK         0.0600 
    227 H227       -5.1884  -25.3777  -54.9542 H         1 UNK         0.0600 
    228 H228       -3.7912  -24.9334  -55.9231 H         1 UNK         0.0600 
    229 H229       -3.7498  -24.7104  -54.1835 H         1 UNK         0.0600 
    230 H230       -4.0678  -21.6652  -53.4225 H         1 UNK         0.3000 
    231 H231       -1.8257  -20.4963  -54.9998 H         1 UNK         0.0600 
    232 H232       -2.4602  -20.4732  -52.0031 H         1 UNK         0.0600 
    233 H233       -1.0523  -19.7323  -52.7582 H         1 UNK         0.0600 
    234 H234       -1.2474  -21.4743  -52.8020 H         1 UNK         0.0600 
    235 H235       -5.0432  -19.8674  -54.2912 H         1 UNK         0.3000 
    236 H236       -6.4470  -18.1873  -54.3259 H         1 UNK         0.0600 
    237 H237       -5.3818  -17.6393  -56.5255 H         1 UNK         0.0600 
    238 H238       -6.0175  -16.2131  -55.7231 H         1 UNK         0.0600 
    239 H239       -4.2870  -16.5187  -55.7156 H         1 UNK         0.0600 
    240 H240       -5.0139  -18.6165  -51.9552 H         1 UNK         0.3000 
    241 H241       -4.4806  -15.9625  -50.7643 H         1 UNK         0.0600 
    242 H242       -7.3567  -17.6566  -51.2091 H         1 UNK         0.3800 
    243 H243       -8.1682  -17.0995  -49.7685 H         1 UNK         0.3800 
    244 H244       -3.6250  -17.2435  -48.8115 H         1 UNK         0.0800 
    245 H245       -4.0768  -18.7490  -49.5845 H         1 UNK         0.0800 
    246 H246       -1.6455  -19.4409  -49.0058 H         1 UNK         0.0800 
    247 H247       -0.8841  -17.9227  -48.5862 H         1 UNK         0.0800 
@<TRIPOS>BOND
     1    1    2 1    
     2    1  127 1    
     3    1  128 1    
     4    1  129 1    
     5    2    3 2    
     6    2    4 am   BACKBONE|DICT|INTERRES
     7    4    5 1    
     8    4  130 1    
     9    5    6 1    
    10    5   65 1    
    11    5  131 1    
    12    6    7 1    
    13    6  132 1    
    14    6  133 1    
    15    7    8 1    
    16    8    9 1    
    17    8  134 1    
    18    8  135 1    
    19    9   10 ar   
    20    9   14 ar   
    21   10   11 ar   
    22   10  136 1    
    23   11   12 ar   
    24   11  126 1    
    25   12   13 ar   
    26   12  137 1    
    27   13   14 ar   
    28   13   15 1    
    29   14  138 1    
    30   15   16 1    
    31   15  139 1    
    32   15  140 1    
    33   16   17 1    
    34   17   18 1    
    35   17  141 1    
    36   17  142 1    
    37   18   19 1    
    38   18   67 1    
    39   18  143 1    
    40   19   20 am   BACKBONE|DICT|INTERRES
    41   19  144 1    
    42   20   21 2    
    43   20   22 1    
    44   22   23 1    
    45   22   24 1    
    46   22  145 1    
    47   23  146 1    
    48   23  147 1    
    49   23  148 1    
    50   24   25 am   BACKBONE|DICT|INTERRES
    51   24  149 1    
    52   25   26 2    
    53   25   27 1    
    54   27   28 1    
    55   27   29 1    
    56   27  150 1    
    57   28  151 1    
    58   28  152 1    
    59   28  153 1    
    60   29   30 am   BACKBONE|DICT|INTERRES
    61   29  154 1    
    62   30   31 2    
    63   30   32 1    
    64   32   33 1    
    65   32   34 1    
    66   32  155 1    
    67   33  156 1    
    68   33  157 1    
    69   33  158 1    
    70   34   35 am   BACKBONE|DICT|INTERRES
    71   34  159 1    
    72   35   36 2    
    73   35   37 1    
    74   37   38 1    
    75   37   39 1    
    76   37  160 1    
    77   38  161 1    
    78   38  162 1    
    79   38  163 1    
    80   39   40 am   BACKBONE|DICT|INTERRES
    81   39  164 1    
    82   40   41 2    
    83   40   42 1    
    84   42   43 1    
    85   42   44 1    
    86   42  165 1    
    87   43  166 1    
    88   43  167 1    
    89   43  168 1    
    90   44   45 am   BACKBONE|DICT|INTERRES
    91   44  169 1    
    92   45   46 2    
    93   45   47 1    
    94   47   48 1    
    95   47   49 1    
    96   47  170 1    
    97   48  171 1    
    98   48  172 1    
    99   48  173 1    
   100   49   50 am   BACKBONE|DICT|INTERRES
   101   49  174 1    
   102   50   51 2    
   103   50   52 1    
   104   52   53 1    
   105   52   54 1    
   106   52  175 1    
   107   53  176 1    
   108   53  177 1    
   109   53  178 1    
   110   54   55 am   BACKBONE|DICT|INTERRES
   111   54  179 1    
   112   55   56 2    
   113   55   57 1    
   114   57   58 1    
   115   57   59 1    
   116   57  180 1    
   117   58  181 1    
   118   58  182 1    
   119   58  183 1    
   120   59   60 am   BACKBONE|DICT|INTERRES
   121   59  184 1    
   122   60   61 2    
   123   60   62 1    
   124   62   63 1    
   125   62   64 1    
   126   62  185 1    
   127   63  186 1    
   128   63  187 1    
   129   63  188 1    
   130   64   65 am   BACKBONE|DICT|INTERRES
   131   64  189 1    
   132   65   66 2    
   133   67   68 2    
   134   67   69 am   BACKBONE|DICT|INTERRES
   135   69   70 1    
   136   69  190 1    
   137   70   71 1    
   138   70   72 1    
   139   70  191 1    
   140   71  192 1    
   141   71  193 1    
   142   71  194 1    
   143   72   73 2    
   144   72   74 am   BACKBONE|DICT|INTERRES
   145   74   75 1    
   146   74  195 1    
   147   75   76 1    
   148   75   77 1    
   149   75  196 1    
   150   76  197 1    
   151   76  198 1    
   152   76  199 1    
   153   77   78 2    
   154   77   79 am   BACKBONE|DICT|INTERRES
   155   79   80 1    
   156   79  200 1    
   157   80   81 1    
   158   80   82 1    
   159   80  201 1    
   160   81  202 1    
   161   81  203 1    
   162   81  204 1    
   163   82   83 2    
   164   82   84 am   BACKBONE|DICT|INTERRES
   165   84   85 1    
   166   84  205 1    
   167   85   86 1    
   168   85   87 1    
   169   85  206 1    
   170   86  207 1    
   171   86  208 1    
   172   86  209 1    
   173   87   88 2    
   174   87   89 am   BACKBONE|DICT|INTERRES
   175   89   90 1    
   176   89  210 1    
   177   90   91 1    
   178   90   92 1    
   179   90  211 1    
   180   91  212 1    
   181   91  213 1    
   182   91  214 1    
   183   92   93 2    
   184   92   94 am   BACKBONE|DICT|INTERRES
   185   94   95 1    
   186   94  215 1    
   187   95   96 1    
   188   95   97 1    
   189   95  216 1    
   190   96  217 1    
   191   96  218 1    
   192   96  219 1    
   193   97   98 2    
   194   97   99 am   BACKBONE|DICT|INTERRES
   195   99  100 1    
   196   99  220 1    
   197  100  101 1    
   198  100  102 1    
   199  100  221 1    
   200  101  222 1    
   201  101  223 1    
   202  101  224 1    
   203  102  103 2    
   204  102  104 am   BACKBONE|DICT|INTERRES
   205  104  105 1    
   206  104  225 1    
   207  105  106 1    
   208  105  107 1    
   209  105  226 1    
   210  106  227 1    
   211  106  228 1    
   212  106  229 1    
   213  107  108 2    
   214  107  109 am   BACKBONE|DICT|INTERRES
   215  109  110 1    
   216  109  230 1    
   217  110  111 1    
   218  110  112 1    
   219  110  231 1    
   220  111  232 1    
   221  111  233 1    
   222  111  234 1    
   223  112  113 2    
   224  112  114 am   BACKBONE|DICT|INTERRES
   225  114  115 1    
   226  114  235 1    
   227  115  116 1    
   228  115  117 1    
   229  115  236 1    
   230  116  237 1    
   231  116  238 1    
   232  116  239 1    
   233  117  118 2    
   234  117  119 am   BACKBONE|DICT|INTERRES
   235  119  120 1    
   236  119  240 1    
   237  120  121 1    
   238  120  124 1    
   239  120  241 1    
   240  121  122 am   BACKBONE|DICT|INTERRES
   241  121  123 2    
   242  122  242 1    
   243  122  243 1    
   244  124  125 1    
   245  124  244 1    
   246  124  245 1    
   247  125  126 1    
   248  126  246 1    
   249  126  247 1    
@<TRIPOS>SUBSTRUCTURE
     1 UNK         1 GROUP             0       ****    0 ROOT    
