@<TRIPOS>MOLECULE
3R540
247   249    1
SMALL
USER_CHARGES


@<TRIPOS>ATOM
      1 CA          7.2432  -10.7011  -47.9022 C.3       0 UNK        -0.1800 
      2 C           6.0964  -11.6654  -47.6331 C.2       0 UNK         0.5000 
      3 O           5.3113  -11.4411  -46.7118 O.2       0 UNK        -0.5000 
      4 N           6.0023  -12.7394  -48.4269 N.am      1 UNK        -0.5000 
      5 CA          4.9313  -13.7357  -48.3668 C.3       1 UNK         0.1400 
      6 C6          5.3396  -15.0351  -49.1035 C.3       23 UNK        -0.0398 
      7 S7          4.2181  -16.4383  -48.7743 S.3       23 UNK        -0.2404 
      8 C8          3.5560  -16.7298  -50.4433 C.3       23 UNK        -0.0205 
      9 C9          2.5392  -17.8601  -50.4563 C.ar      23 UNK        -0.0193 
     10 C10         1.1715  -17.5774  -50.5278 C.ar      23 UNK        -0.1150 
     11 C11         0.2315  -18.6130  -50.5618 C.ar      23 UNK        -0.0193 
     12 C12         0.6758  -19.9372  -50.5155 C.ar      23 UNK        -0.1150 
     13 C13         2.0390  -20.2369  -50.4560 C.ar      23 UNK        -0.0193 
     14 C14         2.9675  -19.1915  -50.4303 C.ar      23 UNK        -0.1150 
     15 C15         2.4912  -21.6939  -50.4553 C.3       23 UNK        -0.0205 
     16 S16         3.5648  -22.1454  -49.0501 S.3       23 UNK        -0.2404 
     17 C17         2.6187  -21.5637  -47.6041 C.3       23 UNK        -0.0398 
     18 CA          1.7297  -22.6453  -46.9415 C.3       11 UNK         0.1400 
     19 N           1.4643  -22.3120  -45.5397 N.am      11 UNK        -0.5000 
     20 C           0.8901  -23.1239  -44.6422 C.2       10 UNK         0.5000 
     21 O           0.5933  -24.2966  -44.8700 O.2       10 UNK        -0.5000 
     22 CA          0.5618  -22.5089  -43.2676 C.3       10 UNK         0.1400 
     23 CB          1.7875  -22.5519  -42.3430 C.3       10 UNK        -0.1800 
     24 N           0.0726  -21.1317  -43.3662 N.am      10 UNK        -0.5000 
     25 C          -1.0796  -20.7774  -43.9538 C.2       9 UNK         0.5000 
     26 O          -1.8820  -21.5863  -44.4211 O.2       9 UNK        -0.5000 
     27 CA         -1.3568  -19.2664  -44.0888 C.3       9 UNK         0.1400 
     28 CB         -1.9256  -18.6900  -42.7843 C.3       9 UNK        -0.1800 
     29 N          -0.1729  -18.5038  -44.4905 N.am      9 UNK        -0.5000 
     30 C           0.4832  -18.6777  -45.6470 C.2       8 UNK         0.5000 
     31 O           0.1400  -19.4780  -46.5098 O.2       8 UNK        -0.5000 
     32 CA          1.7721  -17.8725  -45.8568 C.3       8 UNK         0.1400 
     33 CB          1.4435  -16.4570  -46.3370 C.3       8 UNK        -0.1800 
     34 N           2.5785  -17.8198  -44.6388 N.am      8 UNK        -0.5000 
     35 C           3.2032  -18.8811  -44.1085 C.2       7 UNK         0.5000 
     36 O           3.1966  -20.0030  -44.6144 O.2       7 UNK        -0.5000 
     37 CA          3.9104  -18.6607  -42.7599 C.3       7 UNK         0.1400 
     38 CB          5.2959  -18.0316  -42.9693 C.3       7 UNK        -0.1800 
     39 N           3.1262  -17.8215  -41.8533 N.am      7 UNK        -0.5000 
     40 C           1.9432  -18.1722  -41.3284 C.2       6 UNK         0.5000 
     41 O           1.4103  -19.2661  -41.5138 O.2       6 UNK        -0.5000 
     42 CA          1.2141  -17.1002  -40.4967 C.3       6 UNK         0.1400 
     43 CB          1.6608  -17.1590  -39.0285 C.3       6 UNK        -0.1800 
     44 N           1.4116  -15.7417  -41.0127 N.am      6 UNK        -0.5000 
     45 C           0.9795  -15.3172  -42.2075 C.2       5 UNK         0.5000 
     46 O           0.3793  -16.0361  -43.0092 O.2       5 UNK        -0.5000 
     47 CA          1.3420  -13.8737  -42.5938 C.3       5 UNK         0.1400 
     48 CB          2.6215  -13.8571  -43.4454 C.3       5 UNK        -0.1800 
     49 N           0.2597  -13.2331  -43.3385 N.am      5 UNK        -0.5000 
     50 C          -0.8593  -12.7518  -42.7779 C.2       4 UNK         0.5000 
     51 O          -1.0706  -12.7722  -41.5641 O.2       4 UNK        -0.5000 
     52 CA         -1.9162  -12.1182  -43.7078 C.3       4 UNK         0.1400 
     53 CB         -1.7805  -10.5875  -43.7068 C.3       4 UNK        -0.1800 
     54 N          -1.8459  -12.5935  -45.0889 N.am      4 UNK        -0.5000 
     55 C          -2.1979  -13.8201  -45.4939 C.2       3 UNK         0.5000 
     56 O          -2.7117  -14.6581  -44.7524 O.2       3 UNK        -0.5000 
     57 CA         -1.9456  -14.1790  -46.9744 C.3       3 UNK         0.1400 
     58 CB         -3.2646  -14.0996  -47.7601 C.3       3 UNK        -0.1800 
     59 N          -0.9335  -13.3864  -47.6903 N.am      3 UNK        -0.5000 
     60 C           0.3331  -13.1711  -47.3120 C.2       2 UNK         0.5000 
     61 O           0.7771  -13.4352  -46.1929 O.2       2 UNK        -0.5000 
     62 CA          1.2680  -12.5434  -48.3514 C.3       2 UNK         0.1400 
     63 CB          1.2211  -11.0076  -48.2868 C.3       2 UNK        -0.1800 
     64 N           2.6134  -13.0168  -48.0551 N.am      2 UNK        -0.5000 
     65 C           3.6238  -13.1290  -48.9196 C.2       1 UNK         0.5000 
     66 O           3.5640  -12.7766  -50.0999 O.2       1 UNK        -0.5000 
     67 C           0.4140  -22.8637  -47.7215 C.2       11 UNK         0.5000 
     68 O           0.2647  -23.8717  -48.4118 O.2       11 UNK        -0.5000 
     69 N          -0.5263  -21.9229  -47.5658 N.am      12 UNK        -0.5000 
     70 CA         -1.8389  -21.8864  -48.2044 C.3       12 UNK         0.1400 
     71 CB         -2.5426  -20.5836  -47.8069 C.3       12 UNK        -0.1800 
     72 C          -2.7323  -23.0890  -47.8750 C.2       12 UNK         0.5000 
     73 O          -3.4560  -23.5614  -48.7534 O.2       12 UNK        -0.5000 
     74 N          -2.6490  -23.5772  -46.6304 N.am      13 UNK        -0.5000 
     75 CA         -3.3993  -24.7254  -46.1178 C.3       13 UNK         0.1400 
     76 CB         -3.0671  -24.9182  -44.6310 C.3       13 UNK        -0.1800 
     77 C          -3.1665  -26.0350  -46.8981 C.2       13 UNK         0.5000 
     78 O          -4.0641  -26.8769  -46.9367 O.2       13 UNK        -0.5000 
     79 N          -1.9981  -26.1686  -47.5438 N.am      14 UNK        -0.5000 
     80 CA         -1.6403  -27.3032  -48.3988 C.3       14 UNK         0.1400 
     81 CB         -0.1357  -27.2480  -48.7034 C.3       14 UNK        -0.1800 
     82 C          -2.4533  -27.3787  -49.7090 C.2       14 UNK         0.5000 
     83 O          -2.5147  -28.4516  -50.3107 O.2       14 UNK        -0.5000 
     84 N          -3.0669  -26.2614  -50.1221 N.am      15 UNK        -0.5000 
     85 CA         -3.9303  -26.1572  -51.2991 C.3       15 UNK         0.1400 
     86 CB         -3.1410  -25.5357  -52.4660 C.3       15 UNK        -0.1800 
     87 C          -5.2387  -25.4184  -50.9554 C.2       15 UNK         0.5000 
     88 O          -5.8059  -24.7293  -51.8053 O.2       15 UNK        -0.5000 
     89 N          -5.6933  -25.5826  -49.7016 N.am      16 UNK        -0.5000 
     90 CA         -6.9701  -25.1257  -49.1353 C.3       16 UNK         0.1400 
     91 CB         -8.1226  -25.9718  -49.7143 C.3       16 UNK        -0.1800 
     92 C          -7.2428  -23.6101  -49.2673 C.2       16 UNK         0.5000 
     93 O          -8.4047  -23.2006  -49.2979 O.2       16 UNK        -0.5000 
     94 N          -6.1750  -22.8073  -49.3741 N.am      17 UNK        -0.5000 
     95 CA         -6.1156  -21.3586  -49.6038 C.3       17 UNK         0.1400 
     96 CB         -6.7147  -20.5733  -48.4248 C.3       17 UNK        -0.1800 
     97 C          -6.6833  -20.8660  -50.9497 C.2       17 UNK         0.5000 
     98 O          -6.0971  -19.9598  -51.5460 O.2       17 UNK        -0.5000 
     99 N          -7.7914  -21.4550  -51.4103 N.am      18 UNK        -0.5000 
    100 CA        -8.4882  -21.1196  -52.6496 C.3       18 UNK         0.1400 
    101 CB        -9.8330  -21.8615  -52.6948 C.3       18 UNK        -0.1800 
    102 C         -7.6467  -21.4227  -53.8995 C.2       18 UNK         0.5000 
    103 O         -7.4492  -20.5330  -54.7274 O.2       18 UNK        -0.5000 
    104 N         -7.1274  -22.6557  -53.9935 N.am      19 UNK        -0.5000 
    105 CA        -6.2469  -23.0823  -55.0858 C.3       19 UNK         0.1400 
    106 CB        -6.2937  -24.6115  -55.2259 C.3       19 UNK        -0.1800 
    107 C         -4.8035  -22.5750  -54.9043 C.2       19 UNK         0.5000 
    108 O         -4.0646  -22.4854  -55.8851 O.2       19 UNK        -0.5000 
    109 N         -4.4402  -22.2182  -53.6640 N.am      20 UNK        -0.5000 
    110 CA        -3.1726  -21.5755  -53.3142 C.3       20 UNK         0.1400 
    111 CB        -2.9658  -21.6761  -51.7959 C.3       20 UNK        -0.1800 
    112 C         -3.1059  -20.0954  -53.7459 C.2       20 UNK         0.5000 
    113 O         -2.0084  -19.5458  -53.8259 O.2       20 UNK        -0.5000 
    114 N         -4.2758  -19.4824  -53.9830 N.am      21 UNK        -0.5000 
    115 CA        -4.5071  -18.0736  -54.3180 C.3       21 UNK         0.1400 
    116 CB        -3.7721  -17.6661  -55.6126 C.3       21 UNK        -0.1800 
    117 C         -4.2544  -17.1043  -53.1415 C.2       21 UNK         0.5000 
    118 O         -4.0106  -15.9183  -53.3709 O.2       21 UNK        -0.5000 
    119 N         -4.3628  -17.6109  -51.9064 N.am      22 UNK        -0.5000 
    120 CA        -4.4315  -16.8043  -50.6746 C.3       22 UNK         0.1400 
    121 C         -5.8991  -16.4889  -50.2621 C.2       22 UNK         0.5000 
    122 N         -6.8983  -17.2310  -50.7263 N.am      22 UNK        -0.7600 
    123 O         -6.1359  -15.5442  -49.5152 O.2       22 UNK        -0.5000 
    124 C124       -3.6693  -17.4784  -49.5032 C.3       23 UNK        -0.0398 
    125 S125       -1.8788  -17.1214  -49.4934 S.3       23 UNK        -0.2404 
    126 C126       -1.2577  -18.3220  -50.7093 C.3       23 UNK        -0.0205 
    127 H127        7.8795  -10.6195  -47.0209 H         1 UNK         0.0600 
    128 H128        6.8529   -9.7104  -48.1352 H         1 UNK         0.0600 
    129 H129        7.8612  -11.0284  -48.7387 H         1 UNK         0.0600 
    130 H130        6.6616  -12.8498  -49.1841 H         1 UNK         0.3000 
    131 H131        4.7816  -13.9903  -47.3147 H         1 UNK         0.0600 
    132 H132        6.3318  -15.3442  -48.7717 H         1 UNK         0.0800 
    133 H133        5.4291  -14.8620  -50.1776 H         1 UNK         0.0800 
    134 H134        3.1054  -15.8091  -50.8181 H         1 UNK         0.0800 
    135 H135        4.3757  -16.9718  -51.1216 H         1 UNK         0.0800 
    136 H136        0.8360  -16.5507  -50.5687 H         1 UNK         0.1150 
    137 H137       -0.0408  -20.7428  -50.5488 H         1 UNK         0.1150 
    138 H138        4.0245  -19.4143  -50.3881 H         1 UNK         0.1150 
    139 H139        1.6312  -22.3652  -50.4626 H         1 UNK         0.0800 
    140 H140        3.0324  -21.8894  -51.3818 H         1 UNK         0.0800 
    141 H141        2.0513  -20.6654  -47.8456 H         1 UNK         0.0800 
    142 H142        3.3749  -21.2350  -46.8913 H         1 UNK         0.0800 
    143 H143        2.2774  -23.5901  -46.9436 H         1 UNK         0.0600 
    144 H144        1.7192  -21.3760  -45.2452 H         1 UNK         0.3000 
    145 H145       -0.2273  -23.1128  -42.8149 H         1 UNK         0.0600 
    146 H146        2.1603  -23.5711  -42.2350 H         1 UNK         0.0600 
    147 H147        2.6047  -21.9411  -42.7277 H         1 UNK         0.0600 
    148 H148        1.5406  -22.1877  -41.3455 H         1 UNK         0.0600 
    149 H149        0.6523  -20.4090  -42.9503 H         1 UNK         0.3000 
    150 H150       -2.1091  -19.1339  -44.8682 H         1 UNK         0.0600 
    151 H151       -2.1559  -17.6293  -42.8896 H         1 UNK         0.0600 
    152 H152       -1.2271  -18.8003  -41.9555 H         1 UNK         0.0600 
    153 H153       -2.8488  -19.1988  -42.5046 H         1 UNK         0.0600 
    154 H154        0.1417  -17.7750  -43.8563 H         1 UNK         0.3000 
    155 H155        2.3607  -18.3645  -46.6346 H         1 UNK         0.0600 
    156 H156        0.9408  -16.4826  -47.3050 H         1 UNK         0.0600 
    157 H157        2.3438  -15.8546  -46.4532 H         1 UNK         0.0600 
    158 H158        0.7814  -15.9461  -45.6386 H         1 UNK         0.0600 
    159 H159        2.5827  -16.9474  -44.1333 H         1 UNK         0.3000 
    160 H160        4.0443  -19.6372  -42.2894 H         1 UNK         0.0600 
    161 H161        5.9063  -18.6462  -43.6324 H         1 UNK         0.0600 
    162 H162        5.8341  -17.9406  -42.0256 H         1 UNK         0.0600 
    163 H163        5.2266  -17.0380  -43.4140 H         1 UNK         0.0600 
    164 H164        3.4938  -16.9057  -41.6429 H         1 UNK         0.3000 
    165 H165        0.1456  -17.3211  -40.5361 H         1 UNK         0.0600 
    166 H166        1.0912  -16.4610  -38.4146 H         1 UNK         0.0600 
    167 H167        1.5054  -18.1559  -38.6135 H         1 UNK         0.0600 
    168 H168        2.7189  -16.9187  -38.9179 H         1 UNK         0.0600 
    169 H169        1.9044  -15.0983  -40.4101 H         1 UNK         0.3000 
    170 H170        1.5285  -13.2972  -41.6851 H         1 UNK         0.0600 
    171 H171        2.8904  -12.8406  -43.7334 H         1 UNK         0.0600 
    172 H172        3.4656  -14.2730  -42.8942 H         1 UNK         0.0600 
    173 H173        2.5066  -14.4411  -44.3585 H         1 UNK         0.0600 
    174 H174        0.3457  -13.2403  -44.3517 H         1 UNK         0.3000 
    175 H175       -2.8998  -12.3732  -43.3078 H         1 UNK         0.0600 
    176 H176       -0.8193  -10.2692  -44.1125 H         1 UNK         0.0600 
    177 H177       -2.5675  -10.1207  -44.2995 H         1 UNK         0.0600 
    178 H178       -1.8580  -10.1886  -42.6945 H         1 UNK         0.0600 
    179 H179       -1.4163  -11.9769  -45.7622 H         1 UNK         0.3000 
    180 H180       -1.6012  -15.2150  -46.9895 H         1 UNK         0.0600 
    181 H181       -3.1358  -14.4262  -48.7916 H         1 UNK         0.0600 
    182 H182       -3.6585  -13.0828  -47.7791 H         1 UNK         0.0600 
    183 H183       -4.0278  -14.7388  -47.3139 H         1 UNK         0.0600 
    184 H184       -1.2029  -13.0904  -48.6172 H         1 UNK         0.3000 
    185 H185        0.9721  -12.8849  -49.3456 H         1 UNK         0.0600 
    186 H186        1.5164  -10.6391  -47.3034 H         1 UNK         0.0600 
    187 H187        1.8879  -10.5607  -49.0244 H         1 UNK         0.0600 
    188 H188        0.2160  -10.6370  -48.4907 H         1 UNK         0.0600 
    189 H189        2.7218  -13.3362  -47.1000 H         1 UNK         0.3000 
    190 H190       -0.2899  -21.0966  -47.0165 H         1 UNK         0.3000 
    191 H191       -1.6774  -21.8842  -49.2808 H         1 UNK         0.0600 
    192 H192       -2.6863  -20.5181  -46.7296 H         1 UNK         0.0600 
    193 H193       -3.5248  -20.5019  -48.2614 H         1 UNK         0.0600 
    194 H194       -1.9637  -19.7158  -48.1170 H         1 UNK         0.0600 
    195 H195       -2.0656  -23.0839  -45.9636 H         1 UNK         0.3000 
    196 H196       -4.4604  -24.4829  -46.2025 H         1 UNK         0.0600 
    197 H197       -3.6364  -25.7459  -44.2059 H         1 UNK         0.0600 
    198 H198       -3.3104  -24.0264  -44.0530 H         1 UNK         0.0600 
    199 H199       -2.0090  -25.1356  -44.4816 H         1 UNK         0.0600 
    200 H200       -1.3245  -25.4149  -47.4891 H         1 UNK         0.3000 
    201 H201       -1.8391  -28.2190  -47.8384 H         1 UNK         0.0600 
    202 H202        0.4540  -27.2031  -47.7875 H         1 UNK         0.0600 
    203 H203        0.1191  -26.3792  -49.3109 H         1 UNK         0.0600 
    204 H204        0.1833  -28.1344  -49.2529 H         1 UNK         0.0600 
    205 H205       -2.9815  -25.4170  -49.5652 H         1 UNK         0.3000 
    206 H206       -4.2502  -27.1522  -51.6145 H         1 UNK         0.0600 
    207 H207       -3.7718  -25.3679  -53.3387 H         1 UNK         0.0600 
    208 H208       -2.6916  -24.5844  -52.1905 H         1 UNK         0.0600 
    209 H209       -2.3333  -26.1972  -52.7790 H         1 UNK         0.0600 
    210 H210       -5.1276  -26.1439  -49.0790 H         1 UNK         0.3000 
    211 H211       -6.9152  -25.3267  -48.0645 H         1 UNK         0.0600 
    212 H212       -8.2665  -25.7794  -50.7782 H         1 UNK         0.0600 
    213 H213       -9.0654  -25.7551  -49.2106 H         1 UNK         0.0600 
    214 H214       -7.9306  -27.0375  -49.5897 H         1 UNK         0.0600 
    215 H215       -5.2647  -23.2582  -49.3253 H         1 UNK         0.3000 
    216 H216       -5.0548  -21.1306  -49.6413 H         1 UNK         0.0600 
    217 H217       -6.5756  -19.4998  -48.5608 H         1 UNK         0.0600 
    218 H218       -6.2330  -20.8466  -47.4860 H         1 UNK         0.0600 
    219 H219       -7.7849  -20.7522  -48.3184 H         1 UNK         0.0600 
    220 H220       -8.2099  -22.1698  -50.8205 H         1 UNK         0.3000 
    221 H221       -8.6926  -20.0469  -52.6384 H         1 UNK         0.0600 
    222 H222       -9.7009  -22.9433  -52.6517 H         1 UNK         0.0600 
    223 H223      -10.4694  -21.5706  -51.8588 H         1 UNK         0.0600 
    224 H224      -10.3765  -21.6314  -53.6121 H         1 UNK         0.0600 
    225 H225       -7.2858  -23.3229  -53.2496 H         1 UNK         0.3000 
    226 H226       -6.6208  -22.6577  -56.0200 H         1 UNK         0.0600 
    227 H227       -7.3085  -24.9566  -55.4237 H         1 UNK         0.0600 
    228 H228       -5.6703  -24.9453  -56.0564 H         1 UNK         0.0600 
    229 H229       -5.9389  -25.1171  -54.3299 H         1 UNK         0.0600 
    230 H230       -5.1041  -22.3649  -52.9178 H         1 UNK         0.3000 
    231 H231       -2.3670  -22.1188  -53.8126 H         1 UNK         0.0600 
    232 H232       -3.4813  -20.8778  -51.2639 H         1 UNK         0.0600 
    233 H233       -3.3181  -22.6208  -51.3856 H         1 UNK         0.0600 
    234 H234       -1.9058  -21.5918  -51.5639 H         1 UNK         0.0600 
    235 H235       -5.1167  -20.0302  -53.8570 H         1 UNK         0.3000 
    236 H236       -5.5760  -18.0027  -54.5242 H         1 UNK         0.0600 
    237 H237       -2.6934  -17.6062  -55.4672 H         1 UNK         0.0600 
    238 H238       -3.9653  -18.3764  -56.4164 H         1 UNK         0.0600 
    239 H239       -4.1063  -16.6876  -55.9590 H         1 UNK         0.0600 
    240 H240       -4.6416  -18.5814  -51.8204 H         1 UNK         0.3000 
    241 H241       -3.9683  -15.8323  -50.8544 H         1 UNK         0.0600 
    242 H242       -7.8435  -17.0054  -50.4606 H         1 UNK         0.3800 
    243 H243       -6.7142  -18.0518  -51.2890 H         1 UNK         0.3800 
    244 H244       -4.0392  -17.1255  -48.5385 H         1 UNK         0.0800 
    245 H245       -3.8407  -18.5543  -49.5033 H         1 UNK         0.0800 
    246 H246       -1.8299  -19.2440  -50.6193 H         1 UNK         0.0800 
    247 H247       -1.4441  -17.9365  -51.7120 H         1 UNK         0.0800 
@<TRIPOS>BOND
     1    1    2 1    
     2    1  127 1    
     3    1  128 1    
     4    1  129 1    
     5    2    3 2    
     6    2    4 am   BACKBONE|DICT|INTERRES
     7    4    5 1    
     8    4  130 1    
     9    5    6 1    
    10    5   65 1    
    11    5  131 1    
    12    6    7 1    
    13    6  132 1    
    14    6  133 1    
    15    7    8 1    
    16    8    9 1    
    17    8  134 1    
    18    8  135 1    
    19    9   10 ar   
    20    9   14 ar   
    21   10   11 ar   
    22   10  136 1    
    23   11   12 ar   
    24   11  126 1    
    25   12   13 ar   
    26   12  137 1    
    27   13   14 ar   
    28   13   15 1    
    29   14  138 1    
    30   15   16 1    
    31   15  139 1    
    32   15  140 1    
    33   16   17 1    
    34   17   18 1    
    35   17  141 1    
    36   17  142 1    
    37   18   19 1    
    38   18   67 1    
    39   18  143 1    
    40   19   20 am   BACKBONE|DICT|INTERRES
    41   19  144 1    
    42   20   21 2    
    43   20   22 1    
    44   22   23 1    
    45   22   24 1    
    46   22  145 1    
    47   23  146 1    
    48   23  147 1    
    49   23  148 1    
    50   24   25 am   BACKBONE|DICT|INTERRES
    51   24  149 1    
    52   25   26 2    
    53   25   27 1    
    54   27   28 1    
    55   27   29 1    
    56   27  150 1    
    57   28  151 1    
    58   28  152 1    
    59   28  153 1    
    60   29   30 am   BACKBONE|DICT|INTERRES
    61   29  154 1    
    62   30   31 2    
    63   30   32 1    
    64   32   33 1    
    65   32   34 1    
    66   32  155 1    
    67   33  156 1    
    68   33  157 1    
    69   33  158 1    
    70   34   35 am   BACKBONE|DICT|INTERRES
    71   34  159 1    
    72   35   36 2    
    73   35   37 1    
    74   37   38 1    
    75   37   39 1    
    76   37  160 1    
    77   38  161 1    
    78   38  162 1    
    79   38  163 1    
    80   39   40 am   BACKBONE|DICT|INTERRES
    81   39  164 1    
    82   40   41 2    
    83   40   42 1    
    84   42   43 1    
    85   42   44 1    
    86   42  165 1    
    87   43  166 1    
    88   43  167 1    
    89   43  168 1    
    90   44   45 am   BACKBONE|DICT|INTERRES
    91   44  169 1    
    92   45   46 2    
    93   45   47 1    
    94   47   48 1    
    95   47   49 1    
    96   47  170 1    
    97   48  171 1    
    98   48  172 1    
    99   48  173 1    
   100   49   50 am   BACKBONE|DICT|INTERRES
   101   49  174 1    
   102   50   51 2    
   103   50   52 1    
   104   52   53 1    
   105   52   54 1    
   106   52  175 1    
   107   53  176 1    
   108   53  177 1    
   109   53  178 1    
   110   54   55 am   BACKBONE|DICT|INTERRES
   111   54  179 1    
   112   55   56 2    
   113   55   57 1    
   114   57   58 1    
   115   57   59 1    
   116   57  180 1    
   117   58  181 1    
   118   58  182 1    
   119   58  183 1    
   120   59   60 am   BACKBONE|DICT|INTERRES
   121   59  184 1    
   122   60   61 2    
   123   60   62 1    
   124   62   63 1    
   125   62   64 1    
   126   62  185 1    
   127   63  186 1    
   128   63  187 1    
   129   63  188 1    
   130   64   65 am   BACKBONE|DICT|INTERRES
   131   64  189 1    
   132   65   66 2    
   133   67   68 2    
   134   67   69 am   BACKBONE|DICT|INTERRES
   135   69   70 1    
   136   69  190 1    
   137   70   71 1    
   138   70   72 1    
   139   70  191 1    
   140   71  192 1    
   141   71  193 1    
   142   71  194 1    
   143   72   73 2    
   144   72   74 am   BACKBONE|DICT|INTERRES
   145   74   75 1    
   146   74  195 1    
   147   75   76 1    
   148   75   77 1    
   149   75  196 1    
   150   76  197 1    
   151   76  198 1    
   152   76  199 1    
   153   77   78 2    
   154   77   79 am   BACKBONE|DICT|INTERRES
   155   79   80 1    
   156   79  200 1    
   157   80   81 1    
   158   80   82 1    
   159   80  201 1    
   160   81  202 1    
   161   81  203 1    
   162   81  204 1    
   163   82   83 2    
   164   82   84 am   BACKBONE|DICT|INTERRES
   165   84   85 1    
   166   84  205 1    
   167   85   86 1    
   168   85   87 1    
   169   85  206 1    
   170   86  207 1    
   171   86  208 1    
   172   86  209 1    
   173   87   88 2    
   174   87   89 am   BACKBONE|DICT|INTERRES
   175   89   90 1    
   176   89  210 1    
   177   90   91 1    
   178   90   92 1    
   179   90  211 1    
   180   91  212 1    
   181   91  213 1    
   182   91  214 1    
   183   92   93 2    
   184   92   94 am   BACKBONE|DICT|INTERRES
   185   94   95 1    
   186   94  215 1    
   187   95   96 1    
   188   95   97 1    
   189   95  216 1    
   190   96  217 1    
   191   96  218 1    
   192   96  219 1    
   193   97   98 2    
   194   97   99 am   BACKBONE|DICT|INTERRES
   195   99  100 1    
   196   99  220 1    
   197  100  101 1    
   198  100  102 1    
   199  100  221 1    
   200  101  222 1    
   201  101  223 1    
   202  101  224 1    
   203  102  103 2    
   204  102  104 am   BACKBONE|DICT|INTERRES
   205  104  105 1    
   206  104  225 1    
   207  105  106 1    
   208  105  107 1    
   209  105  226 1    
   210  106  227 1    
   211  106  228 1    
   212  106  229 1    
   213  107  108 2    
   214  107  109 am   BACKBONE|DICT|INTERRES
   215  109  110 1    
   216  109  230 1    
   217  110  111 1    
   218  110  112 1    
   219  110  231 1    
   220  111  232 1    
   221  111  233 1    
   222  111  234 1    
   223  112  113 2    
   224  112  114 am   BACKBONE|DICT|INTERRES
   225  114  115 1    
   226  114  235 1    
   227  115  116 1    
   228  115  117 1    
   229  115  236 1    
   230  116  237 1    
   231  116  238 1    
   232  116  239 1    
   233  117  118 2    
   234  117  119 am   BACKBONE|DICT|INTERRES
   235  119  120 1    
   236  119  240 1    
   237  120  121 1    
   238  120  124 1    
   239  120  241 1    
   240  121  122 am   BACKBONE|DICT|INTERRES
   241  121  123 2    
   242  122  242 1    
   243  122  243 1    
   244  124  125 1    
   245  124  244 1    
   246  124  245 1    
   247  125  126 1    
   248  126  246 1    
   249  126  247 1    
@<TRIPOS>SUBSTRUCTURE
     1 UNK         1 GROUP             0       ****    0 ROOT    
