@<TRIPOS>MOLECULE
3R540
247   249    1
SMALL
USER_CHARGES


@<TRIPOS>ATOM
      1 CA          1.6747  -11.3820  -45.2951 C.3       0 UNK        -0.1800 
      2 C           2.2577  -12.2737  -46.3816 C.2       0 UNK         0.5000 
      3 O           3.0229  -11.7993  -47.2218 O.2       0 UNK        -0.5000 
      4 N           1.8797  -13.5553  -46.3685 N.am      1 UNK        -0.5000 
      5 CA          2.2539  -14.6526  -47.2641 C.3       1 UNK         0.1400 
      6 C6          3.7382  -15.0928  -47.1393 C.3       23 UNK        -0.0398 
      7 S7          3.8992  -16.9092  -47.1208 S.3       23 UNK        -0.2404 
      8 C8          4.0637  -17.3126  -48.8913 C.3       23 UNK        -0.0205 
      9 C9          3.2170  -18.5230  -49.2630 C.ar      23 UNK        -0.0193 
     10 C10         2.1205  -18.3916  -50.1223 C.ar      23 UNK        -0.1150 
     11 C11         1.3411  -19.5046  -50.4574 C.ar      23 UNK        -0.0193 
     12 C12         1.6602  -20.7531  -49.9149 C.ar      23 UNK        -0.1150 
     13 C13         2.7591  -20.9017  -49.0633 C.ar      23 UNK        -0.0193 
     14 C14         3.5396  -19.7838  -48.7536 C.ar      23 UNK        -0.1150 
     15 C15         3.1140  -22.2727  -48.5024 C.3       23 UNK        -0.0205 
     16 S16         3.2008  -22.2635  -46.6834 S.3       23 UNK        -0.2404 
     17 C17         3.0006  -24.0388  -46.2917 C.3       23 UNK        -0.0398 
     18 CA          1.5779  -24.4192  -45.8037 C.3       11 UNK         0.1400 
     19 N           1.1187  -23.5579  -44.7068 N.am      11 UNK        -0.5000 
     20 C           1.1645  -23.8824  -43.4077 C.2       10 UNK         0.5000 
     21 O           1.5182  -24.9882  -42.9960 O.2       10 UNK        -0.5000 
     22 CA          0.7741  -22.7985  -42.3786 C.3       10 UNK         0.1400 
     23 CB          2.0345  -22.1792  -41.7553 C.3       10 UNK        -0.1800 
     24 N          -0.0481  -21.7223  -42.9308 N.am      10 UNK        -0.5000 
     25 C          -1.3254  -21.8532  -43.3129 C.2       9 UNK         0.5000 
     26 O          -1.9742  -22.8892  -43.1645 O.2       9 UNK        -0.5000 
     27 CA         -1.9913  -20.6441  -44.0062 C.3       9 UNK         0.1400 
     28 CB         -2.9540  -19.9330  -43.0433 C.3       9 UNK        -0.1800 
     29 N          -1.0800  -19.6480  -44.5835 N.am      9 UNK        -0.5000 
     30 C          -0.1050  -19.8972  -45.4694 C.2       8 UNK         0.5000 
     31 O           0.1774  -21.0268  -45.8611 O.2       8 UNK        -0.5000 
     32 CA          0.7223  -18.7003  -45.9616 C.3       8 UNK         0.1400 
     33 CB          0.0231  -18.0285  -47.1512 C.3       8 UNK        -0.1800 
     34 N           0.9865  -17.7187  -44.9066 N.am      8 UNK        -0.5000 
     35 C           1.7043  -17.9594  -43.7997 C.2       7 UNK         0.5000 
     36 O           2.2399  -19.0419  -43.5608 O.2       7 UNK        -0.5000 
     37 CA          1.8074  -16.8339  -42.7500 C.3       7 UNK         0.1400 
     38 CB          2.9725  -15.8741  -43.0654 C.3       7 UNK        -0.1800 
     39 N           0.5399  -16.1248  -42.5183 N.am      7 UNK        -0.5000 
     40 C          -0.0853  -15.2651  -43.3309 C.2       6 UNK         0.5000 
     41 O           0.3858  -14.8551  -44.3922 O.2       6 UNK        -0.5000 
     42 CA         -1.4935  -14.8133  -42.9057 C.3       6 UNK         0.1400 
     43 CB         -1.4301  -13.4453  -42.2103 C.3       6 UNK        -0.1800 
     44 N          -2.3887  -14.7181  -44.0584 N.am      6 UNK        -0.5000 
     45 C          -2.7011  -15.7269  -44.8861 C.2       5 UNK         0.5000 
     46 O          -2.3723  -16.8983  -44.6880 O.2       5 UNK        -0.5000 
     47 CA         -3.5074  -15.3637  -46.1509 C.3       5 UNK         0.1400 
     48 CB         -4.9964  -15.6860  -45.9455 C.3       5 UNK        -0.1800 
     49 N          -3.3870  -13.9541  -46.5387 N.am      5 UNK        -0.5000 
     50 C          -2.2724  -13.3719  -47.0010 C.2       4 UNK         0.5000 
     51 O          -1.2120  -13.9646  -47.2003 O.2       4 UNK        -0.5000 
     52 CA         -2.3508  -11.8543  -47.2113 C.3       4 UNK         0.1400 
     53 CB         -2.3694  -11.1244  -45.8520 C.3       4 UNK        -0.1800 
     54 N          -1.2067  -11.4042  -47.9988 N.am      4 UNK        -0.5000 
     55 C          -1.1320  -10.2346  -48.6454 C.2       3 UNK         0.5000 
     56 O          -2.0536   -9.4176  -48.6745 O.2       3 UNK        -0.5000 
     57 CA          0.1848   -9.8917  -49.3669 C.3       3 UNK         0.1400 
     58 CB          0.9704   -8.8316  -48.5783 C.3       3 UNK        -0.1800 
     59 N           1.0534  -11.0483  -49.5804 N.am      3 UNK        -0.5000 
     60 C           0.9732  -11.8724  -50.6343 C.2       2 UNK         0.5000 
     61 O           0.1162  -11.7793  -51.5143 O.2       2 UNK        -0.5000 
     62 CA          2.0340  -12.9830  -50.7221 C.3       2 UNK         0.1400 
     63 CB          3.2819  -12.4782  -51.4617 C.3       2 UNK        -0.1800 
     64 N           2.4217  -13.4395  -49.3906 N.am      2 UNK        -0.5000 
     65 C           1.8208  -14.4316  -48.7275 C.2       1 UNK         0.5000 
     66 O           0.9634  -15.1542  -49.2279 O.2       1 UNK        -0.5000 
     67 C           0.5695  -24.4717  -46.9678 C.2       11 UNK         0.5000 
     68 O           0.4859  -25.4964  -47.6463 O.2       11 UNK        -0.5000 
     69 N          -0.1945  -23.3927  -47.1848 N.am      12 UNK        -0.5000 
     70 CA         -1.1376  -23.2323  -48.2918 C.3       12 UNK         0.1400 
     71 CB         -1.6854  -21.8036  -48.2794 C.3       12 UNK        -0.1800 
     72 C          -2.2959  -24.2428  -48.2923 C.2       12 UNK         0.5000 
     73 O          -2.8307  -24.5444  -49.3597 O.2       12 UNK        -0.5000 
     74 N          -2.6541  -24.7595  -47.1105 N.am      13 UNK        -0.5000 
     75 CA         -3.6396  -25.8264  -46.9410 C.3       13 UNK         0.1400 
     76 CB         -3.9966  -25.9521  -45.4528 C.3       13 UNK        -0.1800 
     77 C          -3.1467  -27.1739  -47.5029 C.2       13 UNK         0.5000 
     78 O          -3.9343  -27.9030  -48.1051 O.2       13 UNK        -0.5000 
     79 N          -1.8481  -27.4615  -47.3307 N.am      14 UNK        -0.5000 
     80 CA         -1.1846  -28.6518  -47.8669 C.3       14 UNK         0.1400 
     81 CB          0.1042  -28.9217  -47.0749 C.3       14 UNK        -0.1800 
     82 C          -0.8854  -28.5119  -49.3701 C.2       14 UNK         0.5000 
     83 O          -0.9731  -29.4977  -50.1024 O.2       14 UNK        -0.5000 
     84 N          -0.5736  -27.2832  -49.8076 N.am      15 UNK        -0.5000 
     85 CA         -0.3587  -26.9196  -51.2117 C.3       15 UNK         0.1400 
     86 CB          0.3554  -25.5600  -51.2675 C.3       15 UNK        -0.1800 
     87 C          -1.6583  -26.8723  -52.0454 C.2       15 UNK         0.5000 
     88 O          -1.5791  -26.7974  -53.2717 O.2       15 UNK        -0.5000 
     89 N          -2.8172  -26.8956  -51.3690 N.am      16 UNK        -0.5000 
     90 CA         -4.1806  -26.8100  -51.9052 C.3       16 UNK         0.1400 
     91 CB         -4.4852  -27.9781  -52.8662 C.3       16 UNK        -0.1800 
     92 C          -4.5256  -25.4279  -52.5020 C.2       16 UNK         0.5000 
     93 O          -5.4457  -25.3202  -53.3143 O.2       16 UNK        -0.5000 
     94 N          -3.8093  -24.3877  -52.0567 N.am      17 UNK        -0.5000 
     95 CA         -4.1051  -22.9819  -52.3369 C.3       17 UNK         0.1400 
     96 CB         -2.7957  -22.1796  -52.2898 C.3       17 UNK        -0.1800 
     97 C          -5.1387  -22.4104  -51.3455 C.2       17 UNK         0.5000 
     98 O          -5.7863  -21.4101  -51.6539 O.2       17 UNK        -0.5000 
     99 N          -5.2713  -23.0546  -50.1736 N.am      18 UNK        -0.5000 
    100 CA        -6.2465  -22.7873  -49.1074 C.3       18 UNK         0.1400 
    101 CB        -7.6799  -23.0705  -49.6021 C.3       18 UNK        -0.1800 
    102 C         -6.1102  -21.3929  -48.4594 C.2       18 UNK         0.5000 
    103 O         -7.0737  -20.8843  -47.8849 O.2       18 UNK        -0.5000 
    104 N         -4.9135  -20.7995  -48.5700 N.am      19 UNK        -0.5000 
    105 CA        -4.4573  -19.5058  -48.0449 C.3       19 UNK         0.1400 
    106 CB        -4.6015  -19.4503  -46.5145 C.3       19 UNK        -0.1800 
    107 C         -5.1074  -18.2797  -48.7123 C.2       19 UNK         0.5000 
    108 O         -4.4140  -17.2962  -48.9585 O.2       19 UNK        -0.5000 
    109 N         -6.4064  -18.3560  -49.0224 N.am      20 UNK        -0.5000 
    110 CA        -7.2025  -17.2953  -49.6429 C.3       20 UNK         0.1400 
    111 CB        -8.6704  -17.7448  -49.6957 C.3       20 UNK        -0.1800 
    112 C         -6.7145  -16.8793  -51.0447 C.2       20 UNK         0.5000 
    113 O         -6.8897  -15.7211  -51.4249 O.2       20 UNK        -0.5000 
    114 N         -6.1061  -17.8188  -51.7813 N.am      21 UNK        -0.5000 
    115 CA        -5.5146  -17.5768  -53.0979 C.3       21 UNK         0.1400 
    116 CB        -5.4772  -18.9032  -53.8735 C.3       21 UNK        -0.1800 
    117 C         -4.1012  -16.9630  -53.0290 C.2       21 UNK         0.5000 
    118 O         -3.6073  -16.4934  -54.0553 O.2       21 UNK        -0.5000 
    119 N         -3.4581  -17.0063  -51.8556 N.am      22 UNK        -0.5000 
    120 CA        -2.0760  -16.5565  -51.6498 C.3       22 UNK         0.1400 
    121 C         -1.9825  -15.0144  -51.5019 C.2       22 UNK         0.5000 
    122 N         -1.0670  -14.3759  -52.2185 N.am      22 UNK        -0.7600 
    123 O         -2.7092  -14.3981  -50.7265 O.2       22 UNK        -0.5000 
    124 C124       -1.4078  -17.2727  -50.4501 C.3       23 UNK        -0.0398 
    125 S125       -1.4143  -19.0894  -50.6250 S.3       23 UNK        -0.2404 
    126 C126        0.1859  -19.3809  -51.4431 C.3       23 UNK        -0.0205 
    127 H127        2.4691  -10.8258  -44.7977 H         1 UNK         0.0600 
    128 H128        1.1433  -11.9630  -44.5403 H         1 UNK         0.0600 
    129 H129        0.9745  -10.6686  -45.7283 H         1 UNK         0.0600 
    130 H130        1.2227  -13.8552  -45.6483 H         1 UNK         0.3000 
    131 H131        1.6313  -15.4647  -46.8900 H         1 UNK         0.0600 
    132 H132        4.3792  -14.6600  -47.9092 H         1 UNK         0.0800 
    133 H133        4.1511  -14.7421  -46.1926 H         1 UNK         0.0800 
    134 H134        3.7868  -16.4556  -49.5059 H         1 UNK         0.0800 
    135 H135        5.1112  -17.5204  -49.1130 H         1 UNK         0.0800 
    136 H136        1.8794  -17.4231  -50.5362 H         1 UNK         0.1150 
    137 H137        1.0587  -21.6133  -50.1722 H         1 UNK         0.1150 
    138 H138        4.3916  -19.8914  -48.0969 H         1 UNK         0.1150 
    139 H139        2.3810  -23.0120  -48.8274 H         1 UNK         0.0800 
    140 H140        4.0760  -22.5897  -48.9068 H         1 UNK         0.0800 
    141 H141        3.7166  -24.2754  -45.5038 H         1 UNK         0.0800 
    142 H142        3.3005  -24.6485  -47.1461 H         1 UNK         0.0800 
    143 H143        1.6310  -25.4492  -45.4447 H         1 UNK         0.0600 
    144 H144        0.8389  -22.6168  -44.9662 H         1 UNK         0.3000 
    145 H145        0.2063  -23.2890  -41.5852 H         1 UNK         0.0600 
    146 H146        1.7787  -21.4548  -40.9819 H         1 UNK         0.0600 
    147 H147        2.6584  -22.9438  -41.2906 H         1 UNK         0.0600 
    148 H148        2.6424  -21.6699  -42.5045 H         1 UNK         0.0600 
    149 H149        0.4214  -20.8469  -43.1183 H         1 UNK         0.3000 
    150 H150       -2.5712  -21.0572  -44.8310 H         1 UNK         0.0600 
    151 H151       -3.6635  -20.6357  -42.6043 H         1 UNK         0.0600 
    152 H152       -3.5357  -19.1686  -43.5586 H         1 UNK         0.0600 
    153 H153       -2.4173  -19.4510  -42.2254 H         1 UNK         0.0600 
    154 H154       -1.2822  -18.6783  -44.3650 H         1 UNK         0.3000 
    155 H155        1.6814  -19.0908  -46.3092 H         1 UNK         0.0600 
    156 H156       -0.2902  -18.7699  -47.8856 H         1 UNK         0.0600 
    157 H157        0.6946  -17.3477  -47.6689 H         1 UNK         0.0600 
    158 H158       -0.8625  -17.4698  -46.8501 H         1 UNK         0.0600 
    159 H159        0.5788  -16.7971  -45.0158 H         1 UNK         0.3000 
    160 H160        2.0415  -17.3178  -41.8004 H         1 UNK         0.0600 
    161 H161        2.8721  -15.4109  -44.0468 H         1 UNK         0.0600 
    162 H162        3.9224  -16.4097  -43.0626 H         1 UNK         0.0600 
    163 H163        3.0436  -15.0796  -42.3229 H         1 UNK         0.0600 
    164 H164        0.0572  -16.4027  -41.6750 H         1 UNK         0.3000 
    165 H165       -1.9125  -15.5464  -42.2136 H         1 UNK         0.0600 
    166 H166       -2.4173  -13.1249  -41.8771 H         1 UNK         0.0600 
    167 H167       -0.7871  -13.4837  -41.3300 H         1 UNK         0.0600 
    168 H168       -1.0326  -12.6755  -42.8734 H         1 UNK         0.0600 
    169 H169       -2.6845  -13.7909  -44.3194 H         1 UNK         0.3000 
    170 H170       -3.1241  -15.9781  -46.9681 H         1 UNK         0.0600 
    171 H171       -5.1393  -16.7155  -45.6191 H         1 UNK         0.0600 
    172 H172       -5.4467  -15.0424  -45.1890 H         1 UNK         0.0600 
    173 H173       -5.5566  -15.5602  -46.8723 H         1 UNK         0.0600 
    174 H174       -4.2133  -13.3883  -46.4101 H         1 UNK         0.3000 
    175 H175       -3.2687  -11.6359  -47.7612 H         1 UNK         0.0600 
    176 H176       -1.4726  -11.3409  -45.2703 H         1 UNK         0.0600 
    177 H177       -2.4319  -10.0435  -45.9774 H         1 UNK         0.0600 
    178 H178       -3.2294  -11.4238  -45.2523 H         1 UNK         0.0600 
    179 H179       -0.4536  -12.0766  -48.0678 H         1 UNK         0.3000 
    180 H180       -0.0796   -9.4592  -50.3343 H         1 UNK         0.0600 
    181 H181        1.2869   -9.2037  -47.6040 H         1 UNK         0.0600 
    182 H182        0.3656   -7.9397  -48.4088 H         1 UNK         0.0600 
    183 H183        1.8621   -8.5184  -49.1216 H         1 UNK         0.0600 
    184 H184        1.7809  -11.2008  -48.8930 H         1 UNK         0.3000 
    185 H185        1.6144  -13.8128  -51.2941 H         1 UNK         0.0600 
    186 H186        3.0283  -12.1376  -52.4665 H         1 UNK         0.0600 
    187 H187        3.7518  -11.6436  -50.9398 H         1 UNK         0.0600 
    188 H188        4.0243  -13.2699  -51.5648 H         1 UNK         0.0600 
    189 H189        3.0602  -12.8499  -48.8661 H         1 UNK         0.3000 
    190 H190       -0.0364  -22.5550  -46.6259 H         1 UNK         0.3000 
    191 H191       -0.5791  -23.3672  -49.2175 H         1 UNK         0.0600 
    192 H192       -0.8787  -21.0764  -48.3638 H         1 UNK         0.0600 
    193 H193       -2.3538  -21.6356  -49.1213 H         1 UNK         0.0600 
    194 H194       -2.2358  -21.5906  -47.3625 H         1 UNK         0.0600 
    195 H195       -2.1710  -24.4432  -46.2823 H         1 UNK         0.3000 
    196 H196       -4.5437  -25.5480  -47.4868 H         1 UNK         0.0600 
    197 H197       -4.7462  -26.7287  -45.2953 H         1 UNK         0.0600 
    198 H198       -4.4090  -25.0196  -45.0667 H         1 UNK         0.0600 
    199 H199       -3.1254  -26.2081  -44.8484 H         1 UNK         0.0600 
    200 H200       -1.2514  -26.7788  -46.8846 H         1 UNK         0.3000 
    201 H201       -1.8467  -29.5105  -47.7358 H         1 UNK         0.0600 
    202 H202       -0.1061  -29.0562  -46.0139 H         1 UNK         0.0600 
    203 H203        0.8216  -28.1067  -47.1741 H         1 UNK         0.0600 
    204 H204        0.5928  -29.8310  -47.4270 H         1 UNK         0.0600 
    205 H205       -0.4443  -26.5491  -49.1195 H         1 UNK         0.3000 
    206 H206        0.2961  -27.6691  -51.6608 H         1 UNK         0.0600 
    207 H207        1.2359  -25.5414  -50.6246 H         1 UNK         0.0600 
    208 H208        0.6880  -25.3386  -52.2823 H         1 UNK         0.0600 
    209 H209       -0.3061  -24.7508  -50.9624 H         1 UNK         0.0600 
    210 H210       -2.7549  -26.9234  -50.3607 H         1 UNK         0.3000 
    211 H211       -4.8376  -26.9256  -51.0419 H         1 UNK         0.0600 
    212 H212       -3.9368  -27.8879  -53.8040 H         1 UNK         0.0600 
    213 H213       -5.5467  -28.0133  -53.1138 H         1 UNK         0.0600 
    214 H214       -4.2270  -28.9366  -52.4158 H         1 UNK         0.0600 
    215 H215       -3.1154  -24.5684  -51.3395 H         1 UNK         0.3000 
    216 H216       -4.5249  -22.8881  -53.3406 H         1 UNK         0.0600 
    217 H217       -2.9790  -21.1157  -52.4450 H         1 UNK         0.0600 
    218 H218       -2.1093  -22.5067  -53.0708 H         1 UNK         0.0600 
    219 H219       -2.2844  -22.2916  -51.3345 H         1 UNK         0.0600 
    220 H220       -4.6350  -23.8241  -49.9972 H         1 UNK         0.3000 
    221 H221       -6.0265  -23.5034  -48.3145 H         1 UNK         0.0600 
    222 H222       -8.0003  -22.3451  -50.3506 H         1 UNK         0.0600 
    223 H223       -7.7550  -24.0640  -50.0443 H         1 UNK         0.0600 
    224 H224       -8.3953  -23.0287  -48.7800 H         1 UNK         0.0600 
    225 H225       -4.2304  -21.2941  -49.1233 H         1 UNK         0.3000 
    226 H226       -3.3917  -19.4556  -48.2723 H         1 UNK         0.0600 
    227 H227       -4.3278  -20.3992  -46.0578 H         1 UNK         0.0600 
    228 H228       -3.9492  -18.6850  -46.0947 H         1 UNK         0.0600 
    229 H229       -5.6235  -19.2233  -46.2086 H         1 UNK         0.0600 
    230 H230       -6.8957  -19.2046  -48.7522 H         1 UNK         0.3000 
    231 H231       -7.1354  -16.4154  -49.0000 H         1 UNK         0.0600 
    232 H232       -8.7921  -18.6461  -50.2980 H         1 UNK         0.0600 
    233 H233       -9.3024  -16.9695  -50.1308 H         1 UNK         0.0600 
    234 H234       -9.0548  -17.9544  -48.6972 H         1 UNK         0.0600 
    235 H235       -6.0145  -18.7531  -51.4054 H         1 UNK         0.3000 
    236 H236       -6.1501  -16.8816  -53.6506 H         1 UNK         0.0600 
    237 H237       -6.4651  -19.3612  -53.9269 H         1 UNK         0.0600 
    238 H238       -5.1351  -18.7475  -54.8973 H         1 UNK         0.0600 
    239 H239       -4.7990  -19.6193  -53.4090 H         1 UNK         0.0600 
    240 H240       -3.9454  -17.3203  -51.0258 H         1 UNK         0.3000 
    241 H241       -1.5069  -16.8403  -52.5377 H         1 UNK         0.0600 
    242 H242       -0.9480  -13.3773  -52.0903 H         1 UNK         0.3800 
    243 H243       -0.4778  -14.8623  -52.8748 H         1 UNK         0.3800 
    244 H244       -0.3773  -16.9428  -50.3432 H         1 UNK         0.0800 
    245 H245       -1.9008  -17.0080  -49.5140 H         1 UNK         0.0800 
    246 H246        0.3848  -18.5881  -52.1655 H         1 UNK         0.0800 
    247 H247        0.1083  -20.3003  -52.0255 H         1 UNK         0.0800 
@<TRIPOS>BOND
     1    1    2 1    
     2    1  127 1    
     3    1  128 1    
     4    1  129 1    
     5    2    3 2    
     6    2    4 am   BACKBONE|DICT|INTERRES
     7    4    5 1    
     8    4  130 1    
     9    5    6 1    
    10    5   65 1    
    11    5  131 1    
    12    6    7 1    
    13    6  132 1    
    14    6  133 1    
    15    7    8 1    
    16    8    9 1    
    17    8  134 1    
    18    8  135 1    
    19    9   10 ar   
    20    9   14 ar   
    21   10   11 ar   
    22   10  136 1    
    23   11   12 ar   
    24   11  126 1    
    25   12   13 ar   
    26   12  137 1    
    27   13   14 ar   
    28   13   15 1    
    29   14  138 1    
    30   15   16 1    
    31   15  139 1    
    32   15  140 1    
    33   16   17 1    
    34   17   18 1    
    35   17  141 1    
    36   17  142 1    
    37   18   19 1    
    38   18   67 1    
    39   18  143 1    
    40   19   20 am   BACKBONE|DICT|INTERRES
    41   19  144 1    
    42   20   21 2    
    43   20   22 1    
    44   22   23 1    
    45   22   24 1    
    46   22  145 1    
    47   23  146 1    
    48   23  147 1    
    49   23  148 1    
    50   24   25 am   BACKBONE|DICT|INTERRES
    51   24  149 1    
    52   25   26 2    
    53   25   27 1    
    54   27   28 1    
    55   27   29 1    
    56   27  150 1    
    57   28  151 1    
    58   28  152 1    
    59   28  153 1    
    60   29   30 am   BACKBONE|DICT|INTERRES
    61   29  154 1    
    62   30   31 2    
    63   30   32 1    
    64   32   33 1    
    65   32   34 1    
    66   32  155 1    
    67   33  156 1    
    68   33  157 1    
    69   33  158 1    
    70   34   35 am   BACKBONE|DICT|INTERRES
    71   34  159 1    
    72   35   36 2    
    73   35   37 1    
    74   37   38 1    
    75   37   39 1    
    76   37  160 1    
    77   38  161 1    
    78   38  162 1    
    79   38  163 1    
    80   39   40 am   BACKBONE|DICT|INTERRES
    81   39  164 1    
    82   40   41 2    
    83   40   42 1    
    84   42   43 1    
    85   42   44 1    
    86   42  165 1    
    87   43  166 1    
    88   43  167 1    
    89   43  168 1    
    90   44   45 am   BACKBONE|DICT|INTERRES
    91   44  169 1    
    92   45   46 2    
    93   45   47 1    
    94   47   48 1    
    95   47   49 1    
    96   47  170 1    
    97   48  171 1    
    98   48  172 1    
    99   48  173 1    
   100   49   50 am   BACKBONE|DICT|INTERRES
   101   49  174 1    
   102   50   51 2    
   103   50   52 1    
   104   52   53 1    
   105   52   54 1    
   106   52  175 1    
   107   53  176 1    
   108   53  177 1    
   109   53  178 1    
   110   54   55 am   BACKBONE|DICT|INTERRES
   111   54  179 1    
   112   55   56 2    
   113   55   57 1    
   114   57   58 1    
   115   57   59 1    
   116   57  180 1    
   117   58  181 1    
   118   58  182 1    
   119   58  183 1    
   120   59   60 am   BACKBONE|DICT|INTERRES
   121   59  184 1    
   122   60   61 2    
   123   60   62 1    
   124   62   63 1    
   125   62   64 1    
   126   62  185 1    
   127   63  186 1    
   128   63  187 1    
   129   63  188 1    
   130   64   65 am   BACKBONE|DICT|INTERRES
   131   64  189 1    
   132   65   66 2    
   133   67   68 2    
   134   67   69 am   BACKBONE|DICT|INTERRES
   135   69   70 1    
   136   69  190 1    
   137   70   71 1    
   138   70   72 1    
   139   70  191 1    
   140   71  192 1    
   141   71  193 1    
   142   71  194 1    
   143   72   73 2    
   144   72   74 am   BACKBONE|DICT|INTERRES
   145   74   75 1    
   146   74  195 1    
   147   75   76 1    
   148   75   77 1    
   149   75  196 1    
   150   76  197 1    
   151   76  198 1    
   152   76  199 1    
   153   77   78 2    
   154   77   79 am   BACKBONE|DICT|INTERRES
   155   79   80 1    
   156   79  200 1    
   157   80   81 1    
   158   80   82 1    
   159   80  201 1    
   160   81  202 1    
   161   81  203 1    
   162   81  204 1    
   163   82   83 2    
   164   82   84 am   BACKBONE|DICT|INTERRES
   165   84   85 1    
   166   84  205 1    
   167   85   86 1    
   168   85   87 1    
   169   85  206 1    
   170   86  207 1    
   171   86  208 1    
   172   86  209 1    
   173   87   88 2    
   174   87   89 am   BACKBONE|DICT|INTERRES
   175   89   90 1    
   176   89  210 1    
   177   90   91 1    
   178   90   92 1    
   179   90  211 1    
   180   91  212 1    
   181   91  213 1    
   182   91  214 1    
   183   92   93 2    
   184   92   94 am   BACKBONE|DICT|INTERRES
   185   94   95 1    
   186   94  215 1    
   187   95   96 1    
   188   95   97 1    
   189   95  216 1    
   190   96  217 1    
   191   96  218 1    
   192   96  219 1    
   193   97   98 2    
   194   97   99 am   BACKBONE|DICT|INTERRES
   195   99  100 1    
   196   99  220 1    
   197  100  101 1    
   198  100  102 1    
   199  100  221 1    
   200  101  222 1    
   201  101  223 1    
   202  101  224 1    
   203  102  103 2    
   204  102  104 am   BACKBONE|DICT|INTERRES
   205  104  105 1    
   206  104  225 1    
   207  105  106 1    
   208  105  107 1    
   209  105  226 1    
   210  106  227 1    
   211  106  228 1    
   212  106  229 1    
   213  107  108 2    
   214  107  109 am   BACKBONE|DICT|INTERRES
   215  109  110 1    
   216  109  230 1    
   217  110  111 1    
   218  110  112 1    
   219  110  231 1    
   220  111  232 1    
   221  111  233 1    
   222  111  234 1    
   223  112  113 2    
   224  112  114 am   BACKBONE|DICT|INTERRES
   225  114  115 1    
   226  114  235 1    
   227  115  116 1    
   228  115  117 1    
   229  115  236 1    
   230  116  237 1    
   231  116  238 1    
   232  116  239 1    
   233  117  118 2    
   234  117  119 am   BACKBONE|DICT|INTERRES
   235  119  120 1    
   236  119  240 1    
   237  120  121 1    
   238  120  124 1    
   239  120  241 1    
   240  121  122 am   BACKBONE|DICT|INTERRES
   241  121  123 2    
   242  122  242 1    
   243  122  243 1    
   244  124  125 1    
   245  124  244 1    
   246  124  245 1    
   247  125  126 1    
   248  126  246 1    
   249  126  247 1    
@<TRIPOS>SUBSTRUCTURE
     1 UNK         1 GROUP             0       ****    0 ROOT    
