@<TRIPOS>MOLECULE
3R540
247   249    1
SMALL
USER_CHARGES


@<TRIPOS>ATOM
      1 CA          5.2741  -16.9340  -45.4150 C.3       0 UNK        -0.1800 
      2 C           4.6825  -15.7335  -46.1411 C.2       0 UNK         0.5000 
      3 O           5.3959  -15.0521  -46.8759 O.2       0 UNK        -0.5000 
      4 N           3.3838  -15.4755  -45.9370 N.am      1 UNK        -0.5000 
      5 CA          2.5826  -14.4270  -46.5895 C.3       1 UNK         0.1400 
      6 C6          2.6850  -14.4507  -48.1457 C.3       23 UNK        -0.0398 
      7 S7          1.1206  -14.0093  -48.9762 S.3       23 UNK        -0.2404 
      8 C8          0.2819  -15.6205  -49.0014 C.3       23 UNK        -0.0205 
      9 C9          0.4903  -16.3665  -50.3095 C.ar      23 UNK        -0.0193 
     10 C10        -0.4293  -16.2093  -51.3514 C.ar      23 UNK        -0.1150 
     11 C11        -0.2697  -16.9054  -52.5523 C.ar      23 UNK        -0.0193 
     12 C12         0.8252  -17.7573  -52.7083 C.ar      23 UNK        -0.1150 
     13 C13         1.7399  -17.9423  -51.6676 C.ar      23 UNK        -0.0193 
     14 C14         1.5741  -17.2368  -50.4718 C.ar      23 UNK        -0.1150 
     15 C15         2.8918  -18.9232  -51.8450 C.3       23 UNK        -0.0205 
     16 S16         2.7159  -20.4459  -50.8493 S.3       23 UNK        -0.2404 
     17 C17         0.9651  -20.9351  -51.0850 C.3       23 UNK        -0.0398 
     18 CA          0.1975  -21.1171  -49.7488 C.3       11 UNK         0.1400 
     19 N           0.5032  -20.0791  -48.7544 N.am      11 UNK        -0.5000 
     20 C           0.1514  -20.1437  -47.4647 C.2       10 UNK         0.5000 
     21 O          -0.5014  -21.0714  -46.9822 O.2       10 UNK        -0.5000 
     22 CA          0.5040  -18.9246  -46.5974 C.3       10 UNK         0.1400 
     23 CB         -0.6932  -17.9618  -46.5710 C.3       10 UNK        -0.1800 
     24 N           0.8325  -19.2806  -45.2201 N.am      10 UNK        -0.5000 
     25 C           1.8094  -20.1089  -44.8241 C.2       9 UNK         0.5000 
     26 O           2.6100  -20.6369  -45.5973 O.2       9 UNK        -0.5000 
     27 CA          1.9341  -20.3792  -43.3093 C.3       9 UNK         0.1400 
     28 CB          3.3549  -20.0663  -42.8105 C.3       9 UNK        -0.1800 
     29 N           0.9792  -19.6002  -42.5178 N.am      9 UNK        -0.5000 
     30 C          -0.2651  -19.9816  -42.1980 C.2       8 UNK         0.5000 
     31 O          -0.7416  -21.0760  -42.4965 O.2       8 UNK        -0.5000 
     32 CA         -1.1299  -18.9602  -41.4334 C.3       8 UNK         0.1400 
     33 CB         -1.1820  -19.3071  -39.9377 C.3       8 UNK        -0.1800 
     34 N          -0.6385  -17.5885  -41.5967 N.am      8 UNK        -0.5000 
     35 C          -0.9139  -16.8136  -42.6572 C.2       7 UNK         0.5000 
     36 O          -1.6694  -17.1573  -43.5647 O.2       7 UNK        -0.5000 
     37 CA         -0.2091  -15.4444  -42.7437 C.3       7 UNK         0.1400 
     38 CB         -1.0949  -14.3457  -42.1389 C.3       7 UNK        -0.1800 
     39 N           1.0947  -15.4318  -42.0809 N.am      7 UNK        -0.5000 
     40 C           2.1666  -16.1210  -42.4970 C.2       6 UNK         0.5000 
     41 O           2.1920  -16.7537  -43.5534 O.2       6 UNK        -0.5000 
     42 CA          3.4108  -16.1458  -41.5823 C.3       6 UNK         0.1400 
     43 CB          4.4663  -15.1683  -42.1080 C.3       6 UNK        -0.1800 
     44 N           3.1502  -15.8064  -40.1845 N.am      6 UNK        -0.5000 
     45 C           2.2774  -16.3943  -39.3559 C.2       5 UNK         0.5000 
     46 O           1.6363  -17.4040  -39.6458 O.2       5 UNK        -0.5000 
     47 CA          2.0283  -15.6834  -38.0076 C.3       5 UNK         0.1400 
     48 CB          2.7789  -16.4016  -36.8766 C.3       5 UNK        -0.1800 
     49 N           2.4018  -14.2597  -38.0040 N.am      5 UNK        -0.5000 
     50 C           1.8944  -13.3179  -38.8155 C.2       4 UNK         0.5000 
     51 O           1.0105  -13.5609  -39.6401 O.2       4 UNK        -0.5000 
     52 CA          2.5083  -11.9005  -38.7158 C.3       4 UNK         0.1400 
     53 CB          3.9994  -11.9198  -38.3235 C.3       4 UNK        -0.1800 
     54 N           2.3801  -11.1647  -39.9751 N.am      4 UNK        -0.5000 
     55 C           1.2822  -10.5207  -40.3906 C.2       3 UNK         0.5000 
     56 O           0.2662  -10.3970  -39.7040 O.2       3 UNK        -0.5000 
     57 CA          1.3188   -9.8801  -41.7963 C.3       3 UNK         0.1400 
     58 CB          1.3086   -8.3463  -41.6870 C.3       3 UNK        -0.1800 
     59 N           2.4475  -10.2753  -42.6501 N.am      3 UNK        -0.5000 
     60 C           2.6269  -11.4912  -43.1817 C.2       2 UNK         0.5000 
     61 O           1.9281  -12.4653  -42.9001 O.2       2 UNK        -0.5000 
     62 CA          3.7836  -11.6350  -44.1931 C.3       2 UNK         0.1400 
     63 CB          5.1559  -11.6170  -43.4990 C.3       2 UNK        -0.1800 
     64 N           3.6480  -12.8639  -44.9806 N.am      2 UNK        -0.5000 
     65 C           2.7824  -13.0105  -45.9941 C.2       1 UNK         0.5000 
     66 O           2.1208  -12.0717  -46.4404 O.2       1 UNK        -0.5000 
     67 C          -1.3238  -21.2336  -49.9934 C.2       11 UNK         0.5000 
     68 O          -1.8159  -22.3218  -50.2885 O.2       11 UNK        -0.5000 
     69 N          -2.0384  -20.1111  -49.8167 N.am      12 UNK        -0.5000 
     70 CA         -3.4960  -20.0200  -49.8280 C.3       12 UNK         0.1400 
     71 CB         -3.9068  -18.5396  -49.8056 C.3       12 UNK        -0.1800 
     72 C          -4.1427  -20.7650  -48.6472 C.2       12 UNK         0.5000 
     73 O          -5.1317  -21.4691  -48.8453 O.2       12 UNK        -0.5000 
     74 N          -3.5579  -20.6126  -47.4493 N.am      13 UNK        -0.5000 
     75 CA         -3.9972  -21.2679  -46.2145 C.3       13 UNK         0.1400 
     76 CB         -3.3521  -20.5752  -45.0029 C.3       13 UNK        -0.1800 
     77 C          -3.6843  -22.7743  -46.2188 C.2       13 UNK         0.5000 
     78 O          -4.4956  -23.5680  -45.7416 O.2       13 UNK        -0.5000 
     79 N          -2.5343  -23.1404  -46.8014 N.am      14 UNK        -0.5000 
     80 CA         -2.1255  -24.5219  -47.0615 C.3       14 UNK         0.1400 
     81 CB         -0.6325  -24.5333  -47.4237 C.3       14 UNK        -0.1800 
     82 C          -2.9497  -25.2049  -48.1740 C.2       14 UNK         0.5000 
     83 O          -2.9346  -26.4332  -48.2596 O.2       14 UNK        -0.5000 
     84 N          -3.6379  -24.4003  -48.9988 N.am      15 UNK        -0.5000 
     85 CA         -4.4366  -24.7737  -50.1676 C.3       15 UNK         0.1400 
     86 CB         -5.6803  -25.5851  -49.7518 C.3       15 UNK        -0.1800 
     87 C          -3.5816  -25.4679  -51.2448 C.2       15 UNK         0.5000 
     88 O          -3.9303  -26.5497  -51.7214 O.2       15 UNK        -0.5000 
     89 N          -2.4626  -24.8246  -51.6040 N.am      16 UNK        -0.5000 
     90 CA         -1.4813  -25.2930  -52.5854 C.3       16 UNK         0.1400 
     91 CB         -0.3250  -24.2853  -52.6476 C.3       16 UNK        -0.1800 
     92 C          -2.0555  -25.5419  -53.9951 C.2       16 UNK         0.5000 
     93 O          -1.5809  -26.4442  -54.6861 O.2       16 UNK        -0.5000 
     94 N          -3.0753  -24.7649  -54.3811 N.am      17 UNK        -0.5000 
     95 CA         -3.8312  -24.9162  -55.6259 C.3       17 UNK         0.1400 
     96 CB         -3.8579  -23.5684  -56.3660 C.3       17 UNK        -0.1800 
     97 C          -5.2506  -25.4618  -55.3637 C.2       17 UNK         0.5000 
     98 O          -6.1417  -25.2596  -56.1910 O.2       17 UNK        -0.5000 
     99 N          -5.4460  -26.1425  -54.2231 N.am      18 UNK        -0.5000 
    100 CA        -6.6891  -26.7667  -53.7635 C.3       18 UNK         0.1400 
    101 CB        -7.0129  -28.0101  -54.6225 C.3       18 UNK        -0.1800 
    102 C         -7.8368  -25.7409  -53.6696 C.2       18 UNK         0.5000 
    103 O         -7.7189  -24.7765  -52.9119 O.2       18 UNK        -0.5000 
    104 N         -8.9039  -25.9371  -54.4557 N.am      19 UNK        -0.5000 
    105 CA       -10.0792  -25.0655  -54.5332 C.3       19 UNK         0.1400 
    106 CB       -11.1368  -25.7375  -55.4222 C.3       19 UNK        -0.1800 
    107 C         -9.7802  -23.6382  -55.0366 C.2       19 UNK         0.5000 
    108 O        -10.5485  -22.7243  -54.7351 O.2       19 UNK        -0.5000 
    109 N         -8.6699  -23.4605  -55.7674 N.am      20 UNK        -0.5000 
    110 CA        -8.1795  -22.1594  -56.2266 C.3       20 UNK         0.1400 
    111 CB        -7.4443  -22.3451  -57.5639 C.3       20 UNK        -0.1800 
    112 C         -7.2811  -21.4547  -55.1876 C.2       20 UNK         0.5000 
    113 O         -6.7678  -20.3745  -55.4858 O.2       20 UNK        -0.5000 
    114 N         -7.0918  -22.0664  -54.0062 N.am      21 UNK        -0.5000 
    115 CA        -6.2686  -21.6321  -52.8739 C.3       21 UNK         0.1400 
    116 CB        -6.7776  -20.3046  -52.2748 C.3       21 UNK        -0.1800 
    117 C         -4.7752  -21.6001  -53.2358 C.2       21 UNK         0.5000 
    118 O         -4.0591  -22.5473  -52.9164 O.2       21 UNK        -0.5000 
    119 N         -4.3480  -20.5422  -53.9276 N.am      22 UNK        -0.5000 
    120 CA        -3.0054  -20.3694  -54.4970 C.3       22 UNK         0.1400 
    121 C         -3.0194  -19.9483  -55.9962 C.2       22 UNK         0.5000 
    122 N         -4.1681  -19.8548  -56.6584 N.am      22 UNK        -0.7600 
    123 O         -1.9634  -19.7267  -56.5821 O.2       22 UNK        -0.5000 
    124 C124       -2.1177  -19.4546  -53.6156 C.3       23 UNK        -0.0398 
    125 S125       -2.7677  -17.7568  -53.4105 S.3       23 UNK        -0.2404 
    126 C126       -1.2798  -16.7414  -53.6793 C.3       23 UNK        -0.0205 
    127 H127        5.6603  -17.6532  -46.1372 H         1 UNK         0.0600 
    128 H128        4.5327  -17.4422  -44.7985 H         1 UNK         0.0600 
    129 H129        6.0972  -16.6205  -44.7732 H         1 UNK         0.0600 
    130 H130        2.8755  -16.0463  -45.2658 H         1 UNK         0.3000 
    131 H131        1.5593  -14.6942  -46.3212 H         1 UNK         0.0600 
    132 H132        3.4717  -13.7808  -48.4969 H         1 UNK         0.0800 
    133 H133        2.9772  -15.4404  -48.4962 H         1 UNK         0.0800 
    134 H134        0.6432  -16.2212  -48.1691 H         1 UNK         0.0800 
    135 H135       -0.7840  -15.4645  -48.8279 H         1 UNK         0.0800 
    136 H136       -1.2759  -15.5485  -51.2265 H         1 UNK         0.1150 
    137 H137        0.9548  -18.2961  -53.6363 H         1 UNK         0.1150 
    138 H138        2.2846  -17.3747  -49.6693 H         1 UNK         0.1150 
    139 H139        2.9941  -19.2061  -52.8938 H         1 UNK         0.0800 
    140 H140        3.8268  -18.4312  -51.5739 H         1 UNK         0.0800 
    141 H141        0.9609  -21.8727  -51.6406 H         1 UNK         0.0800 
    142 H142        0.4556  -20.2223  -51.7301 H         1 UNK         0.0800 
    143 H143        0.5243  -22.0658  -49.3189 H         1 UNK         0.0600 
    144 H144        1.0516  -19.3011  -49.0905 H         1 UNK         0.3000 
    145 H145        1.3683  -18.4177  -47.0311 H         1 UNK         0.0600 
    146 H146       -0.4291  -17.0179  -46.0934 H         1 UNK         0.0600 
    147 H147       -1.5351  -18.3850  -46.0228 H         1 UNK         0.0600 
    148 H148       -1.0513  -17.7354  -47.5754 H         1 UNK         0.0600 
    149 H149        0.2320  -18.8952  -44.5072 H         1 UNK         0.3000 
    150 H150        1.7479  -21.4436  -43.1529 H         1 UNK         0.0600 
    151 H151        4.0871  -20.7229  -43.2818 H         1 UNK         0.0600 
    152 H152        3.4388  -20.2087  -41.7329 H         1 UNK         0.0600 
    153 H153        3.6443  -19.0415  -43.0400 H         1 UNK         0.0600 
    154 H154        1.2755  -18.6725  -42.2514 H         1 UNK         0.3000 
    155 H155       -2.1462  -19.0255  -41.8284 H         1 UNK         0.0600 
    156 H156       -1.6215  -20.2933  -39.7833 H         1 UNK         0.0600 
    157 H157       -1.7905  -18.5902  -39.3863 H         1 UNK         0.0600 
    158 H158       -0.1883  -19.3203  -39.4895 H         1 UNK         0.0600 
    159 H159        0.0199  -17.2614  -40.8974 H         1 UNK         0.3000 
    160 H160       -0.0532  -15.2154  -43.8001 H         1 UNK         0.0600 
    161 H161       -1.2789  -14.5173  -41.0776 H         1 UNK         0.0600 
    162 H162       -2.0629  -14.3028  -42.6397 H         1 UNK         0.0600 
    163 H163       -0.6308  -13.3645  -42.2417 H         1 UNK         0.0600 
    164 H164        1.1625  -14.8740  -41.2357 H         1 UNK         0.3000 
    165 H165        3.8218  -17.1558  -41.6081 H         1 UNK         0.0600 
    166 H166        5.3971  -15.2452  -41.5457 H         1 UNK         0.0600 
    167 H167        4.7020  -15.3567  -43.1532 H         1 UNK         0.0600 
    168 H168        4.1054  -14.1440  -42.0285 H         1 UNK         0.0600 
    169 H169        3.6189  -14.9828  -39.8395 H         1 UNK         0.3000 
    170 H170        0.9575  -15.7457  -37.8040 H         1 UNK         0.0600 
    171 H171        3.8597  -16.3489  -37.0142 H         1 UNK         0.0600 
    172 H172        2.5411  -15.9664  -35.9058 H         1 UNK         0.0600 
    173 H173        2.5044  -17.4566  -36.8335 H         1 UNK         0.0600 
    174 H174        3.1248  -13.9922  -37.3517 H         1 UNK         0.3000 
    175 H175        1.9607  -11.3666  -37.9367 H         1 UNK         0.0600 
    176 H176        4.5922  -12.5194  -39.0158 H         1 UNK         0.0600 
    177 H177        4.4154  -10.9119  -38.3198 H         1 UNK         0.0600 
    178 H178        4.1472  -12.3210  -37.3204 H         1 UNK         0.0600 
    179 H179        3.1505  -11.2364  -40.6217 H         1 UNK         0.3000 
    180 H180        0.4011  -10.1878  -42.3020 H         1 UNK         0.0600 
    181 H181        1.2316   -7.8801  -42.6695 H         1 UNK         0.0600 
    182 H182        2.2135   -7.9727  -41.2063 H         1 UNK         0.0600 
    183 H183        0.4578   -7.9987  -41.0994 H         1 UNK         0.0600 
    184 H184        3.0799   -9.5333  -42.9139 H         1 UNK         0.3000 
    185 H185        3.7422  -10.7801  -44.8715 H         1 UNK         0.0600 
    186 H186        5.9625  -11.7009  -44.2276 H         1 UNK         0.0600 
    187 H187        5.3096  -10.6823  -42.9587 H         1 UNK         0.0600 
    188 H188        5.2729  -12.4269  -42.7824 H         1 UNK         0.0600 
    189 H189        4.1356  -13.6805  -44.6473 H         1 UNK         0.3000 
    190 H190       -1.5379  -19.2625  -49.6009 H         1 UNK         0.3000 
    191 H191       -3.8539  -20.4699  -50.7541 H         1 UNK         0.0600 
    192 H192       -3.5844  -18.0431  -48.8895 H         1 UNK         0.0600 
    193 H193       -4.9901  -18.4329  -49.8718 H         1 UNK         0.0600 
    194 H194       -3.4760  -17.9939  -50.6429 H         1 UNK         0.0600 
    195 H195       -2.7153  -20.0622  -47.3869 H         1 UNK         0.3000 
    196 H196       -5.0802  -21.1523  -46.1339 H         1 UNK         0.0600 
    197 H197       -3.6066  -19.5157  -44.9691 H         1 UNK         0.0600 
    198 H198       -2.2650  -20.6587  -45.0161 H         1 UNK         0.0600 
    199 H199       -3.6985  -21.0212  -44.0699 H         1 UNK         0.0600 
    200 H200       -1.8833  -22.4117  -47.0814 H         1 UNK         0.3000 
    201 H201       -2.2626  -25.0976  -46.1440 H         1 UNK         0.0600 
    202 H202       -0.0319  -24.0546  -46.6497 H         1 UNK         0.0600 
    203 H203       -0.4464  -24.0137  -48.3635 H         1 UNK         0.0600 
    204 H204       -0.2661  -25.5543  -47.5368 H         1 UNK         0.0600 
    205 H205       -3.5416  -23.4053  -48.8511 H         1 UNK         0.3000 
    206 H206       -4.7883  -23.8394  -50.6068 H         1 UNK         0.0600 
    207 H207       -5.4146  -26.5619  -49.3470 H         1 UNK         0.0600 
    208 H208       -6.2600  -25.0544  -48.9966 H         1 UNK         0.0600 
    209 H209       -6.3373  -25.7518  -50.6056 H         1 UNK         0.0600 
    210 H210       -2.2703  -23.9241  -51.1702 H         1 UNK         0.3000 
    211 H211       -1.0876  -26.2441  -52.2219 H         1 UNK         0.0600 
    212 H212       -0.6739  -23.2980  -52.9537 H         1 UNK         0.0600 
    213 H213        0.4372  -24.6031  -53.3602 H         1 UNK         0.0600 
    214 H214        0.1589  -24.1868  -51.6758 H         1 UNK         0.0600 
    215 H215       -3.4001  -24.0378  -53.7445 H         1 UNK         0.3000 
    216 H216       -3.3396  -25.6386  -56.2797 H         1 UNK         0.0600 
    217 H217       -4.2581  -23.6858  -57.3733 H         1 UNK         0.0600 
    218 H218       -2.8560  -23.1510  -56.4666 H         1 UNK         0.0600 
    219 H219       -4.4787  -22.8369  -55.8511 H         1 UNK         0.0600 
    220 H220       -4.6686  -26.2282  -53.5768 H         1 UNK         0.3000 
    221 H221       -6.5056  -27.1105  -52.7449 H         1 UNK         0.0600 
    222 H222       -7.1885  -27.7581  -55.6689 H         1 UNK         0.0600 
    223 H223       -6.1895  -28.7239  -54.5928 H         1 UNK         0.0600 
    224 H224       -7.8961  -28.5297  -54.2487 H         1 UNK         0.0600 
    225 H225       -8.9012  -26.7394  -55.0688 H         1 UNK         0.3000 
    226 H226      -10.4885  -24.9730  -53.5251 H         1 UNK         0.0600 
    227 H227      -11.4247  -26.7117  -55.0267 H         1 UNK         0.0600 
    228 H228      -12.0423  -25.1319  -55.4796 H         1 UNK         0.0600 
    229 H229      -10.7729  -25.8811  -56.4404 H         1 UNK         0.0600 
    230 H230       -8.0691  -24.2563  -55.9535 H         1 UNK         0.3000 
    231 H231       -9.0287  -21.4979  -56.4094 H         1 UNK         0.0600 
    232 H232       -7.1220  -21.3868  -57.9730 H         1 UNK         0.0600 
    233 H233       -8.0909  -22.8118  -58.3070 H         1 UNK         0.0600 
    234 H234       -6.5579  -22.9676  -57.4548 H         1 UNK         0.0600 
    235 H235       -7.5270  -22.9729  -53.8724 H         1 UNK         0.3000 
    236 H236       -6.3862  -22.3975  -52.1050 H         1 UNK         0.0600 
    237 H237       -6.7181  -19.4732  -52.9771 H         1 UNK         0.0600 
    238 H238       -7.8170  -20.3955  -51.9596 H         1 UNK         0.0600 
    239 H239       -6.1987  -20.0301  -51.3934 H         1 UNK         0.0600 
    240 H240       -5.0260  -19.8392  -54.1901 H         1 UNK         0.3000 
    241 H241       -2.5200  -21.3469  -54.5152 H         1 UNK         0.0600 
    242 H242       -4.1483  -19.5865  -57.6291 H         1 UNK         0.3800 
    243 H243       -5.0619  -20.0460  -56.2151 H         1 UNK         0.3800 
    244 H244       -1.1077  -19.4200  -54.0240 H         1 UNK         0.0800 
    245 H245       -2.0176  -19.8952  -52.6250 H         1 UNK         0.0800 
    246 H246       -0.8333  -16.9954  -54.6421 H         1 UNK         0.0800 
    247 H247       -1.5768  -15.6940  -53.7493 H         1 UNK         0.0800 
@<TRIPOS>BOND
     1    1    2 1    
     2    1  127 1    
     3    1  128 1    
     4    1  129 1    
     5    2    3 2    
     6    2    4 am   BACKBONE|DICT|INTERRES
     7    4    5 1    
     8    4  130 1    
     9    5    6 1    
    10    5   65 1    
    11    5  131 1    
    12    6    7 1    
    13    6  132 1    
    14    6  133 1    
    15    7    8 1    
    16    8    9 1    
    17    8  134 1    
    18    8  135 1    
    19    9   10 ar   
    20    9   14 ar   
    21   10   11 ar   
    22   10  136 1    
    23   11   12 ar   
    24   11  126 1    
    25   12   13 ar   
    26   12  137 1    
    27   13   14 ar   
    28   13   15 1    
    29   14  138 1    
    30   15   16 1    
    31   15  139 1    
    32   15  140 1    
    33   16   17 1    
    34   17   18 1    
    35   17  141 1    
    36   17  142 1    
    37   18   19 1    
    38   18   67 1    
    39   18  143 1    
    40   19   20 am   BACKBONE|DICT|INTERRES
    41   19  144 1    
    42   20   21 2    
    43   20   22 1    
    44   22   23 1    
    45   22   24 1    
    46   22  145 1    
    47   23  146 1    
    48   23  147 1    
    49   23  148 1    
    50   24   25 am   BACKBONE|DICT|INTERRES
    51   24  149 1    
    52   25   26 2    
    53   25   27 1    
    54   27   28 1    
    55   27   29 1    
    56   27  150 1    
    57   28  151 1    
    58   28  152 1    
    59   28  153 1    
    60   29   30 am   BACKBONE|DICT|INTERRES
    61   29  154 1    
    62   30   31 2    
    63   30   32 1    
    64   32   33 1    
    65   32   34 1    
    66   32  155 1    
    67   33  156 1    
    68   33  157 1    
    69   33  158 1    
    70   34   35 am   BACKBONE|DICT|INTERRES
    71   34  159 1    
    72   35   36 2    
    73   35   37 1    
    74   37   38 1    
    75   37   39 1    
    76   37  160 1    
    77   38  161 1    
    78   38  162 1    
    79   38  163 1    
    80   39   40 am   BACKBONE|DICT|INTERRES
    81   39  164 1    
    82   40   41 2    
    83   40   42 1    
    84   42   43 1    
    85   42   44 1    
    86   42  165 1    
    87   43  166 1    
    88   43  167 1    
    89   43  168 1    
    90   44   45 am   BACKBONE|DICT|INTERRES
    91   44  169 1    
    92   45   46 2    
    93   45   47 1    
    94   47   48 1    
    95   47   49 1    
    96   47  170 1    
    97   48  171 1    
    98   48  172 1    
    99   48  173 1    
   100   49   50 am   BACKBONE|DICT|INTERRES
   101   49  174 1    
   102   50   51 2    
   103   50   52 1    
   104   52   53 1    
   105   52   54 1    
   106   52  175 1    
   107   53  176 1    
   108   53  177 1    
   109   53  178 1    
   110   54   55 am   BACKBONE|DICT|INTERRES
   111   54  179 1    
   112   55   56 2    
   113   55   57 1    
   114   57   58 1    
   115   57   59 1    
   116   57  180 1    
   117   58  181 1    
   118   58  182 1    
   119   58  183 1    
   120   59   60 am   BACKBONE|DICT|INTERRES
   121   59  184 1    
   122   60   61 2    
   123   60   62 1    
   124   62   63 1    
   125   62   64 1    
   126   62  185 1    
   127   63  186 1    
   128   63  187 1    
   129   63  188 1    
   130   64   65 am   BACKBONE|DICT|INTERRES
   131   64  189 1    
   132   65   66 2    
   133   67   68 2    
   134   67   69 am   BACKBONE|DICT|INTERRES
   135   69   70 1    
   136   69  190 1    
   137   70   71 1    
   138   70   72 1    
   139   70  191 1    
   140   71  192 1    
   141   71  193 1    
   142   71  194 1    
   143   72   73 2    
   144   72   74 am   BACKBONE|DICT|INTERRES
   145   74   75 1    
   146   74  195 1    
   147   75   76 1    
   148   75   77 1    
   149   75  196 1    
   150   76  197 1    
   151   76  198 1    
   152   76  199 1    
   153   77   78 2    
   154   77   79 am   BACKBONE|DICT|INTERRES
   155   79   80 1    
   156   79  200 1    
   157   80   81 1    
   158   80   82 1    
   159   80  201 1    
   160   81  202 1    
   161   81  203 1    
   162   81  204 1    
   163   82   83 2    
   164   82   84 am   BACKBONE|DICT|INTERRES
   165   84   85 1    
   166   84  205 1    
   167   85   86 1    
   168   85   87 1    
   169   85  206 1    
   170   86  207 1    
   171   86  208 1    
   172   86  209 1    
   173   87   88 2    
   174   87   89 am   BACKBONE|DICT|INTERRES
   175   89   90 1    
   176   89  210 1    
   177   90   91 1    
   178   90   92 1    
   179   90  211 1    
   180   91  212 1    
   181   91  213 1    
   182   91  214 1    
   183   92   93 2    
   184   92   94 am   BACKBONE|DICT|INTERRES
   185   94   95 1    
   186   94  215 1    
   187   95   96 1    
   188   95   97 1    
   189   95  216 1    
   190   96  217 1    
   191   96  218 1    
   192   96  219 1    
   193   97   98 2    
   194   97   99 am   BACKBONE|DICT|INTERRES
   195   99  100 1    
   196   99  220 1    
   197  100  101 1    
   198  100  102 1    
   199  100  221 1    
   200  101  222 1    
   201  101  223 1    
   202  101  224 1    
   203  102  103 2    
   204  102  104 am   BACKBONE|DICT|INTERRES
   205  104  105 1    
   206  104  225 1    
   207  105  106 1    
   208  105  107 1    
   209  105  226 1    
   210  106  227 1    
   211  106  228 1    
   212  106  229 1    
   213  107  108 2    
   214  107  109 am   BACKBONE|DICT|INTERRES
   215  109  110 1    
   216  109  230 1    
   217  110  111 1    
   218  110  112 1    
   219  110  231 1    
   220  111  232 1    
   221  111  233 1    
   222  111  234 1    
   223  112  113 2    
   224  112  114 am   BACKBONE|DICT|INTERRES
   225  114  115 1    
   226  114  235 1    
   227  115  116 1    
   228  115  117 1    
   229  115  236 1    
   230  116  237 1    
   231  116  238 1    
   232  116  239 1    
   233  117  118 2    
   234  117  119 am   BACKBONE|DICT|INTERRES
   235  119  120 1    
   236  119  240 1    
   237  120  121 1    
   238  120  124 1    
   239  120  241 1    
   240  121  122 am   BACKBONE|DICT|INTERRES
   241  121  123 2    
   242  122  242 1    
   243  122  243 1    
   244  124  125 1    
   245  124  244 1    
   246  124  245 1    
   247  125  126 1    
   248  126  246 1    
   249  126  247 1    
@<TRIPOS>SUBSTRUCTURE
     1 UNK         1 GROUP             0       ****    0 ROOT    
