@<TRIPOS>MOLECULE
3R540
247   249    1
SMALL
USER_CHARGES


@<TRIPOS>ATOM
      1 CA         -3.9607  -18.0255  -46.3201 C.3       0 UNK        -0.1800 
      2 C          -2.8590  -17.0625  -46.7331 C.2       0 UNK         0.5000 
      3 O          -1.7592  -17.1302  -46.1904 O.2       0 UNK        -0.5000 
      4 N          -3.1555  -16.1910  -47.7069 N.am      1 UNK        -0.5000 
      5 CA         -2.2895  -15.1422  -48.2577 C.3       1 UNK         0.1400 
      6 C6         -0.8717  -15.6397  -48.6427 C.3       23 UNK        -0.0398 
      7 S7         -0.1360  -14.7031  -50.0193 S.3       23 UNK        -0.2404 
      8 C8          1.5888  -15.2810  -49.9315 C.3       23 UNK        -0.0205 
      9 C9          1.7037  -16.7885  -50.1051 C.ar      23 UNK        -0.0193 
     10 C10         1.4694  -17.3724  -51.3528 C.ar      23 UNK        -0.1150 
     11 C11         1.5881  -18.7541  -51.5244 C.ar      23 UNK        -0.0193 
     12 C12         1.9391  -19.5532  -50.4323 C.ar      23 UNK        -0.1150 
     13 C13         2.1817  -18.9831  -49.1784 C.ar      23 UNK        -0.0193 
     14 C14         2.0643  -17.5978  -49.0236 C.ar      23 UNK        -0.1150 
     15 C15         2.6231  -19.8671  -48.0154 C.3       23 UNK        -0.0205 
     16 S16         1.7014  -19.5793  -46.4677 S.3       23 UNK        -0.2404 
     17 C17         0.0065  -20.0363  -46.9542 C.3       23 UNK        -0.0398 
     18 CA         -0.2788  -21.5528  -46.8684 C.3       11 UNK         0.1400 
     19 N          -0.0052  -22.1149  -45.5417 N.am      11 UNK        -0.5000 
     20 C          -0.0145  -23.4244  -45.2552 C.2       10 UNK         0.5000 
     21 O          -0.2047  -24.3055  -46.0923 O.2       10 UNK        -0.5000 
     22 CA          0.1529  -23.8146  -43.7786 C.3       10 UNK         0.1400 
     23 CB          1.6369  -23.8795  -43.3872 C.3       10 UNK        -0.1800 
     24 N          -0.5642  -22.8898  -42.9007 N.am      10 UNK        -0.5000 
     25 C          -1.8999  -22.8652  -42.7786 C.2       9 UNK         0.5000 
     26 O          -2.6478  -23.6559  -43.3527 O.2       9 UNK        -0.5000 
     27 CA         -2.5080  -21.7482  -41.9083 C.3       9 UNK         0.1400 
     28 CB         -2.5661  -22.1821  -40.4364 C.3       9 UNK        -0.1800 
     29 N          -1.7807  -20.4825  -42.0113 N.am      9 UNK        -0.5000 
     30 C          -1.6760  -19.7550  -43.1326 C.2       8 UNK         0.5000 
     31 O          -2.2368  -20.0521  -44.1854 O.2       8 UNK        -0.5000 
     32 CA         -0.7439  -18.5285  -43.0839 C.3       8 UNK         0.1400 
     33 CB         -1.5324  -17.2648  -42.7108 C.3       8 UNK        -0.1800 
     34 N           0.3826  -18.6820  -42.1569 N.am      8 UNK        -0.5000 
     35 C           1.3250  -19.6339  -42.2341 C.2       7 UNK         0.5000 
     36 O           1.3045  -20.5311  -43.0773 O.2       7 UNK        -0.5000 
     37 CA          2.4361  -19.6146  -41.1600 C.3       7 UNK         0.1400 
     38 CB          3.7666  -20.2009  -41.6770 C.3       7 UNK        -0.1800 
     39 N           2.6419  -18.3011  -40.5303 N.am      7 UNK        -0.5000 
     40 C           3.0688  -17.1780  -41.1264 C.2       6 UNK         0.5000 
     41 O           3.3487  -17.1058  -42.3252 O.2       6 UNK        -0.5000 
     42 CA          3.1373  -15.9259  -40.2246 C.3       6 UNK         0.1400 
     43 CB          4.0959  -16.1104  -39.0284 C.3       6 UNK        -0.1800 
     44 N           3.4388  -14.7116  -40.9902 N.am      6 UNK        -0.5000 
     45 C           4.5972  -14.3523  -41.5607 C.2       5 UNK         0.5000 
     46 O           5.6775  -14.9154  -41.3727 O.2       5 UNK        -0.5000 
     47 CA          4.4945  -13.1949  -42.5739 C.3       5 UNK         0.1400 
     48 CB          5.8607  -12.5667  -42.9019 C.3       5 UNK        -0.1800 
     49 N           3.8852  -13.6731  -43.8150 N.am      5 UNK        -0.5000 
     50 C           2.5842  -13.9328  -43.9917 C.2       4 UNK         0.5000 
     51 O           1.7172  -13.6783  -43.1520 O.2       4 UNK        -0.5000 
     52 CA          2.1896  -14.5712  -45.3356 C.3       4 UNK         0.1400 
     53 CB          1.1554  -15.6930  -45.1409 C.3       4 UNK        -0.1800 
     54 N           1.6679  -13.5597  -46.2553 N.am      4 UNK        -0.5000 
     55 C           2.4229  -12.6279  -46.8575 C.2       3 UNK         0.5000 
     56 O           3.6509  -12.5972  -46.7638 O.2       3 UNK        -0.5000 
     57 CA          1.7164  -11.5562  -47.7129 C.3       3 UNK         0.1400 
     58 CB          2.2744  -11.5305  -49.1459 C.3       3 UNK        -0.1800 
     59 N           0.2653  -11.7318  -47.7835 N.am      3 UNK        -0.5000 
     60 C          -0.6247  -11.1511  -46.9668 C.2       2 UNK         0.5000 
     61 O          -0.3154  -10.4208  -46.0253 O.2       2 UNK        -0.5000 
     62 CA         -2.1134  -11.4354  -47.2527 C.3       2 UNK         0.1400 
     63 CB         -2.7197  -10.3105  -48.1055 C.3       2 UNK        -0.1800 
     64 N          -2.3196  -12.7157  -47.9355 N.am      2 UNK        -0.5000 
     65 C          -2.2118  -13.9078  -47.3354 C.2       1 UNK         0.5000 
     66 O          -2.0079  -14.0353  -46.1273 O.2       1 UNK        -0.5000 
     67 C          -1.7199  -21.8556  -47.3303 C.2       11 UNK         0.5000 
     68 O          -1.9279  -22.1946  -48.4952 O.2       11 UNK        -0.5000 
     69 N          -2.6874  -21.7634  -46.4087 N.am      12 UNK        -0.5000 
     70 CA         -4.0820  -22.1385  -46.6304 C.3       12 UNK         0.1400 
     71 CB         -4.9313  -21.7019  -45.4266 C.3       12 UNK        -0.1800 
     72 C          -4.2573  -23.6445  -46.8943 C.2       12 UNK         0.5000 
     73 O          -5.0035  -24.0138  -47.8000 O.2       12 UNK        -0.5000 
     74 N          -3.5750  -24.4790  -46.0996 N.am      13 UNK        -0.5000 
     75 CA         -3.6737  -25.9348  -46.1601 C.3       13 UNK         0.1400 
     76 CB         -3.1468  -26.5384  -44.8481 C.3       13 UNK        -0.1800 
     77 C          -2.9487  -26.5487  -47.3701 C.2       13 UNK         0.5000 
     78 O          -3.5608  -27.3145  -48.1157 O.2       13 UNK        -0.5000 
     79 N          -1.6529  -26.2450  -47.5178 N.am      14 UNK        -0.5000 
     80 CA         -0.7652  -26.9210  -48.4628 C.3       14 UNK         0.1400 
     81 CB          0.6524  -26.9959  -47.8719 C.3       14 UNK        -0.1800 
     82 C          -0.7428  -26.2409  -49.8377 C.2       14 UNK         0.5000 
     83 O          -0.8738  -26.9267  -50.8525 O.2       14 UNK        -0.5000 
     84 N          -0.5590  -24.9139  -49.8536 N.am      15 UNK        -0.5000 
     85 CA         -0.4167  -24.1355  -51.0878 C.3       15 UNK         0.1400 
     86 CB          0.4760  -22.9123  -50.8239 C.3       15 UNK        -0.1800 
     87 C          -1.7649  -23.7084  -51.6940 C.2       15 UNK         0.5000 
     88 O          -1.7917  -23.3176  -52.8593 O.2       15 UNK        -0.5000 
     89 N          -2.8438  -23.7754  -50.8986 N.am      16 UNK        -0.5000 
     90 CA         -4.2001  -23.3088  -51.2080 C.3       16 UNK         0.1400 
     91 CB         -4.8279  -24.1320  -52.3495 C.3       16 UNK        -0.1800 
     92 C          -4.2604  -21.7845  -51.4444 C.2       16 UNK         0.5000 
     93 O          -5.0667  -21.3009  -52.2436 O.2       16 UNK        -0.5000 
     94 N          -3.4138  -21.0403  -50.7187 N.am      17 UNK        -0.5000 
     95 CA         -3.2608  -19.5905  -50.8440 C.3       17 UNK         0.1400 
     96 CB         -1.9934  -19.1516  -50.1055 C.3       17 UNK        -0.1800 
     97 C          -4.4808  -18.8024  -50.3345 C.2       17 UNK         0.5000 
     98 O          -4.6920  -17.6713  -50.7681 O.2       17 UNK        -0.5000 
     99 N          -5.2924  -19.4251  -49.4677 N.am      18 UNK        -0.5000 
    100 CA        -6.5798  -18.9035  -48.9995 C.3       18 UNK         0.1400 
    101 CB        -7.0839  -19.7751  -47.8399 C.3       18 UNK        -0.1800 
    102 C         -7.6402  -18.8215  -50.1162 C.2       18 UNK         0.5000 
    103 O         -8.5144  -17.9568  -50.0595 O.2       18 UNK        -0.5000 
    104 N         -7.5231  -19.7002  -51.1209 N.am      19 UNK        -0.5000 
    105 CA        -8.3300  -19.6964  -52.3419 C.3       19 UNK         0.1400 
    106 CB        -8.6127  -21.1563  -52.7365 C.3       19 UNK        -0.1800 
    107 C         -7.6259  -18.9510  -53.4952 C.2       19 UNK         0.5000 
    108 O         -8.1865  -18.8757  -54.5891 O.2       19 UNK        -0.5000 
    109 N         -6.4047  -18.4488  -53.2444 N.am      20 UNK        -0.5000 
    110 CA        -5.4591  -17.8596  -54.1990 C.3       20 UNK         0.1400 
    111 CB        -5.9918  -16.5179  -54.7425 C.3       20 UNK        -0.1800 
    112 C         -5.0470  -18.8454  -55.3148 C.2       20 UNK         0.5000 
    113 O         -4.7805  -18.4269  -56.4424 O.2       20 UNK        -0.5000 
    114 N         -5.0060  -20.1420  -54.9804 N.am      21 UNK        -0.5000 
    115 CA        -4.7973  -21.2500  -55.9112 C.3       21 UNK         0.1400 
    116 CB        -5.8678  -22.3216  -55.6396 C.3       21 UNK        -0.1800 
    117 C         -3.3589  -21.8020  -55.8491 C.2       21 UNK         0.5000 
    118 O         -3.1497  -22.9902  -56.1001 O.2       21 UNK        -0.5000 
    119 N         -2.3939  -20.9247  -55.5401 N.am      22 UNK        -0.5000 
    120 CA        -0.9458  -21.1845  -55.5782 C.3       22 UNK         0.1400 
    121 C         -0.4561  -21.6698  -56.9739 C.2       22 UNK         0.5000 
    122 N          0.4309  -22.6546  -57.0212 N.am      22 UNK        -0.7600 
    123 O         -0.8359  -21.1269  -58.0095 O.2       22 UNK        -0.5000 
    124 C124       -0.1439  -19.9267  -55.1588 C.3       23 UNK        -0.0398 
    125 S125       -0.3454  -19.4838  -53.3981 S.3       23 UNK        -0.2404 
    126 C126        1.4043  -19.3672  -52.9044 C.3       23 UNK        -0.0205 
    127 H127       -3.9856  -18.1282  -45.2354 H         1 UNK         0.0600 
    128 H128       -3.7732  -19.0076  -46.7527 H         1 UNK         0.0600 
    129 H129       -4.9410  -17.6820  -46.6483 H         1 UNK         0.0600 
    130 H130       -4.0886  -16.2030  -48.0931 H         1 UNK         0.3000 
    131 H131       -2.7998  -14.8404  -49.1741 H         1 UNK         0.0600 
    132 H132       -0.9075  -16.6843  -48.9452 H         1 UNK         0.0800 
    133 H133       -0.1972  -15.6108  -47.7878 H         1 UNK         0.0800 
    134 H134        2.1682  -14.7865  -50.7123 H         1 UNK         0.0800 
    135 H135        2.0250  -14.9681  -48.9817 H         1 UNK         0.0800 
    136 H136        1.2021  -16.7486  -52.1943 H         1 UNK         0.1150 
    137 H137        2.0538  -20.6185  -50.5667 H         1 UNK         0.1150 
    138 H138        2.2616  -17.1504  -48.0597 H         1 UNK         0.1150 
    139 H139        2.5396  -20.9226  -48.2783 H         1 UNK         0.0800 
    140 H140        3.6812  -19.6829  -47.8264 H         1 UNK         0.0800 
    141 H141       -0.1714  -19.6665  -47.9629 H         1 UNK         0.0800 
    142 H142       -0.6781  -19.4880  -46.3078 H         1 UNK         0.0800 
    143 H143        0.3889  -22.0551  -47.5711 H         1 UNK         0.0600 
    144 H144        0.2021  -21.4554  -44.8012 H         1 UNK         0.3000 
    145 H145       -0.2700  -24.8127  -43.6452 H         1 UNK         0.0600 
    146 H146        1.7578  -24.1421  -42.3362 H         1 UNK         0.0600 
    147 H147        2.1567  -24.6378  -43.9740 H         1 UNK         0.0600 
    148 H148        2.1481  -22.9325  -43.5584 H         1 UNK         0.0600 
    149 H149       -0.0149  -22.1536  -42.4769 H         1 UNK         0.3000 
    150 H150       -3.5293  -21.5776  -42.2552 H         1 UNK         0.0600 
    151 H151       -3.1217  -23.1145  -40.3267 H         1 UNK         0.0600 
    152 H152       -3.0674  -21.4327  -39.8237 H         1 UNK         0.0600 
    153 H153       -1.5695  -22.3431  -40.0234 H         1 UNK         0.0600 
    154 H154       -1.2877  -20.1694  -41.1885 H         1 UNK         0.3000 
    155 H155       -0.3307  -18.3911  -44.0852 H         1 UNK         0.0600 
    156 H156       -0.9011  -16.3774  -42.7605 H         1 UNK         0.0600 
    157 H157       -1.9475  -17.3293  -41.7044 H         1 UNK         0.0600 
    158 H158       -2.3626  -17.1067  -43.4004 H         1 UNK         0.0600 
    159 H159        0.4644  -17.9904  -41.4273 H         1 UNK         0.3000 
    160 H160        2.0833  -20.2726  -40.3649 H         1 UNK         0.0600 
    161 H161        4.1448  -19.6506  -42.5389 H         1 UNK         0.0600 
    162 H162        3.6431  -21.2398  -41.9851 H         1 UNK         0.0600 
    163 H163        4.5338  -20.1828  -40.9029 H         1 UNK         0.0600 
    164 H164        2.4212  -18.2610  -39.5446 H         1 UNK         0.3000 
    165 H165        2.1337  -15.7738  -39.8250 H         1 UNK         0.0600 
    166 H166        5.0884  -16.4319  -39.3446 H         1 UNK         0.0600 
    167 H167        4.2062  -15.1847  -38.4634 H         1 UNK         0.0600 
    168 H168        3.7203  -16.8647  -38.3367 H         1 UNK         0.0600 
    169 H169        2.6191  -14.2148  -41.3222 H         1 UNK         0.3000 
    170 H170        3.8640  -12.4161  -42.1396 H         1 UNK         0.0600 
    171 H171        6.3487  -12.2018  -41.9974 H         1 UNK         0.0600 
    172 H172        6.5344  -13.2830  -43.3738 H         1 UNK         0.0600 
    173 H173        5.7505  -11.7176  -43.5767 H         1 UNK         0.0600 
    174 H174        4.5233  -13.8848  -44.5689 H         1 UNK         0.3000 
    175 H175        3.0795  -15.0251  -45.7773 H         1 UNK         0.0600 
    176 H176        0.1744  -15.3022  -44.8686 H         1 UNK         0.0600 
    177 H177        1.0427  -16.2910  -46.0436 H         1 UNK         0.0600 
    178 H178        1.4646  -16.3786  -44.3506 H         1 UNK         0.0600 
    179 H179        0.6633  -13.4917  -46.3302 H         1 UNK         0.3000 
    180 H180        1.9430  -10.5911  -47.2550 H         1 UNK         0.0600 
    181 H181        2.0910  -12.4679  -49.6692 H         1 UNK         0.0600 
    182 H182        3.3515  -11.3587  -49.1480 H         1 UNK         0.0600 
    183 H183        1.8208  -10.7290  -49.7292 H         1 UNK         0.0600 
    184 H184       -0.0781  -12.3233  -48.5263 H         1 UNK         0.3000 
    185 H185       -2.6385  -11.4579  -46.2951 H         1 UNK         0.0600 
    186 H186       -2.6060   -9.3435  -47.6137 H         1 UNK         0.0600 
    187 H187       -2.2389  -10.2403  -49.0821 H         1 UNK         0.0600 
    188 H188       -3.7863  -10.4682  -48.2660 H         1 UNK         0.0600 
    189 H189       -2.4901  -12.6737  -48.9305 H         1 UNK         0.3000 
    190 H190       -2.4561  -21.3876  -45.4922 H         1 UNK         0.3000 
    191 H191       -4.4366  -21.6006  -47.5109 H         1 UNK         0.0600 
    192 H192       -4.6325  -22.2163  -44.5135 H         1 UNK         0.0600 
    193 H193       -5.9866  -21.9206  -45.5941 H         1 UNK         0.0600 
    194 H194       -4.8454  -20.6316  -45.2434 H         1 UNK         0.0600 
    195 H195       -3.0195  -24.0926  -45.3443 H         1 UNK         0.3000 
    196 H196       -4.7303  -26.1995  -46.2412 H         1 UNK         0.0600 
    197 H197       -3.2037  -27.6275  -44.8664 H         1 UNK         0.0600 
    198 H198       -3.7341  -26.1972  -43.9955 H         1 UNK         0.0600 
    199 H199       -2.1067  -26.2657  -44.6662 H         1 UNK         0.0600 
    200 H200       -1.2185  -25.5687  -46.8919 H         1 UNK         0.3000 
    201 H201       -1.1088  -27.9481  -48.6060 H         1 UNK         0.0600 
    202 H202        0.6512  -27.5093  -46.9103 H         1 UNK         0.0600 
    203 H203        1.0853  -26.0065  -47.7213 H         1 UNK         0.0600 
    204 H204        1.3211  -27.5471  -48.5341 H         1 UNK         0.0600 
    205 H205       -0.4892  -24.4128  -48.9791 H         1 UNK         0.3000 
    206 H206        0.0899  -24.7478  -51.8370 H         1 UNK         0.0600 
    207 H207        1.4465  -23.2087  -50.4262 H         1 UNK         0.0600 
    208 H208        0.6578  -22.3630  -51.7485 H         1 UNK         0.0600 
    209 H209        0.0235  -22.2145  -50.1217 H         1 UNK         0.0600 
    210 H210       -2.6900  -24.0688  -49.9438 H         1 UNK         0.3000 
    211 H211       -4.7980  -23.4918  -50.3166 H         1 UNK         0.0600 
    212 H212       -4.3158  -23.9688  -53.2978 H         1 UNK         0.0600 
    213 H213       -5.8767  -23.8682  -52.4896 H         1 UNK         0.0600 
    214 H214       -4.7905  -25.1988  -52.1295 H         1 UNK         0.0600 
    215 H215       -2.7967  -21.5103  -50.0608 H         1 UNK         0.3000 
    216 H216       -3.1339  -19.3628  -51.9045 H         1 UNK         0.0600 
    217 H217       -1.1471  -19.7978  -50.3396 H         1 UNK         0.0600 
    218 H218       -2.1381  -19.1538  -49.0254 H         1 UNK         0.0600 
    219 H219       -1.7174  -18.1422  -50.4081 H         1 UNK         0.0600 
    220 H220       -5.0458  -20.3591  -49.1795 H         1 UNK         0.3000 
    221 H221       -6.4223  -17.8899  -48.6255 H         1 UNK         0.0600 
    222 H222       -7.2002  -20.8180  -48.1376 H         1 UNK         0.0600 
    223 H223       -6.3981  -19.7394  -46.9950 H         1 UNK         0.0600 
    224 H224       -8.0529  -19.4262  -47.4804 H         1 UNK         0.0600 
    225 H225       -6.7600  -20.3646  -51.1054 H         1 UNK         0.3000 
    226 H226       -9.2853  -19.1992  -52.1624 H         1 UNK         0.0600 
    227 H227       -9.1211  -21.6902  -51.9336 H         1 UNK         0.0600 
    228 H228       -9.2550  -21.2085  -53.6165 H         1 UNK         0.0600 
    229 H229       -7.6944  -21.6966  -52.9695 H         1 UNK         0.0600 
    230 H230       -6.0589  -18.5229  -52.2975 H         1 UNK         0.3000 
    231 H231       -4.5500  -17.6471  -53.6349 H         1 UNK         0.0600 
    232 H232       -5.2332  -16.0078  -55.3371 H         1 UNK         0.0600 
    233 H233       -6.2698  -15.8470  -53.9296 H         1 UNK         0.0600 
    234 H234       -6.8666  -16.6558  -55.3785 H         1 UNK         0.0600 
    235 H235       -5.1746  -20.4095  -54.0146 H         1 UNK         0.3000 
    236 H236       -4.9436  -20.9059  -56.9369 H         1 UNK         0.0600 
    237 H237       -6.8702  -21.9120  -55.7669 H         1 UNK         0.0600 
    238 H238       -5.7743  -23.1640  -56.3257 H         1 UNK         0.0600 
    239 H239       -5.7975  -22.7086  -54.6250 H         1 UNK         0.0600 
    240 H240       -2.6668  -19.9723  -55.3538 H         1 UNK         0.3000 
    241 H241       -0.7414  -21.9783  -54.8587 H         1 UNK         0.0600 
    242 H242        0.7570  -23.1131  -56.1843 H         1 UNK         0.3800 
    243 H243        0.7685  -22.9672  -57.9185 H         1 UNK         0.3800 
    244 H244        0.9187  -20.0801  -55.3567 H         1 UNK         0.0800 
    245 H245       -0.4347  -19.0678  -55.7663 H         1 UNK         0.0800 
    246 H246        1.9443  -18.7565  -53.6296 H         1 UNK         0.0800 
    247 H247        1.8536  -20.3606  -52.9452 H         1 UNK         0.0800 
@<TRIPOS>BOND
     1    1    2 1    
     2    1  127 1    
     3    1  128 1    
     4    1  129 1    
     5    2    3 2    
     6    2    4 am   BACKBONE|DICT|INTERRES
     7    4    5 1    
     8    4  130 1    
     9    5    6 1    
    10    5   65 1    
    11    5  131 1    
    12    6    7 1    
    13    6  132 1    
    14    6  133 1    
    15    7    8 1    
    16    8    9 1    
    17    8  134 1    
    18    8  135 1    
    19    9   10 ar   
    20    9   14 ar   
    21   10   11 ar   
    22   10  136 1    
    23   11   12 ar   
    24   11  126 1    
    25   12   13 ar   
    26   12  137 1    
    27   13   14 ar   
    28   13   15 1    
    29   14  138 1    
    30   15   16 1    
    31   15  139 1    
    32   15  140 1    
    33   16   17 1    
    34   17   18 1    
    35   17  141 1    
    36   17  142 1    
    37   18   19 1    
    38   18   67 1    
    39   18  143 1    
    40   19   20 am   BACKBONE|DICT|INTERRES
    41   19  144 1    
    42   20   21 2    
    43   20   22 1    
    44   22   23 1    
    45   22   24 1    
    46   22  145 1    
    47   23  146 1    
    48   23  147 1    
    49   23  148 1    
    50   24   25 am   BACKBONE|DICT|INTERRES
    51   24  149 1    
    52   25   26 2    
    53   25   27 1    
    54   27   28 1    
    55   27   29 1    
    56   27  150 1    
    57   28  151 1    
    58   28  152 1    
    59   28  153 1    
    60   29   30 am   BACKBONE|DICT|INTERRES
    61   29  154 1    
    62   30   31 2    
    63   30   32 1    
    64   32   33 1    
    65   32   34 1    
    66   32  155 1    
    67   33  156 1    
    68   33  157 1    
    69   33  158 1    
    70   34   35 am   BACKBONE|DICT|INTERRES
    71   34  159 1    
    72   35   36 2    
    73   35   37 1    
    74   37   38 1    
    75   37   39 1    
    76   37  160 1    
    77   38  161 1    
    78   38  162 1    
    79   38  163 1    
    80   39   40 am   BACKBONE|DICT|INTERRES
    81   39  164 1    
    82   40   41 2    
    83   40   42 1    
    84   42   43 1    
    85   42   44 1    
    86   42  165 1    
    87   43  166 1    
    88   43  167 1    
    89   43  168 1    
    90   44   45 am   BACKBONE|DICT|INTERRES
    91   44  169 1    
    92   45   46 2    
    93   45   47 1    
    94   47   48 1    
    95   47   49 1    
    96   47  170 1    
    97   48  171 1    
    98   48  172 1    
    99   48  173 1    
   100   49   50 am   BACKBONE|DICT|INTERRES
   101   49  174 1    
   102   50   51 2    
   103   50   52 1    
   104   52   53 1    
   105   52   54 1    
   106   52  175 1    
   107   53  176 1    
   108   53  177 1    
   109   53  178 1    
   110   54   55 am   BACKBONE|DICT|INTERRES
   111   54  179 1    
   112   55   56 2    
   113   55   57 1    
   114   57   58 1    
   115   57   59 1    
   116   57  180 1    
   117   58  181 1    
   118   58  182 1    
   119   58  183 1    
   120   59   60 am   BACKBONE|DICT|INTERRES
   121   59  184 1    
   122   60   61 2    
   123   60   62 1    
   124   62   63 1    
   125   62   64 1    
   126   62  185 1    
   127   63  186 1    
   128   63  187 1    
   129   63  188 1    
   130   64   65 am   BACKBONE|DICT|INTERRES
   131   64  189 1    
   132   65   66 2    
   133   67   68 2    
   134   67   69 am   BACKBONE|DICT|INTERRES
   135   69   70 1    
   136   69  190 1    
   137   70   71 1    
   138   70   72 1    
   139   70  191 1    
   140   71  192 1    
   141   71  193 1    
   142   71  194 1    
   143   72   73 2    
   144   72   74 am   BACKBONE|DICT|INTERRES
   145   74   75 1    
   146   74  195 1    
   147   75   76 1    
   148   75   77 1    
   149   75  196 1    
   150   76  197 1    
   151   76  198 1    
   152   76  199 1    
   153   77   78 2    
   154   77   79 am   BACKBONE|DICT|INTERRES
   155   79   80 1    
   156   79  200 1    
   157   80   81 1    
   158   80   82 1    
   159   80  201 1    
   160   81  202 1    
   161   81  203 1    
   162   81  204 1    
   163   82   83 2    
   164   82   84 am   BACKBONE|DICT|INTERRES
   165   84   85 1    
   166   84  205 1    
   167   85   86 1    
   168   85   87 1    
   169   85  206 1    
   170   86  207 1    
   171   86  208 1    
   172   86  209 1    
   173   87   88 2    
   174   87   89 am   BACKBONE|DICT|INTERRES
   175   89   90 1    
   176   89  210 1    
   177   90   91 1    
   178   90   92 1    
   179   90  211 1    
   180   91  212 1    
   181   91  213 1    
   182   91  214 1    
   183   92   93 2    
   184   92   94 am   BACKBONE|DICT|INTERRES
   185   94   95 1    
   186   94  215 1    
   187   95   96 1    
   188   95   97 1    
   189   95  216 1    
   190   96  217 1    
   191   96  218 1    
   192   96  219 1    
   193   97   98 2    
   194   97   99 am   BACKBONE|DICT|INTERRES
   195   99  100 1    
   196   99  220 1    
   197  100  101 1    
   198  100  102 1    
   199  100  221 1    
   200  101  222 1    
   201  101  223 1    
   202  101  224 1    
   203  102  103 2    
   204  102  104 am   BACKBONE|DICT|INTERRES
   205  104  105 1    
   206  104  225 1    
   207  105  106 1    
   208  105  107 1    
   209  105  226 1    
   210  106  227 1    
   211  106  228 1    
   212  106  229 1    
   213  107  108 2    
   214  107  109 am   BACKBONE|DICT|INTERRES
   215  109  110 1    
   216  109  230 1    
   217  110  111 1    
   218  110  112 1    
   219  110  231 1    
   220  111  232 1    
   221  111  233 1    
   222  111  234 1    
   223  112  113 2    
   224  112  114 am   BACKBONE|DICT|INTERRES
   225  114  115 1    
   226  114  235 1    
   227  115  116 1    
   228  115  117 1    
   229  115  236 1    
   230  116  237 1    
   231  116  238 1    
   232  116  239 1    
   233  117  118 2    
   234  117  119 am   BACKBONE|DICT|INTERRES
   235  119  120 1    
   236  119  240 1    
   237  120  121 1    
   238  120  124 1    
   239  120  241 1    
   240  121  122 am   BACKBONE|DICT|INTERRES
   241  121  123 2    
   242  122  242 1    
   243  122  243 1    
   244  124  125 1    
   245  124  244 1    
   246  124  245 1    
   247  125  126 1    
   248  126  246 1    
   249  126  247 1    
@<TRIPOS>SUBSTRUCTURE
     1 UNK         1 GROUP             0       ****    0 ROOT    
