@<TRIPOS>MOLECULE
3R540
247   249    1
SMALL
USER_CHARGES


@<TRIPOS>ATOM
      1 CA         -2.1089  -11.4152  -46.1197 C.3       0 UNK        -0.1800 
      2 C          -0.8195  -10.9012  -46.7429 C.2       0 UNK         0.5000 
      3 O          -0.2957   -9.8745  -46.3111 O.2       0 UNK        -0.5000 
      4 N          -0.3029  -11.6197  -47.7494 N.am      1 UNK        -0.5000 
      5 CA          0.9302  -11.3061  -48.4884 C.3       1 UNK         0.1400 
      6 C6          1.0960  -12.2056  -49.7372 C.3       23 UNK        -0.0398 
      7 S7          1.0145  -14.0047  -49.4005 S.3       23 UNK        -0.2404 
      8 C8          2.5090  -14.5875  -50.2606 C.3       23 UNK        -0.0205 
      9 C9          2.3684  -16.0326  -50.7124 C.ar      23 UNK        -0.0193 
     10 C10         1.5725  -16.3388  -51.8206 C.ar      23 UNK        -0.1150 
     11 C11         1.4632  -17.6550  -52.2766 C.ar      23 UNK        -0.0193 
     12 C12         2.1611  -18.6690  -51.6177 C.ar      23 UNK        -0.1150 
     13 C13         2.9454  -18.3802  -50.4969 C.ar      23 UNK        -0.0193 
     14 C14         3.0516  -17.0585  -50.0526 C.ar      23 UNK        -0.1150 
     15 C15         3.6770  -19.5001  -49.7710 C.3       23 UNK        -0.0205 
     16 S16         2.7560  -20.0823  -48.3113 S.3       23 UNK        -0.2404 
     17 C17         1.1658  -20.5723  -49.0644 C.3       23 UNK        -0.0398 
     18 CA          0.3981  -21.6294  -48.2410 C.3       11 UNK         0.1400 
     19 N           0.1127  -21.1816  -46.8745 N.am      11 UNK        -0.5000 
     20 C          -0.1605  -22.0088  -45.8581 C.2       10 UNK         0.5000 
     21 O          -0.2346  -23.2310  -45.9802 O.2       10 UNK        -0.5000 
     22 CA         -0.4420  -21.3676  -44.4891 C.3       10 UNK         0.1400 
     23 CB          0.8661  -20.9374  -43.8094 C.3       10 UNK        -0.1800 
     24 N          -1.3582  -20.2282  -44.5521 N.am      10 UNK        -0.5000 
     25 C          -2.6320  -20.2901  -44.9639 C.2       9 UNK         0.5000 
     26 O          -3.1484  -21.3052  -45.4286 O.2       9 UNK        -0.5000 
     27 CA         -3.4616  -19.0017  -44.8561 C.3       9 UNK         0.1400 
     28 CB         -3.8313  -18.7073  -43.3936 C.3       9 UNK        -0.1800 
     29 N          -2.7256  -17.8707  -45.4124 N.am      9 UNK        -0.5000 
     30 C          -2.8077  -17.4699  -46.6886 C.2       8 UNK         0.5000 
     31 O          -3.5964  -17.9451  -47.5052 O.2       8 UNK        -0.5000 
     32 CA         -1.8343  -16.3620  -47.1417 C.3       8 UNK         0.1400 
     33 CB         -2.5155  -14.9870  -47.1023 C.3       8 UNK        -0.1800 
     34 N          -0.5994  -16.3043  -46.3570 N.am      8 UNK        -0.5000 
     35 C           0.3152  -17.2817  -46.3208 C.2       7 UNK         0.5000 
     36 O           0.2026  -18.3442  -46.9278 O.2       7 UNK        -0.5000 
     37 CA          1.5242  -17.0634  -45.3982 C.3       7 UNK         0.1400 
     38 CB          2.6175  -16.2810  -46.1306 C.3       7 UNK        -0.1800 
     39 N           1.2057  -16.3944  -44.1331 N.am      7 UNK        -0.5000 
     40 C           0.3425  -16.8570  -43.2147 C.2       6 UNK         0.5000 
     41 O          -0.4154  -17.8075  -43.4157 O.2       6 UNK        -0.5000 
     42 CA          0.3300  -16.1408  -41.8477 C.3       6 UNK         0.1400 
     43 CB         -0.2485  -17.0177  -40.7187 C.3       6 UNK        -0.1800 
     44 N           1.6437  -15.6061  -41.4750 N.am      6 UNK        -0.5000 
     45 C           2.7945  -16.2766  -41.3010 C.2       5 UNK         0.5000 
     46 O           2.8861  -17.5041  -41.3305 O.2       5 UNK        -0.5000 
     47 CA          4.0700  -15.4332  -41.0954 C.3       5 UNK         0.1400 
     48 CB          5.0320  -15.6227  -42.2807 C.3       5 UNK        -0.1800 
     49 N           3.7704  -14.0054  -40.9719 N.am      5 UNK        -0.5000 
     50 C           3.6215  -13.3455  -39.8153 C.2       4 UNK         0.5000 
     51 O           3.8058  -13.8522  -38.7083 O.2       4 UNK        -0.5000 
     52 CA          3.1646  -11.8747  -39.9100 C.3       4 UNK         0.1400 
     53 CB          4.3796  -10.9348  -39.9224 C.3       4 UNK        -0.1800 
     54 N           2.3355  -11.5988  -41.0872 N.am      4 UNK        -0.5000 
     55 C           1.1153  -12.1106  -41.3034 C.2       3 UNK         0.5000 
     56 O           0.5316  -12.8423  -40.5053 O.2       3 UNK        -0.5000 
     57 CA          0.4577  -11.8075  -42.6629 C.3       3 UNK         0.1400 
     58 CB         -0.4544  -10.5769  -42.5523 C.3       3 UNK        -0.1800 
     59 N           1.4090  -11.6035  -43.7596 N.am      3 UNK        -0.5000 
     60 C           2.3137  -12.4935  -44.1911 C.2       2 UNK         0.5000 
     61 O           2.4648  -13.6149  -43.7014 O.2       2 UNK        -0.5000 
     62 CA          3.1145  -12.0633  -45.4238 C.3       2 UNK         0.1400 
     63 CB          4.3587  -12.9255  -45.7012 C.3       2 UNK        -0.1800 
     64 N           2.1834  -12.1055  -46.5410 N.am      2 UNK        -0.5000 
     65 C           2.1991  -11.2985  -47.6052 C.2       1 UNK         0.5000 
     66 O           3.1278  -10.5354  -47.8749 O.2       1 UNK        -0.5000 
     67 C          -0.8789  -22.0705  -48.9872 C.2       11 UNK         0.5000 
     68 O          -0.7700  -22.7889  -49.9824 O.2       11 UNK        -0.5000 
     69 N          -2.0579  -21.6526  -48.5039 N.am      12 UNK        -0.5000 
     70 CA         -3.3483  -22.1512  -48.9720 C.3       12 UNK         0.1400 
     71 CB         -4.4596  -21.1369  -48.6612 C.3       12 UNK        -0.1800 
     72 C          -3.6531  -23.5250  -48.3562 C.2       12 UNK         0.5000 
     73 O          -4.0026  -24.4507  -49.0885 O.2       12 UNK        -0.5000 
     74 N          -3.4702  -23.6412  -47.0322 N.am      13 UNK        -0.5000 
     75 CA         -3.6463  -24.8668  -46.2486 C.3       13 UNK         0.1400 
     76 CB         -3.4852  -24.5426  -44.7564 C.3       13 UNK        -0.1800 
     77 C          -2.6931  -26.0041  -46.6598 C.2       13 UNK         0.5000 
     78 O          -3.0762  -27.1724  -46.5865 O.2       13 UNK        -0.5000 
     79 N          -1.4921  -25.6441  -47.1358 N.am      14 UNK        -0.5000 
     80 CA         -0.4901  -26.5477  -47.7099 C.3       14 UNK         0.1400 
     81 CB          0.7726  -25.7413  -48.0506 C.3       14 UNK        -0.1800 
     82 C          -0.9766  -27.3244  -48.9524 C.2       14 UNK         0.5000 
     83 O          -0.4274  -28.3855  -49.2508 O.2       14 UNK        -0.5000 
     84 N          -2.0049  -26.8030  -49.6323 N.am      15 UNK        -0.5000 
     85 CA         -2.7097  -27.4444  -50.7376 C.3       15 UNK         0.1400 
     86 CB         -2.3357  -26.7424  -52.0532 C.3       15 UNK        -0.1800 
     87 C          -4.2198  -27.4667  -50.4319 C.2       15 UNK         0.5000 
     88 O          -5.0426  -27.1331  -51.2865 O.2       15 UNK        -0.5000 
     89 N          -4.5436  -27.8590  -49.1911 N.am      16 UNK        -0.5000 
     90 CA         -5.8638  -28.0264  -48.5776 C.3       16 UNK         0.1400 
     91 CB         -6.7312  -29.0417  -49.3476 C.3       16 UNK        -0.1800 
     92 C          -6.6155  -26.7076  -48.3276 C.2       16 UNK         0.5000 
     93 O          -6.9455  -26.4146  -47.1777 O.2       16 UNK        -0.5000 
     94 N          -6.8817  -25.9446  -49.3914 N.am      17 UNK        -0.5000 
     95 CA         -7.6307  -24.6891  -49.3607 C.3       17 UNK         0.1400 
     96 CB         -9.1331  -24.9606  -49.1285 C.3       17 UNK        -0.1800 
     97 C          -7.3659  -23.8803  -50.6410 C.2       17 UNK         0.5000 
     98 O          -8.2971  -23.3293  -51.2326 O.2       17 UNK        -0.5000 
     99 N          -6.0985  -23.8283  -51.0674 N.am      18 UNK        -0.5000 
    100 CA        -5.6527  -23.1332  -52.2752 C.3       18 UNK         0.1400 
    101 CB        -4.3260  -23.7471  -52.7419 C.3       18 UNK        -0.1800 
    102 C         -5.5557  -21.6103  -52.0599 C.2       18 UNK         0.5000 
    103 O         -4.4595  -21.0511  -52.0598 O.2       18 UNK        -0.5000 
    104 N         -6.7122  -20.9617  -51.8666 N.am      19 UNK        -0.5000 
    105 CA        -6.8501  -19.5066  -51.7310 C.3       19 UNK         0.1400 
    106 CB        -8.2966  -19.1746  -51.3361 C.3       19 UNK        -0.1800 
    107 C         -6.4398  -18.7401  -53.0066 C.2       19 UNK         0.5000 
    108 O         -5.9875  -17.5983  -52.9173 O.2       19 UNK        -0.5000 
    109 N         -6.5700  -19.4071  -54.1576 N.am      20 UNK        -0.5000 
    110 CA        -5.9132  -19.0799  -55.4152 C.3       20 UNK         0.1400 
    111 CB        -6.9765  -18.8334  -56.4963 C.3       20 UNK        -0.1800 
    112 C         -5.0328  -20.2867  -55.7751 C.2       20 UNK         0.5000 
    113 O         -5.4031  -21.4198  -55.4528 O.2       20 UNK        -0.5000 
    114 N         -3.8919  -20.0232  -56.4269 N.am      21 UNK        -0.5000 
    115 CA        -2.8382  -20.9920  -56.7635 C.3       21 UNK         0.1400 
    116 CB        -3.3425  -22.0384  -57.7808 C.3       21 UNK        -0.1800 
    117 C         -2.1873  -21.6195  -55.5090 C.2       21 UNK         0.5000 
    118 O         -1.9384  -22.8258  -55.4701 O.2       21 UNK        -0.5000 
    119 N         -1.9352  -20.7675  -54.5074 N.am      22 UNK        -0.5000 
    120 CA        -1.2432  -21.0600  -53.2420 C.3       22 UNK         0.1400 
    121 C          0.1757  -21.6781  -53.4090 C.2       22 UNK         0.5000 
    122 N          0.6344  -22.4501  -52.4328 N.am      22 UNK        -0.7600 
    123 O          0.8788  -21.4401  -54.3885 O.2       22 UNK        -0.5000 
    124 C124       -1.2207  -19.8211  -52.2924 C.3       23 UNK        -0.0398 
    125 S125       -1.1455  -18.1769  -53.1027 S.3       23 UNK        -0.2404 
    126 C126        0.6198  -17.9733  -53.5007 C.3       23 UNK        -0.0205 
    127 H127       -1.8850  -12.0757  -45.2820 H         1 UNK         0.0600 
    128 H128       -2.7095  -11.9643  -46.8447 H         1 UNK         0.0600 
    129 H129       -2.7096  -10.5843  -45.7493 H         1 UNK         0.0600 
    130 H130       -0.7808  -12.4534  -48.0596 H         1 UNK         0.3000 
    131 H131        0.8165  -10.2816  -48.8497 H         1 UNK         0.0600 
    132 H132        0.3018  -11.9757  -50.4487 H         1 UNK         0.0800 
    133 H133        2.0235  -11.9561  -50.2554 H         1 UNK         0.0800 
    134 H134        3.3715  -14.4644  -49.6036 H         1 UNK         0.0800 
    135 H135        2.6999  -13.9722  -51.1409 H         1 UNK         0.0800 
    136 H136        1.0418  -15.5484  -52.3328 H         1 UNK         0.1150 
    137 H137        2.0888  -19.6861  -51.9760 H         1 UNK         0.1150 
    138 H138        3.6720  -16.8301  -49.1984 H         1 UNK         0.1150 
    139 H139        3.8550  -20.3402  -50.4443 H         1 UNK         0.0800 
    140 H140        4.6606  -19.1512  -49.4533 H         1 UNK         0.0800 
    141 H141        1.3750  -20.9678  -50.0589 H         1 UNK         0.0800 
    142 H142        0.5602  -19.6754  -49.2062 H         1 UNK         0.0800 
    143 H143        1.0377  -22.5123  -48.1748 H         1 UNK         0.0600 
    144 H144        0.1460  -20.1751  -46.7216 H         1 UNK         0.3000 
    145 H145       -0.9120  -22.1277  -43.8617 H         1 UNK         0.0600 
    146 H146        0.6808  -20.5338  -42.8137 H         1 UNK         0.0600 
    147 H147        1.3864  -20.1742  -44.3872 H         1 UNK         0.0600 
    148 H148        1.5448  -21.7838  -43.6977 H         1 UNK         0.0600 
    149 H149       -1.0088  -19.3493  -44.1760 H         1 UNK         0.3000 
    150 H150       -4.3910  -19.1520  -45.4099 H         1 UNK         0.0600 
    151 H151       -4.3907  -19.5370  -42.9596 H         1 UNK         0.0600 
    152 H152       -4.4581  -17.8186  -43.3191 H         1 UNK         0.0600 
    153 H153       -2.9497  -18.5463  -42.7724 H         1 UNK         0.0600 
    154 H154       -2.0081  -17.4689  -44.8224 H         1 UNK         0.3000 
    155 H155       -1.5599  -16.5759  -48.1772 H         1 UNK         0.0600 
    156 H156       -1.8694  -14.2220  -47.5307 H         1 UNK         0.0600 
    157 H157       -2.7669  -14.6897  -46.0835 H         1 UNK         0.0600 
    158 H158       -3.4396  -14.9909  -47.6820 H         1 UNK         0.0600 
    159 H159       -0.4441  -15.4783  -45.7999 H         1 UNK         0.3000 
    160 H160        1.9290  -18.0456  -45.1508 H         1 UNK         0.0600 
    161 H161        2.2706  -15.2906  -46.4270 H         1 UNK         0.0600 
    162 H162        2.9250  -16.8069  -47.0339 H         1 UNK         0.0600 
    163 H163        3.5029  -16.1665  -45.5056 H         1 UNK         0.0600 
    164 H164        1.7634  -15.5801  -43.8983 H         1 UNK         0.3000 
    165 H165       -0.3275  -15.2786  -41.9651 H         1 UNK         0.0600 
    166 H166       -0.2445  -16.4867  -39.7668 H         1 UNK         0.0600 
    167 H167       -1.2818  -17.2958  -40.9297 H         1 UNK         0.0600 
    168 H168        0.3175  -17.9409  -40.5918 H         1 UNK         0.0600 
    169 H169        1.6872  -14.5992  -41.4034 H         1 UNK         0.3000 
    170 H170        4.5641  -15.7957  -40.1918 H         1 UNK         0.0600 
    171 H171        5.9487  -15.0499  -42.1394 H         1 UNK         0.0600 
    172 H172        5.3181  -16.6694  -42.3909 H         1 UNK         0.0600 
    173 H173        4.5810  -15.3058  -43.2218 H         1 UNK         0.0600 
    174 H174        3.5696  -13.5241  -41.8397 H         1 UNK         0.3000 
    175 H175        2.5707  -11.6561  -39.0200 H         1 UNK         0.0600 
    176 H176        5.0021  -11.0926  -40.8040 H         1 UNK         0.0600 
    177 H177        4.0703   -9.8895  -39.9112 H         1 UNK         0.0600 
    178 H178        5.0069  -11.0958  -39.0445 H         1 UNK         0.0600 
    179 H179        2.7369  -11.0029  -41.7962 H         1 UNK         0.3000 
    180 H180       -0.1610  -12.6685  -42.9239 H         1 UNK         0.0600 
    181 H181       -0.9962  -10.3990  -43.4809 H         1 UNK         0.0600 
    182 H182        0.1136   -9.6755  -42.3189 H         1 UNK         0.0600 
    183 H183       -1.1979  -10.7100  -41.7652 H         1 UNK         0.0600 
    184 H184        1.3281  -10.7260  -44.2554 H         1 UNK         0.3000 
    185 H185        3.4423  -11.0351  -45.2555 H         1 UNK         0.0600 
    186 H186        4.0998  -13.9507  -45.9512 H         1 UNK         0.0600 
    187 H187        4.9366  -12.5205  -46.5318 H         1 UNK         0.0600 
    188 H188        5.0153  -12.9544  -44.8309 H         1 UNK         0.0600 
    189 H189        1.3682  -12.6858  -46.4040 H         1 UNK         0.3000 
    190 H190       -2.0636  -21.0766  -47.6742 H         1 UNK         0.3000 
    191 H191       -3.3019  -22.2758  -50.0540 H         1 UNK         0.0600 
    192 H192       -4.2814  -20.1942  -49.1791 H         1 UNK         0.0600 
    193 H193       -4.5383  -20.9214  -47.5965 H         1 UNK         0.0600 
    194 H194       -5.4305  -21.5082  -48.9905 H         1 UNK         0.0600 
    195 H195       -3.2206  -22.8103  -46.5003 H         1 UNK         0.3000 
    196 H196       -4.6659  -25.2171  -46.4124 H         1 UNK         0.0600 
    197 H197       -4.2144  -23.7990  -44.4341 H         1 UNK         0.0600 
    198 H198       -2.4908  -24.1533  -44.5353 H         1 UNK         0.0600 
    199 H199       -3.6352  -25.4323  -44.1437 H         1 UNK         0.0600 
    200 H200       -1.2264  -24.6682  -47.0601 H         1 UNK         0.3000 
    201 H201       -0.2336  -27.2832  -46.9452 H         1 UNK         0.0600 
    202 H202        1.1826  -25.2539  -47.1661 H         1 UNK         0.0600 
    203 H203        0.5670  -24.9722  -48.7956 H         1 UNK         0.0600 
    204 H204        1.5533  -26.3876  -48.4538 H         1 UNK         0.0600 
    205 H205       -2.4186  -25.9380  -49.3021 H         1 UNK         0.3000 
    206 H206       -2.4139  -28.4918  -50.8246 H         1 UNK         0.0600 
    207 H207       -2.4608  -25.6647  -51.9765 H         1 UNK         0.0600 
    208 H208       -1.2925  -26.9302  -52.3072 H         1 UNK         0.0600 
    209 H209       -2.9409  -27.0978  -52.8880 H         1 UNK         0.0600 
    210 H210       -3.7754  -28.0159  -48.5499 H         1 UNK         0.3000 
    211 H211       -5.6669  -28.4582  -47.5949 H         1 UNK         0.0600 
    212 H212       -6.9833  -28.6943  -50.3497 H         1 UNK         0.0600 
    213 H213       -7.6700  -29.2242  -48.8233 H         1 UNK         0.0600 
    214 H214       -6.2217  -30.0004  -49.4442 H         1 UNK         0.0600 
    215 H215       -6.5106  -26.2363  -50.2921 H         1 UNK         0.3000 
    216 H216       -7.2562  -24.0833  -48.5329 H         1 UNK         0.0600 
    217 H217       -9.7004  -24.0298  -49.0922 H         1 UNK         0.0600 
    218 H218       -9.3088  -25.4745  -48.1838 H         1 UNK         0.0600 
    219 H219       -9.5544  -25.5737  -49.9259 H         1 UNK         0.0600 
    220 H220       -5.3758  -24.2636  -50.5012 H         1 UNK         0.3000 
    221 H221       -6.3819  -23.3009  -53.0709 H         1 UNK         0.0600 
    222 H222       -3.5439  -23.6369  -51.9910 H         1 UNK         0.0600 
    223 H223       -4.4451  -24.8077  -52.9614 H         1 UNK         0.0600 
    224 H224       -3.9771  -23.2662  -53.6557 H         1 UNK         0.0600 
    225 H225       -7.5612  -21.5155  -51.8187 H         1 UNK         0.3000 
    226 H226       -6.1893  -19.1814  -50.9247 H         1 UNK         0.0600 
    227 H227       -8.5689  -19.6556  -50.3964 H         1 UNK         0.0600 
    228 H228       -8.4278  -18.1002  -51.2012 H         1 UNK         0.0600 
    229 H229       -9.0060  -19.4997  -52.0982 H         1 UNK         0.0600 
    230 H230       -6.8910  -20.3645  -54.1039 H         1 UNK         0.3000 
    231 H231       -5.2848  -18.1930  -55.3097 H         1 UNK         0.0600 
    232 H232       -6.5117  -18.5895  -57.4523 H         1 UNK         0.0600 
    233 H233       -7.6244  -17.9993  -56.2262 H         1 UNK         0.0600 
    234 H234       -7.6066  -19.7104  -56.6504 H         1 UNK         0.0600 
    235 H235       -3.6860  -19.0620  -56.6623 H         1 UNK         0.3000 
    236 H236       -2.0484  -20.4217  -57.2546 H         1 UNK         0.0600 
    237 H237       -4.0864  -22.7064  -57.3461 H         1 UNK         0.0600 
    238 H238       -3.7896  -21.5587  -58.6514 H         1 UNK         0.0600 
    239 H239       -2.5204  -22.6588  -58.1393 H         1 UNK         0.0600 
    240 H240       -2.1760  -19.7960  -54.6355 H         1 UNK         0.3000 
    241 H241       -1.8432  -21.8303  -52.7536 H         1 UNK         0.0600 
    242 H242        1.5486  -22.8622  -52.5276 H         1 UNK         0.3800 
    243 H243        0.0727  -22.6649  -51.6110 H         1 UNK         0.3800 
    244 H244       -0.4318  -19.8928  -51.5438 H         1 UNK         0.0800 
    245 H245       -2.1434  -19.8228  -51.7114 H         1 UNK         0.0800 
    246 H246        0.7169  -17.1603  -54.2217 H         1 UNK         0.0800 
    247 H247        0.9953  -18.8611  -54.0079 H         1 UNK         0.0800 
@<TRIPOS>BOND
     1    1    2 1    
     2    1  127 1    
     3    1  128 1    
     4    1  129 1    
     5    2    3 2    
     6    2    4 am   BACKBONE|DICT|INTERRES
     7    4    5 1    
     8    4  130 1    
     9    5    6 1    
    10    5   65 1    
    11    5  131 1    
    12    6    7 1    
    13    6  132 1    
    14    6  133 1    
    15    7    8 1    
    16    8    9 1    
    17    8  134 1    
    18    8  135 1    
    19    9   10 ar   
    20    9   14 ar   
    21   10   11 ar   
    22   10  136 1    
    23   11   12 ar   
    24   11  126 1    
    25   12   13 ar   
    26   12  137 1    
    27   13   14 ar   
    28   13   15 1    
    29   14  138 1    
    30   15   16 1    
    31   15  139 1    
    32   15  140 1    
    33   16   17 1    
    34   17   18 1    
    35   17  141 1    
    36   17  142 1    
    37   18   19 1    
    38   18   67 1    
    39   18  143 1    
    40   19   20 am   BACKBONE|DICT|INTERRES
    41   19  144 1    
    42   20   21 2    
    43   20   22 1    
    44   22   23 1    
    45   22   24 1    
    46   22  145 1    
    47   23  146 1    
    48   23  147 1    
    49   23  148 1    
    50   24   25 am   BACKBONE|DICT|INTERRES
    51   24  149 1    
    52   25   26 2    
    53   25   27 1    
    54   27   28 1    
    55   27   29 1    
    56   27  150 1    
    57   28  151 1    
    58   28  152 1    
    59   28  153 1    
    60   29   30 am   BACKBONE|DICT|INTERRES
    61   29  154 1    
    62   30   31 2    
    63   30   32 1    
    64   32   33 1    
    65   32   34 1    
    66   32  155 1    
    67   33  156 1    
    68   33  157 1    
    69   33  158 1    
    70   34   35 am   BACKBONE|DICT|INTERRES
    71   34  159 1    
    72   35   36 2    
    73   35   37 1    
    74   37   38 1    
    75   37   39 1    
    76   37  160 1    
    77   38  161 1    
    78   38  162 1    
    79   38  163 1    
    80   39   40 am   BACKBONE|DICT|INTERRES
    81   39  164 1    
    82   40   41 2    
    83   40   42 1    
    84   42   43 1    
    85   42   44 1    
    86   42  165 1    
    87   43  166 1    
    88   43  167 1    
    89   43  168 1    
    90   44   45 am   BACKBONE|DICT|INTERRES
    91   44  169 1    
    92   45   46 2    
    93   45   47 1    
    94   47   48 1    
    95   47   49 1    
    96   47  170 1    
    97   48  171 1    
    98   48  172 1    
    99   48  173 1    
   100   49   50 am   BACKBONE|DICT|INTERRES
   101   49  174 1    
   102   50   51 2    
   103   50   52 1    
   104   52   53 1    
   105   52   54 1    
   106   52  175 1    
   107   53  176 1    
   108   53  177 1    
   109   53  178 1    
   110   54   55 am   BACKBONE|DICT|INTERRES
   111   54  179 1    
   112   55   56 2    
   113   55   57 1    
   114   57   58 1    
   115   57   59 1    
   116   57  180 1    
   117   58  181 1    
   118   58  182 1    
   119   58  183 1    
   120   59   60 am   BACKBONE|DICT|INTERRES
   121   59  184 1    
   122   60   61 2    
   123   60   62 1    
   124   62   63 1    
   125   62   64 1    
   126   62  185 1    
   127   63  186 1    
   128   63  187 1    
   129   63  188 1    
   130   64   65 am   BACKBONE|DICT|INTERRES
   131   64  189 1    
   132   65   66 2    
   133   67   68 2    
   134   67   69 am   BACKBONE|DICT|INTERRES
   135   69   70 1    
   136   69  190 1    
   137   70   71 1    
   138   70   72 1    
   139   70  191 1    
   140   71  192 1    
   141   71  193 1    
   142   71  194 1    
   143   72   73 2    
   144   72   74 am   BACKBONE|DICT|INTERRES
   145   74   75 1    
   146   74  195 1    
   147   75   76 1    
   148   75   77 1    
   149   75  196 1    
   150   76  197 1    
   151   76  198 1    
   152   76  199 1    
   153   77   78 2    
   154   77   79 am   BACKBONE|DICT|INTERRES
   155   79   80 1    
   156   79  200 1    
   157   80   81 1    
   158   80   82 1    
   159   80  201 1    
   160   81  202 1    
   161   81  203 1    
   162   81  204 1    
   163   82   83 2    
   164   82   84 am   BACKBONE|DICT|INTERRES
   165   84   85 1    
   166   84  205 1    
   167   85   86 1    
   168   85   87 1    
   169   85  206 1    
   170   86  207 1    
   171   86  208 1    
   172   86  209 1    
   173   87   88 2    
   174   87   89 am   BACKBONE|DICT|INTERRES
   175   89   90 1    
   176   89  210 1    
   177   90   91 1    
   178   90   92 1    
   179   90  211 1    
   180   91  212 1    
   181   91  213 1    
   182   91  214 1    
   183   92   93 2    
   184   92   94 am   BACKBONE|DICT|INTERRES
   185   94   95 1    
   186   94  215 1    
   187   95   96 1    
   188   95   97 1    
   189   95  216 1    
   190   96  217 1    
   191   96  218 1    
   192   96  219 1    
   193   97   98 2    
   194   97   99 am   BACKBONE|DICT|INTERRES
   195   99  100 1    
   196   99  220 1    
   197  100  101 1    
   198  100  102 1    
   199  100  221 1    
   200  101  222 1    
   201  101  223 1    
   202  101  224 1    
   203  102  103 2    
   204  102  104 am   BACKBONE|DICT|INTERRES
   205  104  105 1    
   206  104  225 1    
   207  105  106 1    
   208  105  107 1    
   209  105  226 1    
   210  106  227 1    
   211  106  228 1    
   212  106  229 1    
   213  107  108 2    
   214  107  109 am   BACKBONE|DICT|INTERRES
   215  109  110 1    
   216  109  230 1    
   217  110  111 1    
   218  110  112 1    
   219  110  231 1    
   220  111  232 1    
   221  111  233 1    
   222  111  234 1    
   223  112  113 2    
   224  112  114 am   BACKBONE|DICT|INTERRES
   225  114  115 1    
   226  114  235 1    
   227  115  116 1    
   228  115  117 1    
   229  115  236 1    
   230  116  237 1    
   231  116  238 1    
   232  116  239 1    
   233  117  118 2    
   234  117  119 am   BACKBONE|DICT|INTERRES
   235  119  120 1    
   236  119  240 1    
   237  120  121 1    
   238  120  124 1    
   239  120  241 1    
   240  121  122 am   BACKBONE|DICT|INTERRES
   241  121  123 2    
   242  122  242 1    
   243  122  243 1    
   244  124  125 1    
   245  124  244 1    
   246  124  245 1    
   247  125  126 1    
   248  126  246 1    
   249  126  247 1    
@<TRIPOS>SUBSTRUCTURE
     1 UNK         1 GROUP             0       ****    0 ROOT    
