@<TRIPOS>MOLECULE
3R540
247   249    1
SMALL
USER_CHARGES


@<TRIPOS>ATOM
      1 CA         -2.7020  -14.5242  -44.1454 C.3       0 UNK        -0.1800 
      2 C          -2.0518  -13.7917  -45.3103 C.2       0 UNK         0.5000 
      3 O          -0.9592  -14.1629  -45.7330 O.2       0 UNK        -0.5000 
      4 N          -2.7055  -12.7368  -45.8176 N.am      1 UNK        -0.5000 
      5 CA         -2.2770  -11.8526  -46.9155 C.3       1 UNK         0.1400 
      6 C6         -1.9562  -12.6063  -48.2381 C.3       23 UNK        -0.0398 
      7 S7         -2.5900  -11.7474  -49.7215 S.3       23 UNK        -0.2404 
      8 C8         -4.3263  -12.3073  -49.7948 C.3       23 UNK        -0.0205 
      9 C9         -4.4400  -13.8091  -50.0090 C.ar      23 UNK        -0.0193 
     10 C10        -4.3199  -14.3567  -51.2901 C.ar      23 UNK        -0.1150 
     11 C11        -4.3700  -15.7425  -51.4765 C.ar      23 UNK        -0.0193 
     12 C12        -4.5279  -16.5791  -50.3665 C.ar      23 UNK        -0.1150 
     13 C13        -4.6699  -16.0396  -49.0855 C.ar      23 UNK        -0.0193 
     14 C14        -4.6462  -14.6547  -48.9163 C.ar      23 UNK        -0.1150 
     15 C15        -4.8241  -16.9451  -47.8774 C.3       23 UNK        -0.0205 
     16 S16        -3.2453  -17.1000  -46.9892 S.3       23 UNK        -0.2404 
     17 C17        -3.6972  -18.3283  -45.7246 C.3       23 UNK        -0.0398 
     18 CA         -3.3863  -19.7584  -46.2143 C.3       11 UNK         0.1400 
     19 N          -1.9490  -20.0300  -46.3177 N.am      11 UNK        -0.5000 
     20 C          -1.4280  -21.1191  -46.8993 C.2       10 UNK         0.5000 
     21 O          -2.1050  -21.9845  -47.4536 O.2       10 UNK        -0.5000 
     22 CA          0.0951  -21.3078  -46.7977 C.3       10 UNK         0.1400 
     23 CB          0.8298  -20.4481  -47.8366 C.3       10 UNK        -0.1800 
     24 N           0.5993  -21.0229  -45.4536 N.am      10 UNK        -0.5000 
     25 C           0.2578  -21.7230  -44.3616 C.2       9 UNK         0.5000 
     26 O          -0.4630  -22.7196  -44.3914 O.2       9 UNK        -0.5000 
     27 CA          0.7664  -21.2079  -43.0040 C.3       9 UNK         0.1400 
     28 CB          2.1936  -21.7073  -42.7364 C.3       9 UNK        -0.1800 
     29 N           0.7184  -19.7497  -42.8898 N.am      9 UNK        -0.5000 
     30 C          -0.4032  -19.0151  -42.9230 C.2       8 UNK         0.5000 
     31 O          -1.5325  -19.4964  -43.0194 O.2       8 UNK        -0.5000 
     32 CA         -0.2335  -17.4832  -42.9021 C.3       8 UNK         0.1400 
     33 CB          0.0254  -16.9701  -41.4784 C.3       8 UNK        -0.1800 
     34 N           0.8325  -17.0223  -43.7915 N.am      8 UNK        -0.5000 
     35 C           0.8381  -17.2067  -45.1200 C.2       7 UNK         0.5000 
     36 O          -0.0730  -17.7569  -45.7384 O.2       7 UNK        -0.5000 
     37 CA          2.1171  -16.7862  -45.8647 C.3       7 UNK         0.1400 
     38 CB          2.1636  -15.2695  -46.1049 C.3       7 UNK        -0.1800 
     39 N           3.3164  -17.2072  -45.1401 N.am      7 UNK        -0.5000 
     40 C           3.7155  -18.4819  -45.0242 C.2       6 UNK         0.5000 
     41 O           3.1317  -19.4309  -45.5466 O.2       6 UNK        -0.5000 
     42 CA          4.9550  -18.7442  -44.1490 C.3       6 UNK         0.1400 
     43 CB          6.2424  -18.5575  -44.9655 C.3       6 UNK        -0.1800 
     44 N           5.0050  -17.8866  -42.9641 N.am      6 UNK        -0.5000 
     45 C           4.1264  -17.9365  -41.9527 C.2       5 UNK         0.5000 
     46 O           3.1949  -18.7364  -41.8965 O.2       5 UNK        -0.5000 
     47 CA          4.2871  -16.8863  -40.8393 C.3       5 UNK         0.1400 
     48 CB          5.2258  -17.4047  -39.7399 C.3       5 UNK        -0.1800 
     49 N           4.7779  -15.5968  -41.3306 N.am      5 UNK        -0.5000 
     50 C           4.1187  -14.8118  -42.1924 C.2       4 UNK         0.5000 
     51 O           3.0311  -15.1057  -42.6955 O.2       4 UNK        -0.5000 
     52 CA          4.8289  -13.5101  -42.6041 C.3       4 UNK         0.1400 
     53 CB          5.4276  -13.6556  -44.0121 C.3       4 UNK        -0.1800 
     54 N           3.9309  -12.3581  -42.5886 N.am      4 UNK        -0.5000 
     55 C           3.3248  -11.8549  -41.5037 C.2       3 UNK         0.5000 
     56 O           3.4943  -12.2917  -40.3642 O.2       3 UNK        -0.5000 
     57 CA          2.3947  -10.6402  -41.7145 C.3       3 UNK         0.1400 
     58 CB          3.0307   -9.3675  -41.1323 C.3       3 UNK        -0.1800 
     59 N           2.0599  -10.3947  -43.1210 N.am      3 UNK        -0.5000 
     60 C           1.1949  -11.1266  -43.8328 C.2       2 UNK         0.5000 
     61 O           0.5537  -12.0708  -43.3650 O.2       2 UNK        -0.5000 
     62 CA          1.0548  -10.7480  -45.3158 C.3       2 UNK         0.1400 
     63 CB          2.3111  -11.1600  -46.1029 C.3       2 UNK        -0.1800 
     64 N          -0.0923  -11.4447  -45.8817 N.am      2 UNK        -0.5000 
     65 C          -1.1333  -10.8953  -46.5114 C.2       1 UNK         0.5000 
     66 O          -1.2281   -9.6918  -46.7572 O.2       1 UNK        -0.5000 
     67 C          -4.1201  -20.8166  -45.3695 C.2       11 UNK         0.5000 
     68 O          -5.1722  -21.2936  -45.7984 O.2       11 UNK        -0.5000 
     69 N          -3.5335  -21.2049  -44.2270 N.am      12 UNK        -0.5000 
     70 CA         -4.0313  -22.2733  -43.3550 C.3       12 UNK         0.1400 
     71 CB         -3.1835  -22.3359  -42.0762 C.3       12 UNK        -0.1800 
     72 C          -4.0805  -23.6485  -44.0502 C.2       12 UNK         0.5000 
     73 O          -5.0172  -24.4126  -43.8179 O.2       12 UNK        -0.5000 
     74 N          -3.1204  -23.9101  -44.9467 N.am      13 UNK        -0.5000 
     75 CA         -3.0575  -25.0738  -45.8343 C.3       13 UNK         0.1400 
     76 CB         -1.5884  -25.3182  -46.2247 C.3       13 UNK        -0.1800 
     77 C          -3.9778  -24.9411  -47.0713 C.2       13 UNK         0.5000 
     78 O          -3.5951  -25.3575  -48.1660 O.2       13 UNK        -0.5000 
     79 N          -5.1740  -24.3643  -46.8819 N.am      14 UNK        -0.5000 
     80 CA         -6.2395  -24.1582  -47.8692 C.3       14 UNK         0.1400 
     81 CB         -6.8853  -25.5094  -48.2412 C.3       14 UNK        -0.1800 
     82 C          -5.7792  -23.3533  -49.1028 C.2       14 UNK         0.5000 
     83 O          -6.0880  -23.7325  -50.2342 O.2       14 UNK        -0.5000 
     84 N          -5.0236  -22.2725  -48.8504 N.am      15 UNK        -0.5000 
     85 CA         -4.3608  -21.4145  -49.8415 C.3       15 UNK         0.1400 
     86 CB         -5.3912  -20.5723  -50.6168 C.3       15 UNK        -0.1800 
     87 C          -3.4071  -22.2255  -50.7417 C.2       15 UNK         0.5000 
     88 O          -3.5725  -22.2683  -51.9641 O.2       15 UNK        -0.5000 
     89 N          -2.4542  -22.8921  -50.0737 N.am      16 UNK        -0.5000 
     90 CA         -1.4292  -23.8010  -50.5933 C.3       16 UNK         0.1400 
     91 CB         -0.3197  -23.0032  -51.2972 C.3       16 UNK        -0.1800 
     92 C          -2.0184  -24.9194  -51.4742 C.2       16 UNK         0.5000 
     93 O          -1.5253  -25.1720  -52.5777 O.2       16 UNK        -0.5000 
     94 N          -3.1169  -25.5124  -50.9826 N.am      17 UNK        -0.5000 
     95 CA         -3.9580  -26.5431  -51.6019 C.3       17 UNK         0.1400 
     96 CB         -3.1902  -27.8798  -51.6459 C.3       17 UNK        -0.1800 
     97 C          -4.5334  -26.1645  -52.9867 C.2       17 UNK         0.5000 
     98 O          -4.9584  -27.0537  -53.7261 O.2       17 UNK        -0.5000 
     99 N          -4.4959  -24.8680  -53.3339 N.am      18 UNK        -0.5000 
    100 CA        -4.7168  -24.2972  -54.6663 C.3       18 UNK         0.1400 
    101 CB        -6.1917  -24.4398  -55.0936 C.3       18 UNK        -0.1800 
    102 C         -3.7226  -24.8111  -55.7335 C.2       18 UNK         0.5000 
    103 O         -4.0265  -24.7627  -56.9270 O.2       18 UNK        -0.5000 
    104 N         -2.5561  -25.2992  -55.2890 N.am      19 UNK        -0.5000 
    105 CA        -1.5059  -25.8623  -56.1315 C.3       19 UNK         0.1400 
    106 CB        -0.9709  -27.1453  -55.4753 C.3       19 UNK        -0.1800 
    107 C         -0.3715  -24.8510  -56.3477 C.2       19 UNK         0.5000 
    108 O          0.1079  -24.7182  -57.4745 O.2       19 UNK        -0.5000 
    109 N          0.0319  -24.1565  -55.2745 N.am      20 UNK        -0.5000 
    110 CA         1.1292  -23.1819  -55.2797 C.3       20 UNK         0.1400 
    111 CB         2.2330  -23.6694  -54.3259 C.3       20 UNK        -0.1800 
    112 C          0.6605  -21.7551  -54.9324 C.2       20 UNK         0.5000 
    113 O          1.4970  -20.8595  -54.8062 O.2       20 UNK        -0.5000 
    114 N         -0.6549  -21.5544  -54.8004 N.am      21 UNK        -0.5000 
    115 CA        -1.3089  -20.2687  -54.5749 C.3       21 UNK         0.1400 
    116 CB        -1.1978  -19.8398  -53.0967 C.3       21 UNK        -0.1800 
    117 C         -2.7589  -20.3583  -55.0820 C.2       21 UNK         0.5000 
    118 O         -3.1030  -21.3157  -55.7799 O.2       21 UNK        -0.5000 
    119 N         -3.5690  -19.3431  -54.7613 N.am      22 UNK        -0.5000 
    120 CA        -4.9336  -19.1465  -55.2800 C.3       22 UNK         0.1400 
    121 C         -6.0155  -20.1736  -54.8258 C.2       22 UNK         0.5000 
    122 N         -5.7501  -21.0529  -53.8700 N.am      22 UNK        -0.7600 
    123 O         -7.1197  -20.1761  -55.3633 O.2       22 UNK        -0.5000 
    124 C124       -5.3979  -17.6763  -55.0950 C.3       23 UNK        -0.0398 
    125 S125       -5.7621  -17.1979  -53.3675 S.3       23 UNK        -0.2404 
    126 C126       -4.2361  -16.3397  -52.8700 C.3       23 UNK        -0.0205 
    127 H127       -3.6687  -14.0942  -43.8830 H         1 UNK         0.0600 
    128 H128       -2.0560  -14.4757  -43.2687 H         1 UNK         0.0600 
    129 H129       -2.8535  -15.5724  -44.3991 H         1 UNK         0.0600 
    130 H130       -3.5832  -12.4730  -45.3918 H         1 UNK         0.3000 
    131 H131       -3.1496  -11.2207  -47.0881 H         1 UNK         0.0600 
    132 H132       -0.8817  -12.7543  -48.3625 H         1 UNK         0.0800 
    133 H133       -2.3562  -13.6173  -48.2159 H         1 UNK         0.0800 
    134 H134       -4.8418  -12.0111  -48.8799 H         1 UNK         0.0800 
    135 H135       -4.8309  -11.7849  -50.6089 H         1 UNK         0.0800 
    136 H136       -4.1721  -13.7022  -52.1377 H         1 UNK         0.1150 
    137 H137       -4.5460  -17.6506  -50.5038 H         1 UNK         0.1150 
    138 H138       -4.7414  -14.2382  -47.9230 H         1 UNK         0.1150 
    139 H139       -5.5840  -16.5403  -47.2072 H         1 UNK         0.0800 
    140 H140       -5.1719  -17.9324  -48.1854 H         1 UNK         0.0800 
    141 H141       -4.7556  -18.2093  -45.4844 H         1 UNK         0.0800 
    142 H142       -3.1491  -18.1076  -44.8075 H         1 UNK         0.0800 
    143 H143       -3.7977  -19.8480  -47.2196 H         1 UNK         0.0600 
    144 H144       -1.3222  -19.3319  -45.9277 H         1 UNK         0.3000 
    145 H145        0.3115  -22.3551  -47.0179 H         1 UNK         0.0600 
    146 H146        0.4693  -20.6598  -48.8435 H         1 UNK         0.0600 
    147 H147        0.6872  -19.3829  -47.6578 H         1 UNK         0.0600 
    148 H148        1.9013  -20.6478  -47.8252 H         1 UNK         0.0600 
    149 H149        1.2391  -20.2414  -45.3603 H         1 UNK         0.3000 
    150 H150        0.1160  -21.6195  -42.2300 H         1 UNK         0.0600 
    151 H151        2.2468  -22.7945  -42.8060 H         1 UNK         0.0600 
    152 H152        2.5272  -21.4297  -41.7365 H         1 UNK         0.0600 
    153 H153        2.9046  -21.2967  -43.4534 H         1 UNK         0.0600 
    154 H154        1.6086  -19.2798  -42.7460 H         1 UNK         0.3000 
    155 H155       -1.1680  -17.0440  -43.2555 H         1 UNK         0.0600 
    156 H156       -0.7837  -17.2601  -40.8071 H         1 UNK         0.0600 
    157 H157        0.0924  -15.8820  -41.4585 H         1 UNK         0.0600 
    158 H158        0.9523  -17.3696  -41.0672 H         1 UNK         0.0600 
    159 H159        1.6155  -16.5397  -43.3645 H         1 UNK         0.3000 
    160 H160        2.1176  -17.2804  -46.8386 H         1 UNK         0.0600 
    161 H161        2.0685  -14.7051  -45.1766 H         1 UNK         0.0600 
    162 H162        1.3486  -14.9602  -46.7595 H         1 UNK         0.0600 
    163 H163        3.0942  -14.9716  -46.5877 H         1 UNK         0.0600 
    164 H164        3.8126  -16.4923  -44.6293 H         1 UNK         0.3000 
    165 H165        4.9114  -19.7823  -43.8132 H         1 UNK         0.0600 
    166 H166        7.1231  -18.8178  -44.3781 H         1 UNK         0.0600 
    167 H167        6.2406  -19.1989  -45.8479 H         1 UNK         0.0600 
    168 H168        6.3583  -17.5283  -45.3078 H         1 UNK         0.0600 
    169 H169        5.7431  -17.1997  -42.9265 H         1 UNK         0.3000 
    170 H170        3.3023  -16.7216  -40.3973 H         1 UNK         0.0600 
    171 H171        4.8713  -18.3562  -39.3412 H         1 UNK         0.0600 
    172 H172        6.2380  -17.5624  -40.1144 H         1 UNK         0.0600 
    173 H173        5.2808  -16.7051  -38.9057 H         1 UNK         0.0600 
    174 H174        5.6683  -15.2879  -40.9674 H         1 UNK         0.3000 
    175 H175        5.6404  -13.3095  -41.9015 H         1 UNK         0.0600 
    176 H176        4.6543  -13.8191  -44.7639 H         1 UNK         0.0600 
    177 H177        5.9874  -12.7645  -44.2967 H         1 UNK         0.0600 
    178 H178        6.1169  -14.4996  -44.0607 H         1 UNK         0.0600 
    179 H179        3.7125  -11.9466  -43.4822 H         1 UNK         0.3000 
    180 H180        1.4714  -10.8399  -41.1664 H         1 UNK         0.0600 
    181 H181        3.9610   -9.1132  -41.6417 H         1 UNK         0.0600 
    182 H182        3.2604   -9.4932  -40.0733 H         1 UNK         0.0600 
    183 H183        2.3564   -8.5150  -41.2167 H         1 UNK         0.0600 
    184 H184        2.5471   -9.6322  -43.5703 H         1 UNK         0.3000 
    185 H185        0.9214   -9.6663  -45.3821 H         1 UNK         0.0600 
    186 H186        2.2049  -10.9231  -47.1617 H         1 UNK         0.0600 
    187 H187        2.5055  -12.2301  -46.0199 H         1 UNK         0.0600 
    188 H188        3.1964  -10.6346  -45.7432 H         1 UNK         0.0600 
    189 H189       -0.1504  -12.4372  -45.6633 H         1 UNK         0.3000 
    190 H190       -2.6882  -20.7281  -43.9230 H         1 UNK         0.3000 
    191 H191       -5.0528  -22.0130  -43.0705 H         1 UNK         0.0600 
    192 H192       -2.1485  -22.5996  -42.2913 H         1 UNK         0.0600 
    193 H193       -3.1841  -21.3789  -41.5541 H         1 UNK         0.0600 
    194 H194       -3.5749  -23.0840  -41.3858 H         1 UNK         0.0600 
    195 H195       -2.3672  -23.2381  -45.0467 H         1 UNK         0.3000 
    196 H196       -3.4010  -25.9497  -45.2808 H         1 UNK         0.0600 
    197 H197       -0.9593  -25.4299  -45.3415 H         1 UNK         0.0600 
    198 H198       -1.1887  -24.4946  -46.8167 H         1 UNK         0.0600 
    199 H199       -1.4822  -26.2298  -46.8139 H         1 UNK         0.0600 
    200 H200       -5.3841  -24.0479  -45.9435 H         1 UNK         0.3000 
    201 H201       -7.0008  -23.5510  -47.3774 H         1 UNK         0.0600 
    202 H202       -7.7503  -25.3654  -48.8896 H         1 UNK         0.0600 
    203 H203       -7.2318  -26.0380  -47.3532 H         1 UNK         0.0600 
    204 H204       -6.1863  -26.1606  -48.7671 H         1 UNK         0.0600 
    205 H205       -4.8136  -22.0732  -47.8798 H         1 UNK         0.3000 
    206 H206       -3.7276  -20.7166  -49.2952 H         1 UNK         0.0600 
    207 H207       -6.1069  -21.1965  -51.1505 H         1 UNK         0.0600 
    208 H208       -4.9015  -19.9287  -51.3484 H         1 UNK         0.0600 
    209 H209       -5.9541  -19.9262  -49.9435 H         1 UNK         0.0600 
    210 H210       -2.4311  -22.7593  -49.0640 H         1 UNK         0.3000 
    211 H211       -0.9883  -24.2903  -49.7235 H         1 UNK         0.0600 
    212 H212        0.0310  -22.1758  -50.6818 H         1 UNK         0.0600 
    213 H213        0.5372  -23.6441  -51.4979 H         1 UNK         0.0600 
    214 H214       -0.6629  -22.5954  -52.2460 H         1 UNK         0.0600 
    215 H215       -3.4086  -25.2374  -50.0467 H         1 UNK         0.3000 
    216 H216       -4.8163  -26.6687  -50.9407 H         1 UNK         0.0600 
    217 H217       -3.8373  -28.6970  -51.9662 H         1 UNK         0.0600 
    218 H218       -2.3485  -27.8373  -52.3382 H         1 UNK         0.0600 
    219 H219       -2.8026  -28.1435  -50.6618 H         1 UNK         0.0600 
    220 H220       -4.1493  -24.2077  -52.6458 H         1 UNK         0.3000 
    221 H221       -4.4990  -23.2367  -54.5662 H         1 UNK         0.0600 
    222 H222       -6.3937  -23.8587  -55.9941 H         1 UNK         0.0600 
    223 H223       -6.4543  -25.4762  -55.3065 H         1 UNK         0.0600 
    224 H224       -6.8639  -24.0749  -54.3172 H         1 UNK         0.0600 
    225 H225       -2.3741  -25.2926  -54.2890 H         1 UNK         0.3000 
    226 H226       -1.9090  -26.1316  -57.1101 H         1 UNK         0.0600 
    227 H227       -1.7645  -27.8827  -55.3524 H         1 UNK         0.0600 
    228 H228       -0.1930  -27.6022  -56.0883 H         1 UNK         0.0600 
    229 H229       -0.5426  -26.9511  -54.4911 H         1 UNK         0.0600 
    230 H230       -0.4062  -24.3415  -54.3800 H         1 UNK         0.3000 
    231 H231        1.5703  -23.1106  -56.2757 H         1 UNK         0.0600 
    232 H232        3.0877  -22.9919  -54.3308 H         1 UNK         0.0600 
    233 H233        2.6001  -24.6522  -54.6221 H         1 UNK         0.0600 
    234 H234        1.8785  -23.7423  -53.2998 H         1 UNK         0.0600 
    235 H235       -1.2921  -22.3118  -55.0103 H         1 UNK         0.3000 
    236 H236       -0.8100  -19.5190  -55.1923 H         1 UNK         0.0600 
    237 H237       -0.1648  -19.8666  -52.7501 H         1 UNK         0.0600 
    238 H238       -1.5516  -18.8195  -52.9502 H         1 UNK         0.0600 
    239 H239       -1.7804  -20.4847  -52.4438 H         1 UNK         0.0600 
    240 H240       -3.2199  -18.6138  -54.1604 H         1 UNK         0.3000 
    241 H241       -4.8570  -19.3015  -56.3580 H         1 UNK         0.0600 
    242 H242       -6.4705  -21.6974  -53.5910 H         1 UNK         0.3800 
    243 H243       -4.8438  -21.0963  -53.4258 H         1 UNK         0.3800 
    244 H244       -6.3032  -17.5030  -55.6792 H         1 UNK         0.0800 
    245 H245       -4.6559  -16.9947  -55.5129 H         1 UNK         0.0800 
    246 H246       -4.0050  -15.5622  -53.5999 H         1 UNK         0.0800 
    247 H247       -3.3996  -17.0382  -52.8783 H         1 UNK         0.0800 
@<TRIPOS>BOND
     1    1    2 1    
     2    1  127 1    
     3    1  128 1    
     4    1  129 1    
     5    2    3 2    
     6    2    4 am   BACKBONE|DICT|INTERRES
     7    4    5 1    
     8    4  130 1    
     9    5    6 1    
    10    5   65 1    
    11    5  131 1    
    12    6    7 1    
    13    6  132 1    
    14    6  133 1    
    15    7    8 1    
    16    8    9 1    
    17    8  134 1    
    18    8  135 1    
    19    9   10 ar   
    20    9   14 ar   
    21   10   11 ar   
    22   10  136 1    
    23   11   12 ar   
    24   11  126 1    
    25   12   13 ar   
    26   12  137 1    
    27   13   14 ar   
    28   13   15 1    
    29   14  138 1    
    30   15   16 1    
    31   15  139 1    
    32   15  140 1    
    33   16   17 1    
    34   17   18 1    
    35   17  141 1    
    36   17  142 1    
    37   18   19 1    
    38   18   67 1    
    39   18  143 1    
    40   19   20 am   BACKBONE|DICT|INTERRES
    41   19  144 1    
    42   20   21 2    
    43   20   22 1    
    44   22   23 1    
    45   22   24 1    
    46   22  145 1    
    47   23  146 1    
    48   23  147 1    
    49   23  148 1    
    50   24   25 am   BACKBONE|DICT|INTERRES
    51   24  149 1    
    52   25   26 2    
    53   25   27 1    
    54   27   28 1    
    55   27   29 1    
    56   27  150 1    
    57   28  151 1    
    58   28  152 1    
    59   28  153 1    
    60   29   30 am   BACKBONE|DICT|INTERRES
    61   29  154 1    
    62   30   31 2    
    63   30   32 1    
    64   32   33 1    
    65   32   34 1    
    66   32  155 1    
    67   33  156 1    
    68   33  157 1    
    69   33  158 1    
    70   34   35 am   BACKBONE|DICT|INTERRES
    71   34  159 1    
    72   35   36 2    
    73   35   37 1    
    74   37   38 1    
    75   37   39 1    
    76   37  160 1    
    77   38  161 1    
    78   38  162 1    
    79   38  163 1    
    80   39   40 am   BACKBONE|DICT|INTERRES
    81   39  164 1    
    82   40   41 2    
    83   40   42 1    
    84   42   43 1    
    85   42   44 1    
    86   42  165 1    
    87   43  166 1    
    88   43  167 1    
    89   43  168 1    
    90   44   45 am   BACKBONE|DICT|INTERRES
    91   44  169 1    
    92   45   46 2    
    93   45   47 1    
    94   47   48 1    
    95   47   49 1    
    96   47  170 1    
    97   48  171 1    
    98   48  172 1    
    99   48  173 1    
   100   49   50 am   BACKBONE|DICT|INTERRES
   101   49  174 1    
   102   50   51 2    
   103   50   52 1    
   104   52   53 1    
   105   52   54 1    
   106   52  175 1    
   107   53  176 1    
   108   53  177 1    
   109   53  178 1    
   110   54   55 am   BACKBONE|DICT|INTERRES
   111   54  179 1    
   112   55   56 2    
   113   55   57 1    
   114   57   58 1    
   115   57   59 1    
   116   57  180 1    
   117   58  181 1    
   118   58  182 1    
   119   58  183 1    
   120   59   60 am   BACKBONE|DICT|INTERRES
   121   59  184 1    
   122   60   61 2    
   123   60   62 1    
   124   62   63 1    
   125   62   64 1    
   126   62  185 1    
   127   63  186 1    
   128   63  187 1    
   129   63  188 1    
   130   64   65 am   BACKBONE|DICT|INTERRES
   131   64  189 1    
   132   65   66 2    
   133   67   68 2    
   134   67   69 am   BACKBONE|DICT|INTERRES
   135   69   70 1    
   136   69  190 1    
   137   70   71 1    
   138   70   72 1    
   139   70  191 1    
   140   71  192 1    
   141   71  193 1    
   142   71  194 1    
   143   72   73 2    
   144   72   74 am   BACKBONE|DICT|INTERRES
   145   74   75 1    
   146   74  195 1    
   147   75   76 1    
   148   75   77 1    
   149   75  196 1    
   150   76  197 1    
   151   76  198 1    
   152   76  199 1    
   153   77   78 2    
   154   77   79 am   BACKBONE|DICT|INTERRES
   155   79   80 1    
   156   79  200 1    
   157   80   81 1    
   158   80   82 1    
   159   80  201 1    
   160   81  202 1    
   161   81  203 1    
   162   81  204 1    
   163   82   83 2    
   164   82   84 am   BACKBONE|DICT|INTERRES
   165   84   85 1    
   166   84  205 1    
   167   85   86 1    
   168   85   87 1    
   169   85  206 1    
   170   86  207 1    
   171   86  208 1    
   172   86  209 1    
   173   87   88 2    
   174   87   89 am   BACKBONE|DICT|INTERRES
   175   89   90 1    
   176   89  210 1    
   177   90   91 1    
   178   90   92 1    
   179   90  211 1    
   180   91  212 1    
   181   91  213 1    
   182   91  214 1    
   183   92   93 2    
   184   92   94 am   BACKBONE|DICT|INTERRES
   185   94   95 1    
   186   94  215 1    
   187   95   96 1    
   188   95   97 1    
   189   95  216 1    
   190   96  217 1    
   191   96  218 1    
   192   96  219 1    
   193   97   98 2    
   194   97   99 am   BACKBONE|DICT|INTERRES
   195   99  100 1    
   196   99  220 1    
   197  100  101 1    
   198  100  102 1    
   199  100  221 1    
   200  101  222 1    
   201  101  223 1    
   202  101  224 1    
   203  102  103 2    
   204  102  104 am   BACKBONE|DICT|INTERRES
   205  104  105 1    
   206  104  225 1    
   207  105  106 1    
   208  105  107 1    
   209  105  226 1    
   210  106  227 1    
   211  106  228 1    
   212  106  229 1    
   213  107  108 2    
   214  107  109 am   BACKBONE|DICT|INTERRES
   215  109  110 1    
   216  109  230 1    
   217  110  111 1    
   218  110  112 1    
   219  110  231 1    
   220  111  232 1    
   221  111  233 1    
   222  111  234 1    
   223  112  113 2    
   224  112  114 am   BACKBONE|DICT|INTERRES
   225  114  115 1    
   226  114  235 1    
   227  115  116 1    
   228  115  117 1    
   229  115  236 1    
   230  116  237 1    
   231  116  238 1    
   232  116  239 1    
   233  117  118 2    
   234  117  119 am   BACKBONE|DICT|INTERRES
   235  119  120 1    
   236  119  240 1    
   237  120  121 1    
   238  120  124 1    
   239  120  241 1    
   240  121  122 am   BACKBONE|DICT|INTERRES
   241  121  123 2    
   242  122  242 1    
   243  122  243 1    
   244  124  125 1    
   245  124  244 1    
   246  124  245 1    
   247  125  126 1    
   248  126  246 1    
   249  126  247 1    
@<TRIPOS>SUBSTRUCTURE
     1 UNK         1 GROUP             0       ****    0 ROOT    
