@<TRIPOS>MOLECULE
3R540
247   249    1
SMALL
USER_CHARGES


@<TRIPOS>ATOM
      1 CA         -0.9792  -13.4142  -50.8860 C.3       0 UNK        -0.1800 
      2 C          -0.1198  -12.9405  -49.7213 C.2       0 UNK         0.5000 
      3 O           0.8122  -12.1617  -49.9216 O.2       0 UNK        -0.5000 
      4 N          -0.4294  -13.4059  -48.5093 N.am      1 UNK        -0.5000 
      5 CA          0.2531  -13.0791  -47.2584 C.3       1 UNK         0.1400 
      6 C6          1.6489  -13.7496  -47.1350 C.3       23 UNK        -0.0398 
      7 S7          1.6008  -15.5738  -47.1937 S.3       23 UNK        -0.2404 
      8 C8          2.2941  -15.9492  -48.8329 C.3       23 UNK        -0.0205 
      9 C9          1.6277  -17.1673  -49.4593 C.ar      23 UNK        -0.0193 
     10 C10         0.4870  -16.9975  -50.2450 C.ar      23 UNK        -0.1150 
     11 C11        -0.1138  -18.0853  -50.8818 C.ar      23 UNK        -0.0193 
     12 C12         0.4315  -19.3630  -50.7186 C.ar      23 UNK        -0.1150 
     13 C13         1.5675  -19.5550  -49.9232 C.ar      23 UNK        -0.0193 
     14 C14         2.1589  -18.4513  -49.2944 C.ar      23 UNK        -0.1150 
     15 C15         2.2017  -20.9386  -49.7999 C.3       23 UNK        -0.0205 
     16 S16         1.1031  -22.2044  -49.0755 S.3       23 UNK        -0.2404 
     17 C17         0.9378  -21.6290  -47.3516 C.3       23 UNK        -0.0398 
     18 CA         -0.5030  -21.7231  -46.7884 C.3       11 UNK         0.1400 
     19 N          -0.5554  -21.4094  -45.3552 N.am      11 UNK        -0.5000 
     20 C          -1.6451  -21.5241  -44.5794 C.2       10 UNK         0.5000 
     21 O          -2.7130  -21.9967  -44.9667 O.2       10 UNK        -0.5000 
     22 CA         -1.5498  -20.9597  -43.1484 C.3       10 UNK         0.1400 
     23 CB         -0.8995  -21.9702  -42.1924 C.3       10 UNK        -0.1800 
     24 N          -0.8235  -19.6909  -43.0970 N.am      10 UNK        -0.5000 
     25 C          -1.2304  -18.5587  -43.6896 C.2       9 UNK         0.5000 
     26 O          -2.3122  -18.4381  -44.2624 O.2       9 UNK        -0.5000 
     27 CA         -0.2323  -17.3860  -43.6932 C.3       9 UNK         0.1400 
     28 CB         -0.3410  -16.5848  -42.3847 C.3       9 UNK        -0.1800 
     29 N           1.1448  -17.8461  -43.9185 N.am      9 UNK        -0.5000 
     30 C           1.5508  -18.4124  -45.0674 C.2       8 UNK         0.5000 
     31 O           0.8161  -18.5347  -46.0439 O.2       8 UNK        -0.5000 
     32 CA          2.9637  -19.0262  -45.1238 C.3       8 UNK         0.1400 
     33 CB          4.0163  -18.0518  -45.6677 C.3       8 UNK        -0.1800 
     34 N           3.3871  -19.5423  -43.8268 N.am      8 UNK        -0.5000 
     35 C           2.9448  -20.6983  -43.3143 C.2       7 UNK         0.5000 
     36 O           2.2010  -21.4686  -43.9225 O.2       7 UNK        -0.5000 
     37 CA          3.3556  -21.0175  -41.8637 C.3       7 UNK         0.1400 
     38 CB          4.6869  -21.7821  -41.8341 C.3       7 UNK        -0.1800 
     39 N           3.4657  -19.8197  -41.0264 N.am      7 UNK        -0.5000 
     40 C           2.4482  -18.9935  -40.7477 C.2       6 UNK         0.5000 
     41 O           1.2963  -19.1990  -41.1279 O.2       6 UNK        -0.5000 
     42 CA          2.7612  -17.7151  -39.9442 C.3       6 UNK         0.1400 
     43 CB          4.0173  -17.8428  -39.0556 C.3       6 UNK        -0.1800 
     44 N           2.8606  -16.5098  -40.7780 N.am      6 UNK        -0.5000 
     45 C           3.6784  -16.2971  -41.8240 C.2       5 UNK         0.5000 
     46 O           4.3524  -17.1831  -42.3494 O.2       5 UNK        -0.5000 
     47 CA          3.8053  -14.8494  -42.3574 C.3       5 UNK         0.1400 
     48 CB          3.0261  -14.6428  -43.6648 C.3       5 UNK        -0.1800 
     49 N           3.3801  -13.8306  -41.3978 N.am      5 UNK        -0.5000 
     50 C           3.9842  -13.5755  -40.2282 C.2       4 UNK         0.5000 
     51 O           5.0536  -14.0843  -39.8901 O.2       4 UNK        -0.5000 
     52 CA          3.2660  -12.6202  -39.2529 C.3       4 UNK         0.1400 
     53 CB          3.9906  -11.2664  -39.1953 C.3       4 UNK        -0.1800 
     54 N           1.8495  -12.3807  -39.5477 N.am      4 UNK        -0.5000 
     55 C           0.8734  -13.2978  -39.6145 C.2       3 UNK         0.5000 
     56 O           1.0579  -14.5085  -39.4753 O.2       3 UNK        -0.5000 
     57 CA         -0.5480  -12.7798  -39.9145 C.3       3 UNK         0.1400 
     58 CB         -0.7274  -11.2665  -39.6564 C.3       3 UNK        -0.1800 
     59 N          -1.0057  -13.1076  -41.2689 N.am      3 UNK        -0.5000 
     60 C          -0.4016  -12.8237  -42.4324 C.2       2 UNK         0.5000 
     61 O           0.7289  -12.3380  -42.5342 O.2       2 UNK        -0.5000 
     62 CA         -1.2292  -13.1093  -43.6953 C.3       2 UNK         0.1400 
     63 CB         -2.4548  -12.1745  -43.7689 C.3       2 UNK        -0.1800 
     64 N          -0.4026  -12.9360  -44.8880 N.am      2 UNK        -0.5000 
     65 C          -0.7018  -13.4261  -46.0966 C.2       1 UNK         0.5000 
     66 O          -1.7047  -14.1122  -46.3176 O.2       1 UNK        -0.5000 
     67 C          -1.5054  -20.8654  -47.5899 C.2       11 UNK         0.5000 
     68 O          -2.2934  -21.4209  -48.3553 O.2       11 UNK        -0.5000 
     69 N          -1.4970  -19.5454  -47.3599 N.am      12 UNK        -0.5000 
     70 CA         -2.4110  -18.5880  -47.9807 C.3       12 UNK         0.1400 
     71 CB         -2.0066  -17.1593  -47.5938 C.3       12 UNK        -0.1800 
     72 C          -3.8871  -18.8526  -47.6367 C.2       12 UNK         0.5000 
     73 O          -4.7282  -18.8209  -48.5348 O.2       12 UNK        -0.5000 
     74 N          -4.1693  -19.1528  -46.3608 N.am      13 UNK        -0.5000 
     75 CA         -5.4985  -19.5104  -45.8597 C.3       13 UNK         0.1400 
     76 CB         -5.4651  -19.5826  -44.3258 C.3       13 UNK        -0.1800 
     77 C          -6.0358  -20.8261  -46.4550 C.2       13 UNK         0.5000 
     78 O          -7.2238  -20.9109  -46.7679 O.2       13 UNK        -0.5000 
     79 N          -5.1495  -21.8158  -46.6270 N.am      14 UNK        -0.5000 
     80 CA         -5.4428  -23.0987  -47.2699 C.3       14 UNK         0.1400 
     81 CB         -4.3654  -24.1138  -46.8549 C.3       14 UNK        -0.1800 
     82 C          -5.5245  -23.0129  -48.8082 C.2       14 UNK         0.5000 
     83 O          -5.9849  -23.9682  -49.4340 O.2       14 UNK        -0.5000 
     84 N          -5.0489  -21.8979  -49.3842 N.am      15 UNK        -0.5000 
     85 CA         -4.8541  -21.6369  -50.8149 C.3       15 UNK         0.1400 
     86 CB         -6.2048  -21.6163  -51.5590 C.3       15 UNK        -0.1800 
     87 C          -3.8201  -22.5928  -51.4514 C.2       15 UNK         0.5000 
     88 O          -3.9350  -22.9384  -52.6265 O.2       15 UNK        -0.5000 
     89 N          -2.8295  -23.0054  -50.6482 N.am      16 UNK        -0.5000 
     90 CA         -1.7547  -23.9693  -50.9015 C.3       16 UNK         0.1400 
     91 CB         -0.8273  -23.4923  -52.0330 C.3       16 UNK        -0.1800 
     92 C          -2.2292  -25.4144  -51.1531 C.2       16 UNK         0.5000 
     93 O          -1.7634  -26.3272  -50.4698 O.2       16 UNK        -0.5000 
     94 N          -3.1205  -25.6055  -52.1299 N.am      17 UNK        -0.5000 
     95 CA         -3.6132  -26.8896  -52.6192 C.3       17 UNK         0.1400 
     96 CB         -2.5048  -27.5974  -53.4294 C.3       17 UNK        -0.1800 
     97 C          -4.8716  -26.6605  -53.4742 C.2       17 UNK         0.5000 
     98 O          -5.3222  -25.5227  -53.6239 O.2       17 UNK        -0.5000 
     99 N          -5.3969  -27.7404  -54.0701 N.am      18 UNK        -0.5000 
    100 CA        -6.5606  -27.7422  -54.9684 C.3       18 UNK         0.1400 
    101 CB        -6.8955  -29.1949  -55.3406 C.3       18 UNK        -0.1800 
    102 C         -6.3964  -26.8832  -56.2430 C.2       18 UNK         0.5000 
    103 O         -7.3980  -26.5127  -56.8563 O.2       18 UNK        -0.5000 
    104 N         -5.1458  -26.5594  -56.6025 N.am      19 UNK        -0.5000 
    105 CA        -4.7797  -25.6194  -57.6641 C.3       19 UNK         0.1400 
    106 CB        -3.2747  -25.7612  -57.9425 C.3       19 UNK        -0.1800 
    107 C         -5.1268  -24.1486  -57.3420 C.2       19 UNK         0.5000 
    108 O         -5.1431  -23.3264  -58.2576 O.2       19 UNK        -0.5000 
    109 N         -5.3713  -23.8392  -56.0590 N.am      20 UNK        -0.5000 
    110 CA        -5.7796  -22.5524  -55.4801 C.3       20 UNK         0.1400 
    111 CB        -7.0841  -22.0346  -56.1184 C.3       20 UNK        -0.1800 
    112 C         -4.6914  -21.4590  -55.4419 C.2       20 UNK         0.5000 
    113 O         -4.9253  -20.4279  -54.8091 O.2       20 UNK        -0.5000 
    114 N         -3.5347  -21.7004  -56.0797 N.am      21 UNK        -0.5000 
    115 CA        -2.3084  -20.8932  -56.0939 C.3       21 UNK         0.1400 
    116 CB        -1.4906  -21.1640  -54.8138 C.3       21 UNK        -0.1800 
    117 C         -2.5508  -19.3913  -56.3504 C.2       21 UNK         0.5000 
    118 O         -2.6605  -18.9817  -57.5070 O.2       21 UNK        -0.5000 
    119 N         -2.6306  -18.6119  -55.2657 N.am      22 UNK        -0.5000 
    120 CA        -2.9266  -17.1726  -55.2548 C.3       22 UNK         0.1400 
    121 C         -4.3658  -16.8030  -55.7222 C.2       22 UNK         0.5000 
    122 N         -5.3250  -17.7210  -55.7102 N.am      22 UNK        -0.7600 
    123 O         -4.6136  -15.6614  -56.1009 O.2       22 UNK        -0.5000 
    124 C124       -2.6486  -16.5438  -53.8646 C.3       23 UNK        -0.0398 
    125 S125       -0.9712  -16.8856  -53.2260 S.3       23 UNK        -0.2404 
    126 C126       -1.3529  -17.8633  -51.7360 C.3       23 UNK        -0.0205 
    127 H127       -1.7242  -14.1451  -50.5697 H         1 UNK         0.0600 
    128 H128       -0.3552  -13.8772  -51.6507 H         1 UNK         0.0600 
    129 H129       -1.5004  -12.5695  -51.3362 H         1 UNK         0.0600 
    130 H130       -1.2251  -14.0173  -48.3701 H         1 UNK         0.3000 
    131 H131        0.3906  -11.9962  -47.2312 H         1 UNK         0.0600 
    132 H132        2.1241  -13.4538  -46.2002 H         1 UNK         0.0800 
    133 H133        2.3107  -13.3767  -47.9170 H         1 UNK         0.0800 
    134 H134        2.1691  -15.0928  -49.4968 H         1 UNK         0.0800 
    135 H135        3.3690  -16.1090  -48.7400 H         1 UNK         0.0800 
    136 H136        0.0700  -16.0100  -50.3730 H         1 UNK         0.1150 
    137 H137       -0.0224  -20.2094  -51.2135 H         1 UNK         0.1150 
    138 H138        3.0462  -18.5864  -48.6933 H         1 UNK         0.1150 
    139 H139        2.4974  -21.2702  -50.7960 H         1 UNK         0.0800 
    140 H140        3.1198  -20.8934  -49.2120 H         1 UNK         0.0800 
    141 H141        1.3018  -20.6069  -47.2971 H         1 UNK         0.0800 
    142 H142        1.6146  -22.2237  -46.7366 H         1 UNK         0.0800 
    143 H143       -0.8241  -22.7622  -46.8878 H         1 UNK         0.0600 
    144 H144        0.2929  -21.0470  -44.9389 H         1 UNK         0.3000 
    145 H145       -2.5668  -20.7725  -42.7979 H         1 UNK         0.0600 
    146 H146       -0.8730  -21.5865  -41.1723 H         1 UNK         0.0600 
    147 H147       -1.4612  -22.9049  -42.1749 H         1 UNK         0.0600 
    148 H148        0.1222  -22.2085  -42.4856 H         1 UNK         0.0600 
    149 H149        0.0503  -19.6767  -42.5801 H         1 UNK         0.3000 
    150 H150       -0.4984  -16.7204  -44.5178 H         1 UNK         0.0600 
    151 H151       -1.3390  -16.1585  -42.2802 H         1 UNK         0.0600 
    152 H152        0.3676  -15.7615  -42.3490 H         1 UNK         0.0600 
    153 H153       -0.1723  -17.2013  -41.5039 H         1 UNK         0.0600 
    154 H154        1.7658  -17.8503  -43.1237 H         1 UNK         0.3000 
    155 H155        2.9221  -19.8598  -45.8266 H         1 UNK         0.0600 
    156 H156        4.2448  -17.2584  -44.9616 H         1 UNK         0.0600 
    157 H157        3.6838  -17.5873  -46.5950 H         1 UNK         0.0600 
    158 H158        4.9489  -18.5722  -45.8853 H         1 UNK         0.0600 
    159 H159        3.9537  -18.9256  -43.2519 H         1 UNK         0.3000 
    160 H160        2.5819  -21.6577  -41.4348 H         1 UNK         0.0600 
    161 H161        5.5061  -21.1799  -42.2290 H         1 UNK         0.0600 
    162 H162        4.6280  -22.6911  -42.4344 H         1 UNK         0.0600 
    163 H163        4.9478  -22.0808  -40.8187 H         1 UNK         0.0600 
    164 H164        4.3903  -19.5694  -40.7073 H         1 UNK         0.3000 
    165 H165        1.9078  -17.5579  -39.2828 H         1 UNK         0.0600 
    166 H166        4.1167  -16.9757  -38.4023 H         1 UNK         0.0600 
    167 H167        3.9591  -18.7231  -38.4139 H         1 UNK         0.0600 
    168 H168        4.9344  -17.9154  -39.6410 H         1 UNK         0.0600 
    169 H169        2.3124  -15.7236  -40.4408 H         1 UNK         0.3000 
    170 H170        4.8631  -14.6820  -42.5698 H         1 UNK         0.0600 
    171 H171        3.3580  -15.3259  -44.4429 H         1 UNK         0.0600 
    172 H172        1.9559  -14.7892  -43.5372 H         1 UNK         0.0600 
    173 H173        3.1760  -13.6325  -44.0449 H         1 UNK         0.0600 
    174 H174        2.5162  -13.3437  -41.6054 H         1 UNK         0.3000 
    175 H175        3.3185  -13.0793  -38.2637 H         1 UNK         0.0600 
    176 H176        3.9443  -10.7463  -40.1530 H         1 UNK         0.0600 
    177 H177        3.5540  -10.6159  -38.4371 H         1 UNK         0.0600 
    178 H178        5.0438  -11.3948  -38.9420 H         1 UNK         0.0600 
    179 H179        1.5945  -11.4193  -39.7214 H         1 UNK         0.3000 
    180 H180       -1.2098  -13.3086  -39.2270 H         1 UNK         0.0600 
    181 H181       -1.7740  -10.9790  -39.7581 H         1 UNK         0.0600 
    182 H182       -0.1531  -10.6560  -40.3543 H         1 UNK         0.0600 
    183 H183       -0.4212  -10.9984  -38.6442 H         1 UNK         0.0600 
    184 H184       -1.9167  -13.5422  -41.3073 H         1 UNK         0.3000 
    185 H185       -1.5667  -14.1462  -43.6471 H         1 UNK         0.0600 
    186 H186       -3.0723  -12.3912  -44.6405 H         1 UNK         0.0600 
    187 H187       -3.0958  -12.2843  -42.8937 H         1 UNK         0.0600 
    188 H188       -2.1544  -11.1275  -43.8260 H         1 UNK         0.0600 
    189 H189        0.4477  -12.4096  -44.7297 H         1 UNK         0.3000 
    190 H190       -0.7765  -19.1583  -46.7538 H         1 UNK         0.3000 
    191 H191       -2.3014  -18.6933  -49.0606 H         1 UNK         0.0600 
    192 H192       -2.6143  -16.4232  -48.1209 H         1 UNK         0.0600 
    193 H193       -0.9657  -16.9626  -47.8444 H         1 UNK         0.0600 
    194 H194       -2.1252  -16.9784  -46.5257 H         1 UNK         0.0600 
    195 H195       -3.4220  -19.1009  -45.6729 H         1 UNK         0.3000 
    196 H196       -6.1862  -18.7124  -46.1469 H         1 UNK         0.0600 
    197 H197       -4.7729  -20.3482  -43.9746 H         1 UNK         0.0600 
    198 H198       -5.1580  -18.6304  -43.8929 H         1 UNK         0.0600 
    199 H199       -6.4507  -19.8206  -43.9238 H         1 UNK         0.0600 
    200 H200       -4.2015  -21.6897  -46.2847 H         1 UNK         0.3000 
    201 H201       -6.4084  -23.4585  -46.9088 H         1 UNK         0.0600 
    202 H202       -3.3734  -23.8028  -47.1852 H         1 UNK         0.0600 
    203 H203       -4.5623  -25.0961  -47.2860 H         1 UNK         0.0600 
    204 H204       -4.3342  -24.2350  -45.7720 H         1 UNK         0.0600 
    205 H205       -4.6724  -21.1891  -48.7676 H         1 UNK         0.3000 
    206 H206       -4.4247  -20.6363  -50.8817 H         1 UNK         0.0600 
    207 H207       -6.9332  -20.9941  -51.0391 H         1 UNK         0.0600 
    208 H208       -6.0888  -21.2047  -52.5604 H         1 UNK         0.0600 
    209 H209       -6.6272  -22.6161  -51.6635 H         1 UNK         0.0600 
    210 H210       -2.8047  -22.5899  -49.7193 H         1 UNK         0.3000 
    211 H211       -1.1671  -23.9873  -49.9827 H         1 UNK         0.0600 
    212 H212        0.0639  -24.1179  -52.0923 H         1 UNK         0.0600 
    213 H213       -0.4962  -22.4670  -51.8718 H         1 UNK         0.0600 
    214 H214       -1.3224  -23.5409  -53.0016 H         1 UNK         0.0600 
    215 H215       -3.5284  -24.7866  -52.5809 H         1 UNK         0.3000 
    216 H216       -3.8979  -27.5073  -51.7654 H         1 UNK         0.0600 
    217 H217       -2.2149  -27.0131  -54.3037 H         1 UNK         0.0600 
    218 H218       -2.8245  -28.5793  -53.7790 H         1 UNK         0.0600 
    219 H219       -1.6099  -27.7582  -52.8283 H         1 UNK         0.0600 
    220 H220       -4.9687  -28.6398  -53.9039 H         1 UNK         0.3000 
    221 H221       -7.4043  -27.3286  -54.4122 H         1 UNK         0.0600 
    222 H222       -7.1105  -29.7909  -54.4535 H         1 UNK         0.0600 
    223 H223       -6.0738  -29.6718  -55.8763 H         1 UNK         0.0600 
    224 H224       -7.7766  -29.2422  -55.9820 H         1 UNK         0.0600 
    225 H225       -4.3883  -26.9261  -56.0464 H         1 UNK         0.3000 
    226 H226       -5.3263  -25.8948  -58.5684 H         1 UNK         0.0600 
    227 H227       -2.6774  -25.5097  -57.0650 H         1 UNK         0.0600 
    228 H228       -3.0226  -26.7792  -58.2403 H         1 UNK         0.0600 
    229 H229       -2.9619  -25.1015  -58.7530 H         1 UNK         0.0600 
    230 H230       -5.2942  -24.5825  -55.3707 H         1 UNK         0.3000 
    231 H231       -6.0035  -22.7783  -54.4371 H         1 UNK         0.0600 
    232 H232       -6.9359  -21.7192  -57.1513 H         1 UNK         0.0600 
    233 H233       -7.4697  -21.1741  -55.5703 H         1 UNK         0.0600 
    234 H234       -7.8600  -22.8000  -56.1066 H         1 UNK         0.0600 
    235 H235       -3.4929  -22.5551  -56.6145 H         1 UNK         0.3000 
    236 H236       -1.7152  -21.2488  -56.9377 H         1 UNK         0.0600 
    237 H237       -1.1186  -22.1873  -54.8158 H         1 UNK         0.0600 
    238 H238       -0.6190  -20.5109  -54.7492 H         1 UNK         0.0600 
    239 H239       -2.0815  -21.0263  -53.9074 H         1 UNK         0.0600 
    240 H240       -2.5608  -19.0531  -54.3620 H         1 UNK         0.3000 
    241 H241       -2.2452  -16.7068  -55.9691 H         1 UNK         0.0600 
    242 H242       -6.2531  -17.4754  -56.0146 H         1 UNK         0.3800 
    243 H243       -5.1336  -18.6659  -55.3829 H         1 UNK         0.3800 
    244 H244       -3.3902  -16.8882  -53.1416 H         1 UNK         0.0800 
    245 H245       -2.7620  -15.4593  -53.9143 H         1 UNK         0.0800 
    246 H246       -2.0994  -17.3371  -51.1391 H         1 UNK         0.0800 
    247 H247       -1.7983  -18.8152  -52.0289 H         1 UNK         0.0800 
@<TRIPOS>BOND
     1    1    2 1    
     2    1  127 1    
     3    1  128 1    
     4    1  129 1    
     5    2    3 2    
     6    2    4 am   BACKBONE|DICT|INTERRES
     7    4    5 1    
     8    4  130 1    
     9    5    6 1    
    10    5   65 1    
    11    5  131 1    
    12    6    7 1    
    13    6  132 1    
    14    6  133 1    
    15    7    8 1    
    16    8    9 1    
    17    8  134 1    
    18    8  135 1    
    19    9   10 ar   
    20    9   14 ar   
    21   10   11 ar   
    22   10  136 1    
    23   11   12 ar   
    24   11  126 1    
    25   12   13 ar   
    26   12  137 1    
    27   13   14 ar   
    28   13   15 1    
    29   14  138 1    
    30   15   16 1    
    31   15  139 1    
    32   15  140 1    
    33   16   17 1    
    34   17   18 1    
    35   17  141 1    
    36   17  142 1    
    37   18   19 1    
    38   18   67 1    
    39   18  143 1    
    40   19   20 am   BACKBONE|DICT|INTERRES
    41   19  144 1    
    42   20   21 2    
    43   20   22 1    
    44   22   23 1    
    45   22   24 1    
    46   22  145 1    
    47   23  146 1    
    48   23  147 1    
    49   23  148 1    
    50   24   25 am   BACKBONE|DICT|INTERRES
    51   24  149 1    
    52   25   26 2    
    53   25   27 1    
    54   27   28 1    
    55   27   29 1    
    56   27  150 1    
    57   28  151 1    
    58   28  152 1    
    59   28  153 1    
    60   29   30 am   BACKBONE|DICT|INTERRES
    61   29  154 1    
    62   30   31 2    
    63   30   32 1    
    64   32   33 1    
    65   32   34 1    
    66   32  155 1    
    67   33  156 1    
    68   33  157 1    
    69   33  158 1    
    70   34   35 am   BACKBONE|DICT|INTERRES
    71   34  159 1    
    72   35   36 2    
    73   35   37 1    
    74   37   38 1    
    75   37   39 1    
    76   37  160 1    
    77   38  161 1    
    78   38  162 1    
    79   38  163 1    
    80   39   40 am   BACKBONE|DICT|INTERRES
    81   39  164 1    
    82   40   41 2    
    83   40   42 1    
    84   42   43 1    
    85   42   44 1    
    86   42  165 1    
    87   43  166 1    
    88   43  167 1    
    89   43  168 1    
    90   44   45 am   BACKBONE|DICT|INTERRES
    91   44  169 1    
    92   45   46 2    
    93   45   47 1    
    94   47   48 1    
    95   47   49 1    
    96   47  170 1    
    97   48  171 1    
    98   48  172 1    
    99   48  173 1    
   100   49   50 am   BACKBONE|DICT|INTERRES
   101   49  174 1    
   102   50   51 2    
   103   50   52 1    
   104   52   53 1    
   105   52   54 1    
   106   52  175 1    
   107   53  176 1    
   108   53  177 1    
   109   53  178 1    
   110   54   55 am   BACKBONE|DICT|INTERRES
   111   54  179 1    
   112   55   56 2    
   113   55   57 1    
   114   57   58 1    
   115   57   59 1    
   116   57  180 1    
   117   58  181 1    
   118   58  182 1    
   119   58  183 1    
   120   59   60 am   BACKBONE|DICT|INTERRES
   121   59  184 1    
   122   60   61 2    
   123   60   62 1    
   124   62   63 1    
   125   62   64 1    
   126   62  185 1    
   127   63  186 1    
   128   63  187 1    
   129   63  188 1    
   130   64   65 am   BACKBONE|DICT|INTERRES
   131   64  189 1    
   132   65   66 2    
   133   67   68 2    
   134   67   69 am   BACKBONE|DICT|INTERRES
   135   69   70 1    
   136   69  190 1    
   137   70   71 1    
   138   70   72 1    
   139   70  191 1    
   140   71  192 1    
   141   71  193 1    
   142   71  194 1    
   143   72   73 2    
   144   72   74 am   BACKBONE|DICT|INTERRES
   145   74   75 1    
   146   74  195 1    
   147   75   76 1    
   148   75   77 1    
   149   75  196 1    
   150   76  197 1    
   151   76  198 1    
   152   76  199 1    
   153   77   78 2    
   154   77   79 am   BACKBONE|DICT|INTERRES
   155   79   80 1    
   156   79  200 1    
   157   80   81 1    
   158   80   82 1    
   159   80  201 1    
   160   81  202 1    
   161   81  203 1    
   162   81  204 1    
   163   82   83 2    
   164   82   84 am   BACKBONE|DICT|INTERRES
   165   84   85 1    
   166   84  205 1    
   167   85   86 1    
   168   85   87 1    
   169   85  206 1    
   170   86  207 1    
   171   86  208 1    
   172   86  209 1    
   173   87   88 2    
   174   87   89 am   BACKBONE|DICT|INTERRES
   175   89   90 1    
   176   89  210 1    
   177   90   91 1    
   178   90   92 1    
   179   90  211 1    
   180   91  212 1    
   181   91  213 1    
   182   91  214 1    
   183   92   93 2    
   184   92   94 am   BACKBONE|DICT|INTERRES
   185   94   95 1    
   186   94  215 1    
   187   95   96 1    
   188   95   97 1    
   189   95  216 1    
   190   96  217 1    
   191   96  218 1    
   192   96  219 1    
   193   97   98 2    
   194   97   99 am   BACKBONE|DICT|INTERRES
   195   99  100 1    
   196   99  220 1    
   197  100  101 1    
   198  100  102 1    
   199  100  221 1    
   200  101  222 1    
   201  101  223 1    
   202  101  224 1    
   203  102  103 2    
   204  102  104 am   BACKBONE|DICT|INTERRES
   205  104  105 1    
   206  104  225 1    
   207  105  106 1    
   208  105  107 1    
   209  105  226 1    
   210  106  227 1    
   211  106  228 1    
   212  106  229 1    
   213  107  108 2    
   214  107  109 am   BACKBONE|DICT|INTERRES
   215  109  110 1    
   216  109  230 1    
   217  110  111 1    
   218  110  112 1    
   219  110  231 1    
   220  111  232 1    
   221  111  233 1    
   222  111  234 1    
   223  112  113 2    
   224  112  114 am   BACKBONE|DICT|INTERRES
   225  114  115 1    
   226  114  235 1    
   227  115  116 1    
   228  115  117 1    
   229  115  236 1    
   230  116  237 1    
   231  116  238 1    
   232  116  239 1    
   233  117  118 2    
   234  117  119 am   BACKBONE|DICT|INTERRES
   235  119  120 1    
   236  119  240 1    
   237  120  121 1    
   238  120  124 1    
   239  120  241 1    
   240  121  122 am   BACKBONE|DICT|INTERRES
   241  121  123 2    
   242  122  242 1    
   243  122  243 1    
   244  124  125 1    
   245  124  244 1    
   246  124  245 1    
   247  125  126 1    
   248  126  246 1    
   249  126  247 1    
@<TRIPOS>SUBSTRUCTURE
     1 UNK         1 GROUP             0       ****    0 ROOT    
