@<TRIPOS>MOLECULE
3R540
247   249    1
SMALL
USER_CHARGES


@<TRIPOS>ATOM
      1 CA          5.4716  -10.1403  -50.7487 C.3       0 UNK        -0.1800 
      2 C           4.8160  -10.6699  -49.4819 C.2       0 UNK         0.5000 
      3 O           4.1299   -9.9190  -48.7882 O.2       0 UNK        -0.5000 
      4 N           5.0084  -11.9639  -49.1855 N.am      1 UNK        -0.5000 
      5 CA          4.4802  -12.6544  -47.9987 C.3       1 UNK         0.1400 
      6 C6          5.0029  -14.1110  -47.9024 C.3       23 UNK        -0.0398 
      7 S7          5.1941  -14.7220  -46.1878 S.3       23 UNK        -0.2404 
      8 C8          3.5839  -15.4868  -45.7907 C.3       23 UNK        -0.0205 
      9 C9          3.1409  -16.5154  -46.8189 C.ar      23 UNK        -0.0193 
     10 C10         2.1775  -16.1797  -47.7717 C.ar      23 UNK        -0.1150 
     11 C11         1.7750  -17.1090  -48.7305 C.ar      23 UNK        -0.0193 
     12 C12         2.3302  -18.3911  -48.7192 C.ar      23 UNK        -0.1150 
     13 C13         3.2716  -18.7605  -47.7466 C.ar      23 UNK        -0.0193 
     14 C14         3.6766  -17.8054  -46.8084 C.ar      23 UNK        -0.1150 
     15 C15         3.8764  -20.1655  -47.6455 C.3       23 UNK        -0.0205 
     16 S16         3.3068  -21.3946  -48.8705 S.3       23 UNK        -0.2404 
     17 C17         1.5512  -21.6011  -48.4190 C.3       23 UNK        -0.0398 
     18 CA          1.2154  -23.0503  -48.0042 C.3       11 UNK         0.1400 
     19 N           1.8018  -23.4273  -46.7179 N.am      11 UNK        -0.5000 
     20 C           2.0277  -24.6909  -46.3366 C.2       10 UNK         0.5000 
     21 O           1.8182  -25.6713  -47.0524 O.2       10 UNK        -0.5000 
     22 CA          2.5500  -24.8940  -44.9016 C.3       10 UNK         0.1400 
     23 CB          4.0746  -24.7115  -44.8526 C.3       10 UNK        -0.1800 
     24 N           1.9256  -23.9983  -43.9249 N.am      10 UNK        -0.5000 
     25 C           0.6259  -24.0191  -43.5991 C.2       9 UNK         0.5000 
     26 O          -0.1937  -24.7921  -44.0960 O.2       9 UNK        -0.5000 
     27 CA          0.1499  -22.9724  -42.5723 C.3       9 UNK         0.1400 
     28 CB          0.4497  -23.4528  -41.1442 C.3       9 UNK        -0.1800 
     29 N           0.6782  -21.6114  -42.7441 N.am      9 UNK        -0.5000 
     30 C           0.7295  -20.9143  -43.8874 C.2       8 UNK         0.5000 
     31 O           0.5194  -21.3986  -45.0019 O.2       8 UNK        -0.5000 
     32 CA          1.0896  -19.4210  -43.7734 C.3       8 UNK         0.1400 
     33 CB          2.6108  -19.2352  -43.6778 C.3       8 UNK        -0.1800 
     34 N           0.5903  -18.6918  -44.9401 N.am      8 UNK        -0.5000 
     35 C          -0.7064  -18.4476  -45.1727 C.2       7 UNK         0.5000 
     36 O          -1.5943  -18.6142  -44.3348 O.2       7 UNK        -0.5000 
     37 CA         -1.0511  -17.9748  -46.5942 C.3       7 UNK         0.1400 
     38 CB         -1.9006  -19.0047  -47.3662 C.3       7 UNK        -0.1800 
     39 N          -1.6302  -16.6312  -46.6071 N.am      7 UNK        -0.5000 
     40 C          -2.8549  -16.2321  -46.2404 C.2       6 UNK         0.5000 
     41 O          -3.7703  -16.9857  -45.9072 O.2       6 UNK        -0.5000 
     42 CA         -3.0681  -14.7033  -46.2296 C.3       6 UNK         0.1400 
     43 CB         -4.5397  -14.3069  -46.0113 C.3       6 UNK        -0.1800 
     44 N          -2.2509  -14.0620  -45.1979 N.am      6 UNK        -0.5000 
     45 C          -0.9384  -13.8194  -45.2905 C.2       5 UNK         0.5000 
     46 O          -0.2587  -14.1083  -46.2774 O.2       5 UNK        -0.5000 
     47 CA         -0.2687  -13.2049  -44.0577 C.3       5 UNK         0.1400 
     48 CB          0.4613  -14.2845  -43.2395 C.3       5 UNK        -0.1800 
     49 N           0.6734  -12.1754  -44.4817 N.am      5 UNK        -0.5000 
     50 C           0.9995  -11.0961  -43.7598 C.2       4 UNK         0.5000 
     51 O           0.5583  -10.8695  -42.6321 O.2       4 UNK        -0.5000 
     52 CA          1.9640  -10.0870  -44.4043 C.3       4 UNK         0.1400 
     53 CB          3.4229  -10.5467  -44.2477 C.3       4 UNK        -0.1800 
     54 N           1.6625   -9.8836  -45.8203 N.am      4 UNK        -0.5000 
     55 C           0.7741   -8.9974  -46.2916 C.2       3 UNK         0.5000 
     56 O           0.1281   -8.2345  -45.5721 O.2       3 UNK        -0.5000 
     57 CA          0.5736   -8.9341  -47.8191 C.3       3 UNK         0.1400 
     58 CB          1.3716   -7.7654  -48.4175 C.3       3 UNK        -0.1800 
     59 N           0.9681  -10.1730  -48.4895 N.am      3 UNK        -0.5000 
     60 C           0.1824  -11.2550  -48.5938 C.2       2 UNK         0.5000 
     61 O          -0.9889  -11.2831  -48.2150 O.2       2 UNK        -0.5000 
     62 CA          0.8062  -12.5255  -49.2109 C.3       2 UNK         0.1400 
     63 CB          0.4372  -12.6385  -50.6976 C.3       2 UNK        -0.1800 
     64 N           2.2638  -12.6145  -49.0765 N.am      2 UNK        -0.5000 
     65 C           2.9394  -12.6076  -47.9175 C.2       1 UNK         0.5000 
     66 O           2.3952  -12.5078  -46.8202 O.2       1 UNK        -0.5000 
     67 C          -0.3074  -23.2503  -47.9778 C.2       11 UNK         0.5000 
     68 O          -0.8579  -23.7713  -48.9447 O.2       11 UNK        -0.5000 
     69 N          -0.9584  -22.8510  -46.8757 N.am      12 UNK        -0.5000 
     70 CA         -2.4053  -22.9355  -46.6818 C.3       12 UNK         0.1400 
     71 CB         -2.7930  -22.2978  -45.3414 C.3       12 UNK        -0.1800 
     72 C          -2.9403  -24.3728  -46.7760 C.2       12 UNK         0.5000 
     73 O          -3.9711  -24.5836  -47.4136 O.2       12 UNK        -0.5000 
     74 N          -2.2141  -25.3336  -46.1872 N.am      13 UNK        -0.5000 
     75 CA         -2.5136  -26.7637  -46.2648 C.3       13 UNK         0.1400 
     76 CB         -1.5624  -27.5384  -45.3404 C.3       13 UNK        -0.1800 
     77 C          -2.4406  -27.3083  -47.7031 C.2       13 UNK         0.5000 
     78 O          -3.3573  -28.0087  -48.1346 O.2       13 UNK        -0.5000 
     79 N          -1.3764  -26.9402  -48.4314 N.am      14 UNK        -0.5000 
     80 CA         -1.1646  -27.3000  -49.8366 C.3       14 UNK         0.1400 
     81 CB          0.2645  -26.9156  -50.2487 C.3       14 UNK        -0.1800 
     82 C          -2.1998  -26.6548  -50.7787 C.2       14 UNK         0.5000 
     83 O          -2.6274  -27.2857  -51.7453 O.2       14 UNK        -0.5000 
     84 N          -2.6121  -25.4255  -50.4487 N.am      15 UNK        -0.5000 
     85 CA         -3.6359  -24.6400  -51.1347 C.3       15 UNK         0.1400 
     86 CB         -3.3542  -23.1502  -50.8777 C.3       15 UNK        -0.1800 
     87 C          -5.0828  -25.0151  -50.7468 C.2       15 UNK         0.5000 
     88 O          -6.0015  -24.2936  -51.1368 O.2       15 UNK        -0.5000 
     89 N          -5.2672  -26.1151  -49.9995 N.am      16 UNK        -0.5000 
     90 CA         -6.5414  -26.6974  -49.5655 C.3       16 UNK         0.1400 
     91 CB         -7.3620  -27.1846  -50.7787 C.3       16 UNK        -0.1800 
     92 C          -7.3311  -25.7506  -48.6418 C.2       16 UNK         0.5000 
     93 O          -8.4427  -25.3369  -48.9720 O.2       16 UNK        -0.5000 
     94 N          -6.7081  -25.4035  -47.5077 N.am      17 UNK        -0.5000 
     95 CA         -7.1611  -24.4339  -46.5031 C.3       17 UNK         0.1400 
     96 CB         -8.4903  -24.8677  -45.8495 C.3       17 UNK        -0.1800 
     97 C          -7.1889  -22.9999  -47.0695 C.2       17 UNK         0.5000 
     98 O          -8.1262  -22.2429  -46.8134 O.2       17 UNK        -0.5000 
     99 N          -6.1465  -22.6756  -47.8493 N.am      18 UNK        -0.5000 
    100 CA        -5.8982  -21.4071  -48.5438 C.3       18 UNK         0.1400 
    101 CB        -5.7122  -20.2552  -47.5351 C.3       18 UNK        -0.1800 
    102 C         -6.9224  -21.0642  -49.6484 C.2       18 UNK         0.5000 
    103 O         -6.9346  -19.9274  -50.1217 O.2       18 UNK        -0.5000 
    104 N         -7.7356  -22.0404  -50.0774 N.am      19 UNK        -0.5000 
    105 CA        -8.7558  -21.8926  -51.1187 C.3       19 UNK         0.1400 
    106 CB        -9.6090  -23.1674  -51.1789 C.3       19 UNK        -0.1800 
    107 C         -8.1695  -21.5709  -52.5057 C.2       19 UNK         0.5000 
    108 O         -8.7677  -20.7963  -53.2531 O.2       19 UNK        -0.5000 
    109 N         -6.9968  -22.1425  -52.8099 N.am      20 UNK        -0.5000 
    110 CA        -6.2362  -21.8805  -54.0348 C.3       20 UNK         0.1400 
    111 CB        -5.3348  -23.0901  -54.3287 C.3       20 UNK        -0.1800 
    112 C         -5.4061  -20.5782  -53.9769 C.2       20 UNK         0.5000 
    113 O         -4.7926  -20.2219  -54.9840 O.2       20 UNK        -0.5000 
    114 N         -5.3978  -19.8994  -52.8183 N.am      21 UNK        -0.5000 
    115 CA        -4.6355  -18.6899  -52.4914 C.3       21 UNK         0.1400 
    116 CB        -5.0896  -17.5008  -53.3678 C.3       21 UNK        -0.1800 
    117 C         -3.1069  -18.9213  -52.5053 C.2       21 UNK         0.5000 
    118 O         -2.6545  -20.0604  -52.3682 O.2       21 UNK        -0.5000 
    119 N         -2.3354  -17.8323  -52.6110 N.am      22 UNK        -0.5000 
    120 CA        -0.8670  -17.8513  -52.6801 C.3       22 UNK         0.1400 
    121 C         -0.3385  -18.3605  -54.0511 C.2       22 UNK         0.5000 
    122 N          0.7954  -19.0473  -54.0711 N.am      22 UNK        -0.7600 
    123 O         -0.9250  -18.1030  -55.1002 O.2       22 UNK        -0.5000 
    124 C124       -0.2746  -16.4622  -52.3141 C.3       23 UNK        -0.0398 
    125 S125        1.3097  -16.6021  -51.4204 S.3       23 UNK        -0.2404 
    126 C126        0.6792  -16.7579  -49.7237 C.3       23 UNK        -0.0205 
    127 H127        6.1533   -9.3256  -50.5046 H         1 UNK         0.0600 
    128 H128        4.7126   -9.7581  -51.4314 H         1 UNK         0.0600 
    129 H129        6.0377  -10.9143  -51.2673 H         1 UNK         0.0600 
    130 H130        5.5779  -12.5246  -49.8034 H         1 UNK         0.3000 
    131 H131        4.8584  -12.0977  -47.1384 H         1 UNK         0.0600 
    132 H132        6.0054  -14.1612  -48.3293 H         1 UNK         0.0800 
    133 H133        4.4129  -14.7991  -48.5079 H         1 UNK         0.0800 
    134 H134        2.8262  -14.7128  -45.6757 H         1 UNK         0.0800 
    135 H135        3.6606  -15.9662  -44.8140 H         1 UNK         0.0800 
    136 H136        1.7349  -15.1949  -47.7609 H         1 UNK         0.1150 
    137 H137        2.0024  -19.0934  -49.4698 H         1 UNK         0.1150 
    138 H138        4.4135  -18.0661  -46.0612 H         1 UNK         0.1150 
    139 H139        4.9596  -20.0787  -47.7408 H         1 UNK         0.0800 
    140 H140        3.6882  -20.5670  -46.6495 H         1 UNK         0.0800 
    141 H141        0.9670  -21.3096  -49.2943 H         1 UNK         0.0800 
    142 H142        1.2786  -20.9023  -47.6264 H         1 UNK         0.0800 
    143 H143        1.6100  -23.7171  -48.7746 H         1 UNK         0.0600 
    144 H144        1.9060  -22.6870  -46.0363 H         1 UNK         0.3000 
    145 H145        2.3195  -25.9207  -44.6092 H         1 UNK         0.0600 
    146 H146        4.4674  -24.9364  -43.8609 H         1 UNK         0.0600 
    147 H147        4.3672  -23.6920  -45.1075 H         1 UNK         0.0600 
    148 H148        4.5704  -25.3810  -45.5568 H         1 UNK         0.0600 
    149 H149        2.5222  -23.3165  -43.4800 H         1 UNK         0.3000 
    150 H150       -0.9338  -22.8995  -42.6721 H         1 UNK         0.0600 
    151 H151        0.0549  -24.4560  -40.9768 H         1 UNK         0.0600 
    152 H152       -0.0089  -22.7987  -40.4024 H         1 UNK         0.0600 
    153 H153        1.5220  -23.4846  -40.9471 H         1 UNK         0.0600 
    154 H154        0.9049  -21.1274  -41.8874 H         1 UNK         0.3000 
    155 H155        0.6242  -19.0101  -42.8750 H         1 UNK         0.0600 
    156 H156        3.0058  -19.7018  -42.7748 H         1 UNK         0.0600 
    157 H157        2.8782  -18.1791  -43.6394 H         1 UNK         0.0600 
    158 H158        3.1264  -19.6824  -44.5270 H         1 UNK         0.0600 
    159 H159        1.2563  -18.5429  -45.6838 H         1 UNK         0.3000 
    160 H160       -0.1150  -17.8865  -47.1355 H         1 UNK         0.0600 
    161 H161       -2.8376  -19.2262  -46.8562 H         1 UNK         0.0600 
    162 H162       -1.3612  -19.9468  -47.4691 H         1 UNK         0.0600 
    163 H163       -2.1374  -18.6530  -48.3703 H         1 UNK         0.0600 
    164 H164       -0.9632  -15.8821  -46.7701 H         1 UNK         0.3000 
    165 H165       -2.7659  -14.3220  -47.2078 H         1 UNK         0.0600 
    166 H166       -4.6690  -13.2261  -46.0716 H         1 UNK         0.0600 
    167 H167       -5.1809  -14.7521  -46.7731 H         1 UNK         0.0600 
    168 H168       -4.9074  -14.6351  -45.0384 H         1 UNK         0.0600 
    169 H169       -2.7282  -13.8364  -44.3371 H         1 UNK         0.3000 
    170 H170       -1.0440  -12.7512  -43.4365 H         1 UNK         0.0600 
    171 H171        1.2531  -14.7604  -43.8184 H         1 UNK         0.0600 
    172 H172        0.9110  -13.8635  -42.3403 H         1 UNK         0.0600 
    173 H173       -0.2282  -15.0680  -42.9226 H         1 UNK         0.0600 
    174 H174        1.0871  -12.3128  -45.4020 H         1 UNK         0.3000 
    175 H175        1.8593   -9.1368  -43.8760 H         1 UNK         0.0600 
    176 H176        3.5986  -11.5194  -44.7073 H         1 UNK         0.0600 
    177 H177        4.1119   -9.8333  -44.7001 H         1 UNK         0.0600 
    178 H178        3.6898  -10.6334  -43.1938 H         1 UNK         0.0600 
    179 H179        2.0934  -10.5353  -46.4648 H         1 UNK         0.3000 
    180 H180       -0.4859   -8.7465  -48.0067 H         1 UNK         0.0600 
    181 H181        2.4414   -7.8720  -48.2352 H         1 UNK         0.0600 
    182 H182        1.0589   -6.8161  -47.9808 H         1 UNK         0.0600 
    183 H183        1.2197   -7.6932  -49.4945 H         1 UNK         0.0600 
    184 H184        1.9295  -10.2288  -48.8038 H         1 UNK         0.3000 
    185 H185        0.3755  -13.3822  -48.6920 H         1 UNK         0.0600 
    186 H186        0.8545  -11.8150  -51.2784 H         1 UNK         0.0600 
    187 H187        0.8030  -13.5712  -51.1262 H         1 UNK         0.0600 
    188 H188       -0.6449  -12.6227  -50.8340 H         1 UNK         0.0600 
    189 H189        2.7917  -12.6692  -49.9351 H         1 UNK         0.3000 
    190 H190       -0.4234  -22.4133  -46.1274 H         1 UNK         0.3000 
    191 H191       -2.8738  -22.3536  -47.4774 H         1 UNK         0.0600 
    192 H192       -2.4468  -21.2663  -45.2767 H         1 UNK         0.0600 
    193 H193       -2.3700  -22.8465  -44.5010 H         1 UNK         0.0600 
    194 H194       -3.8762  -22.2867  -45.2140 H         1 UNK         0.0600 
    195 H195       -1.3994  -25.0690  -45.6406 H         1 UNK         0.3000 
    196 H196       -3.5337  -26.9117  -45.9047 H         1 UNK         0.0600 
    197 H197       -1.6855  -27.2284  -44.3025 H         1 UNK         0.0600 
    198 H198       -0.5179  -27.3806  -45.6130 H         1 UNK         0.0600 
    199 H199       -1.7579  -28.6105  -45.3849 H         1 UNK         0.0600 
    200 H200       -0.6830  -26.3388  -48.0085 H         1 UNK         0.3000 
    201 H201       -1.2652  -28.3837  -49.9254 H         1 UNK         0.0600 
    202 H202        1.0035  -27.4146  -49.6214 H         1 UNK         0.0600 
    203 H203        0.4327  -25.8411  -50.1709 H         1 UNK         0.0600 
    204 H204        0.4642  -27.2053  -51.2810 H         1 UNK         0.0600 
    205 H205       -2.1425  -24.9588  -49.6770 H         1 UNK         0.3000 
    206 H206       -3.5457  -24.8203  -52.2071 H         1 UNK         0.0600 
    207 H207       -2.3879  -22.8589  -51.2899 H         1 UNK         0.0600 
    208 H208       -3.3337  -22.9332  -49.8112 H         1 UNK         0.0600 
    209 H209       -4.1034  -22.5034  -51.3349 H         1 UNK         0.0600 
    210 H210       -4.4406  -26.6096  -49.6903 H         1 UNK         0.3000 
    211 H211       -6.2902  -27.5755  -48.9686 H         1 UNK         0.0600 
    212 H212       -7.6752  -26.3602  -51.4200 H         1 UNK         0.0600 
    213 H213       -8.2643  -27.7037  -50.4535 H         1 UNK         0.0600 
    214 H214       -6.7872  -27.8823  -51.3876 H         1 UNK         0.0600 
    215 H215       -5.7482  -25.7082  -47.3933 H         1 UNK         0.3000 
    216 H216       -6.4004  -24.4329  -45.7210 H         1 UNK         0.0600 
    217 H217       -8.7348  -24.2235  -45.0043 H         1 UNK         0.0600 
    218 H218       -8.4293  -25.8883  -45.4721 H         1 UNK         0.0600 
    219 H219       -9.3262  -24.8165  -46.5474 H         1 UNK         0.0600 
    220 H220       -5.4345  -23.3900  -47.9694 H         1 UNK         0.3000 
    221 H221       -4.9474  -21.5293  -49.0591 H         1 UNK         0.0600 
    222 H222       -6.6469  -19.9974  -47.0369 H         1 UNK         0.0600 
    223 H223       -4.9842  -20.5153  -46.7671 H         1 UNK         0.0600 
    224 H224       -5.3484  -19.3538  -48.0298 H         1 UNK         0.0600 
    225 H225       -7.6326  -22.9647  -49.6800 H         1 UNK         0.3000 
    226 H226       -9.4037  -21.0616  -50.8327 H         1 UNK         0.0600 
    227 H227      -10.0934  -23.3630  -50.2221 H         1 UNK         0.0600 
    228 H228      -10.3949  -23.0788  -51.9300 H         1 UNK         0.0600 
    229 H229       -9.0064  -24.0405  -51.4333 H         1 UNK         0.0600 
    230 H230       -6.5998  -22.8119  -52.1538 H         1 UNK         0.3000 
    231 H231       -6.9384  -21.7799  -54.8650 H         1 UNK         0.0600 
    232 H232       -4.8699  -22.9992  -55.3111 H         1 UNK         0.0600 
    233 H233       -5.9013  -24.0215  -54.3216 H         1 UNK         0.0600 
    234 H234       -4.5322  -23.1765  -53.5986 H         1 UNK         0.0600 
    235 H235       -5.9510  -20.2683  -52.0558 H         1 UNK         0.3000 
    236 H236       -4.8926  -18.4526  -51.4582 H         1 UNK         0.0600 
    237 H237       -4.7365  -17.5947  -54.3954 H         1 UNK         0.0600 
    238 H238       -6.1770  -17.4277  -53.3953 H         1 UNK         0.0600 
    239 H239       -4.7199  -16.5527  -52.9766 H         1 UNK         0.0600 
    240 H240       -2.7783  -16.9378  -52.7581 H         1 UNK         0.3000 
    241 H241       -0.5435  -18.5700  -51.9239 H         1 UNK         0.0600 
    242 H242        1.1578  -19.3704  -54.9546 H         1 UNK         0.3800 
    243 H243        1.3099  -19.2377  -53.2253 H         1 UNK         0.3800 
    244 H244       -0.9629  -15.9024  -51.6789 H         1 UNK         0.0800 
    245 H245       -0.1317  -15.8393  -53.1992 H         1 UNK         0.0800 
    246 H246        0.1850  -15.8278  -49.4390 H         1 UNK         0.0800 
    247 H247       -0.0866  -17.5341  -49.6912 H         1 UNK         0.0800 
@<TRIPOS>BOND
     1    1    2 1    
     2    1  127 1    
     3    1  128 1    
     4    1  129 1    
     5    2    3 2    
     6    2    4 am   BACKBONE|DICT|INTERRES
     7    4    5 1    
     8    4  130 1    
     9    5    6 1    
    10    5   65 1    
    11    5  131 1    
    12    6    7 1    
    13    6  132 1    
    14    6  133 1    
    15    7    8 1    
    16    8    9 1    
    17    8  134 1    
    18    8  135 1    
    19    9   10 ar   
    20    9   14 ar   
    21   10   11 ar   
    22   10  136 1    
    23   11   12 ar   
    24   11  126 1    
    25   12   13 ar   
    26   12  137 1    
    27   13   14 ar   
    28   13   15 1    
    29   14  138 1    
    30   15   16 1    
    31   15  139 1    
    32   15  140 1    
    33   16   17 1    
    34   17   18 1    
    35   17  141 1    
    36   17  142 1    
    37   18   19 1    
    38   18   67 1    
    39   18  143 1    
    40   19   20 am   BACKBONE|DICT|INTERRES
    41   19  144 1    
    42   20   21 2    
    43   20   22 1    
    44   22   23 1    
    45   22   24 1    
    46   22  145 1    
    47   23  146 1    
    48   23  147 1    
    49   23  148 1    
    50   24   25 am   BACKBONE|DICT|INTERRES
    51   24  149 1    
    52   25   26 2    
    53   25   27 1    
    54   27   28 1    
    55   27   29 1    
    56   27  150 1    
    57   28  151 1    
    58   28  152 1    
    59   28  153 1    
    60   29   30 am   BACKBONE|DICT|INTERRES
    61   29  154 1    
    62   30   31 2    
    63   30   32 1    
    64   32   33 1    
    65   32   34 1    
    66   32  155 1    
    67   33  156 1    
    68   33  157 1    
    69   33  158 1    
    70   34   35 am   BACKBONE|DICT|INTERRES
    71   34  159 1    
    72   35   36 2    
    73   35   37 1    
    74   37   38 1    
    75   37   39 1    
    76   37  160 1    
    77   38  161 1    
    78   38  162 1    
    79   38  163 1    
    80   39   40 am   BACKBONE|DICT|INTERRES
    81   39  164 1    
    82   40   41 2    
    83   40   42 1    
    84   42   43 1    
    85   42   44 1    
    86   42  165 1    
    87   43  166 1    
    88   43  167 1    
    89   43  168 1    
    90   44   45 am   BACKBONE|DICT|INTERRES
    91   44  169 1    
    92   45   46 2    
    93   45   47 1    
    94   47   48 1    
    95   47   49 1    
    96   47  170 1    
    97   48  171 1    
    98   48  172 1    
    99   48  173 1    
   100   49   50 am   BACKBONE|DICT|INTERRES
   101   49  174 1    
   102   50   51 2    
   103   50   52 1    
   104   52   53 1    
   105   52   54 1    
   106   52  175 1    
   107   53  176 1    
   108   53  177 1    
   109   53  178 1    
   110   54   55 am   BACKBONE|DICT|INTERRES
   111   54  179 1    
   112   55   56 2    
   113   55   57 1    
   114   57   58 1    
   115   57   59 1    
   116   57  180 1    
   117   58  181 1    
   118   58  182 1    
   119   58  183 1    
   120   59   60 am   BACKBONE|DICT|INTERRES
   121   59  184 1    
   122   60   61 2    
   123   60   62 1    
   124   62   63 1    
   125   62   64 1    
   126   62  185 1    
   127   63  186 1    
   128   63  187 1    
   129   63  188 1    
   130   64   65 am   BACKBONE|DICT|INTERRES
   131   64  189 1    
   132   65   66 2    
   133   67   68 2    
   134   67   69 am   BACKBONE|DICT|INTERRES
   135   69   70 1    
   136   69  190 1    
   137   70   71 1    
   138   70   72 1    
   139   70  191 1    
   140   71  192 1    
   141   71  193 1    
   142   71  194 1    
   143   72   73 2    
   144   72   74 am   BACKBONE|DICT|INTERRES
   145   74   75 1    
   146   74  195 1    
   147   75   76 1    
   148   75   77 1    
   149   75  196 1    
   150   76  197 1    
   151   76  198 1    
   152   76  199 1    
   153   77   78 2    
   154   77   79 am   BACKBONE|DICT|INTERRES
   155   79   80 1    
   156   79  200 1    
   157   80   81 1    
   158   80   82 1    
   159   80  201 1    
   160   81  202 1    
   161   81  203 1    
   162   81  204 1    
   163   82   83 2    
   164   82   84 am   BACKBONE|DICT|INTERRES
   165   84   85 1    
   166   84  205 1    
   167   85   86 1    
   168   85   87 1    
   169   85  206 1    
   170   86  207 1    
   171   86  208 1    
   172   86  209 1    
   173   87   88 2    
   174   87   89 am   BACKBONE|DICT|INTERRES
   175   89   90 1    
   176   89  210 1    
   177   90   91 1    
   178   90   92 1    
   179   90  211 1    
   180   91  212 1    
   181   91  213 1    
   182   91  214 1    
   183   92   93 2    
   184   92   94 am   BACKBONE|DICT|INTERRES
   185   94   95 1    
   186   94  215 1    
   187   95   96 1    
   188   95   97 1    
   189   95  216 1    
   190   96  217 1    
   191   96  218 1    
   192   96  219 1    
   193   97   98 2    
   194   97   99 am   BACKBONE|DICT|INTERRES
   195   99  100 1    
   196   99  220 1    
   197  100  101 1    
   198  100  102 1    
   199  100  221 1    
   200  101  222 1    
   201  101  223 1    
   202  101  224 1    
   203  102  103 2    
   204  102  104 am   BACKBONE|DICT|INTERRES
   205  104  105 1    
   206  104  225 1    
   207  105  106 1    
   208  105  107 1    
   209  105  226 1    
   210  106  227 1    
   211  106  228 1    
   212  106  229 1    
   213  107  108 2    
   214  107  109 am   BACKBONE|DICT|INTERRES
   215  109  110 1    
   216  109  230 1    
   217  110  111 1    
   218  110  112 1    
   219  110  231 1    
   220  111  232 1    
   221  111  233 1    
   222  111  234 1    
   223  112  113 2    
   224  112  114 am   BACKBONE|DICT|INTERRES
   225  114  115 1    
   226  114  235 1    
   227  115  116 1    
   228  115  117 1    
   229  115  236 1    
   230  116  237 1    
   231  116  238 1    
   232  116  239 1    
   233  117  118 2    
   234  117  119 am   BACKBONE|DICT|INTERRES
   235  119  120 1    
   236  119  240 1    
   237  120  121 1    
   238  120  124 1    
   239  120  241 1    
   240  121  122 am   BACKBONE|DICT|INTERRES
   241  121  123 2    
   242  122  242 1    
   243  122  243 1    
   244  124  125 1    
   245  124  244 1    
   246  124  245 1    
   247  125  126 1    
   248  126  246 1    
   249  126  247 1    
@<TRIPOS>SUBSTRUCTURE
     1 UNK         1 GROUP             0       ****    0 ROOT    
