@<TRIPOS>MOLECULE
3R540
247   249    1
SMALL
USER_CHARGES


@<TRIPOS>ATOM
      1 CA         -1.9502  -10.7899  -52.7769 C.3       0 UNK        -0.1800 
      2 C          -0.8685  -10.9352  -51.7154 C.2       0 UNK         0.5000 
      3 O          -0.0406  -10.0377  -51.5566 O.2       0 UNK        -0.5000 
      4 N          -0.8681  -12.0636  -50.9954 N.am      1 UNK        -0.5000 
      5 CA          0.0474  -12.3513  -49.8893 C.3       1 UNK         0.1400 
      6 C6          0.0301  -13.8569  -49.5355 C.3       23 UNK        -0.0398 
      7 S7          1.4469  -14.3639  -48.5027 S.3       23 UNK        -0.2404 
      8 C8          2.5074  -15.2140  -49.7196 C.3       23 UNK        -0.0205 
      9 C9          1.9390  -16.5630  -50.1399 C.ar      23 UNK        -0.0193 
     10 C10         1.4931  -16.7778  -51.4491 C.ar      23 UNK        -0.1150 
     11 C11         0.9651  -18.0188  -51.8209 C.ar      23 UNK        -0.0193 
     12 C12         0.8894  -19.0455  -50.8766 C.ar      23 UNK        -0.1150 
     13 C13         1.3250  -18.8418  -49.5662 C.ar      23 UNK        -0.0193 
     14 C14         1.8581  -17.6018  -49.2087 C.ar      23 UNK        -0.1150 
     15 C15         1.1680  -19.9425  -48.5309 C.3       23 UNK        -0.0205 
     16 S16         2.6052  -21.0594  -48.4816 S.3       23 UNK        -0.2404 
     17 C17         1.7881  -22.6415  -48.0827 C.3       23 UNK        -0.0398 
     18 CA          2.6680  -23.6210  -47.2649 C.3       11 UNK         0.1400 
     19 N           2.9606  -23.1144  -45.9183 N.am      11 UNK        -0.5000 
     20 C           3.8390  -23.6607  -45.0644 C.2       10 UNK         0.5000 
     21 O           4.5785  -24.6023  -45.3521 O.2       10 UNK        -0.5000 
     22 CA          3.8629  -23.0888  -43.6363 C.3       10 UNK         0.1400 
     23 CB          4.7904  -21.8666  -43.5468 C.3       10 UNK        -0.1800 
     24 N           2.5195  -22.7255  -43.1802 N.am      10 UNK        -0.5000 
     25 C           1.6195  -23.5948  -42.6986 C.2       9 UNK         0.5000 
     26 O           1.8463  -24.7949  -42.5451 O.2       9 UNK        -0.5000 
     27 CA          0.2243  -23.0418  -42.3433 C.3       9 UNK         0.1400 
     28 CB          0.1927  -22.5598  -40.8852 C.3       9 UNK        -0.1800 
     29 N          -0.2042  -21.9468  -43.2124 N.am      9 UNK        -0.5000 
     30 C          -0.4946  -22.0689  -44.5143 C.2       8 UNK         0.5000 
     31 O          -0.4793  -23.1367  -45.1276 O.2       8 UNK        -0.5000 
     32 CA         -0.7961  -20.7644  -45.2741 C.3       8 UNK         0.1400 
     33 CB         -2.2868  -20.4268  -45.1798 C.3       8 UNK        -0.1800 
     34 N          -0.0122  -19.6092  -44.8226 N.am      8 UNK        -0.5000 
     35 C           1.3256  -19.5592  -44.7413 C.2       7 UNK         0.5000 
     36 O           2.0549  -20.5050  -45.0325 O.2       7 UNK        -0.5000 
     37 CA          1.9617  -18.2561  -44.2374 C.3       7 UNK         0.1400 
     38 CB          2.3517  -17.3573  -45.4153 C.3       7 UNK        -0.1800 
     39 N           1.0779  -17.5268  -43.3293 N.am      7 UNK        -0.5000 
     40 C           1.0278  -17.7386  -42.0066 C.2       6 UNK         0.5000 
     41 O           1.7528  -18.5381  -41.4138 O.2       6 UNK        -0.5000 
     42 CA         -0.0212  -16.9390  -41.2122 C.3       6 UNK         0.1400 
     43 CB          0.5649  -15.6022  -40.7335 C.3       6 UNK        -0.1800 
     44 N          -1.2426  -16.6967  -41.9827 N.am      6 UNK        -0.5000 
     45 C          -2.1337  -17.6551  -42.2794 C.2       5 UNK         0.5000 
     46 O          -2.0263  -18.8214  -41.8998 O.2       5 UNK        -0.5000 
     47 CA         -3.3346  -17.2664  -43.1650 C.3       5 UNK         0.1400 
     48 CB         -4.5552  -16.9363  -42.2934 C.3       5 UNK        -0.1800 
     49 N          -3.0840  -16.1479  -44.0750 N.am      5 UNK        -0.5000 
     50 C          -2.1411  -16.1012  -45.0259 C.2       4 UNK         0.5000 
     51 O          -1.3410  -17.0144  -45.2366 O.2       4 UNK        -0.5000 
     52 CA         -2.0405  -14.8004  -45.8508 C.3       4 UNK         0.1400 
     53 CB         -3.2465  -13.8508  -45.6816 C.3       4 UNK        -0.1800 
     54 N          -0.7960  -14.0730  -45.5891 N.am      4 UNK        -0.5000 
     55 C          -0.3082  -13.7002  -44.3958 C.2       3 UNK         0.5000 
     56 O          -0.8384  -13.9666  -43.3162 O.2       3 UNK        -0.5000 
     57 CA          0.9926  -12.8790  -44.4171 C.3       3 UNK         0.1400 
     58 CB          2.2165  -13.8028  -44.4673 C.3       3 UNK        -0.1800 
     59 N           1.0493  -11.9504  -45.5473 N.am      3 UNK        -0.5000 
     60 C           0.3730  -10.7946  -45.6119 C.2       2 UNK         0.5000 
     61 O          -0.3542  -10.3743  -44.7114 O.2       2 UNK        -0.5000 
     62 CA          0.5402   -9.9674  -46.9003 C.3       2 UNK         0.1400 
     63 CB          1.7494   -9.0266  -46.7841 C.3       2 UNK        -0.1800 
     64 N           0.6932  -10.8032  -48.0932 N.am      2 UNK        -0.5000 
     65 C          -0.3092  -11.4827  -48.6648 C.2       1 UNK         0.5000 
     66 O          -1.4723  -11.4624  -48.2559 O.2       1 UNK        -0.5000 
     67 C           1.9819  -25.0070  -47.2365 C.2       11 UNK         0.5000 
     68 O           2.0941  -25.7479  -48.2136 O.2       11 UNK        -0.5000 
     69 N           1.2584  -25.3050  -46.1440 N.am      12 UNK        -0.5000 
     70 CA          0.3245  -26.4245  -45.9683 C.3       12 UNK         0.1400 
     71 CB          1.0549  -27.7828  -46.0067 C.3       12 UNK        -0.1800 
     72 C          -0.8523  -26.3231  -46.9627 C.2       12 UNK         0.5000 
     73 O          -1.2347  -27.3087  -47.5966 O.2       12 UNK        -0.5000 
     74 N          -1.3646  -25.0962  -47.1077 N.am      13 UNK        -0.5000 
     75 CA         -2.3989  -24.7108  -48.0601 C.3       13 UNK         0.1400 
     76 CB         -2.2967  -23.1962  -48.2641 C.3       13 UNK        -0.1800 
     77 C          -3.8132  -25.0909  -47.5912 C.2       13 UNK         0.5000 
     78 O          -4.0329  -25.3323  -46.4015 O.2       13 UNK        -0.5000 
     79 N          -4.7566  -25.0908  -48.5406 N.am      14 UNK        -0.5000 
     80 CA         -6.1821  -25.3247  -48.2986 C.3       14 UNK         0.1400 
     81 CB         -6.7392  -26.1733  -49.4524 C.3       14 UNK        -0.1800 
     82 C          -6.9762  -24.0103  -48.1441 C.2       14 UNK         0.5000 
     83 O          -8.1752  -24.0611  -47.8656 O.2       14 UNK        -0.5000 
     84 N          -6.3110  -22.8635  -48.3222 N.am      15 UNK        -0.5000 
     85 CA         -6.8616  -21.5190  -48.1954 C.3       15 UNK         0.1400 
     86 CB         -7.3404  -21.0389  -49.5742 C.3       15 UNK        -0.1800 
     87 C          -5.7804  -20.5857  -47.6321 C.2       15 UNK         0.5000 
     88 O          -4.6020  -20.9516  -47.6102 O.2       15 UNK        -0.5000 
     89 N          -6.1945  -19.3890  -47.1967 N.am      16 UNK        -0.5000 
     90 CA         -5.3456  -18.3353  -46.6334 C.3       16 UNK         0.1400 
     91 CB         -6.2380  -17.3452  -45.8629 C.3       16 UNK        -0.1800 
     92 C          -4.4713  -17.6395  -47.7015 C.2       16 UNK         0.5000 
     93 O          -4.6388  -16.4447  -47.9522 O.2       16 UNK        -0.5000 
     94 N          -3.5656  -18.4166  -48.3100 N.am      17 UNK        -0.5000 
     95 CA         -2.7101  -18.0820  -49.4525 C.3       17 UNK         0.1400 
     96 CB         -1.7908  -16.8864  -49.1339 C.3       17 UNK        -0.1800 
     97 C          -3.5132  -17.9009  -50.7623 C.2       17 UNK         0.5000 
     98 O          -4.6980  -18.2370  -50.8117 O.2       17 UNK        -0.5000 
     99 N          -2.8368  -17.4013  -51.8083 N.am      18 UNK        -0.5000 
    100 CA        -3.3397  -17.1996  -53.1732 C.3       18 UNK         0.1400 
    101 CB        -4.4352  -16.1095  -53.2020 C.3       18 UNK        -0.1800 
    102 C         -3.7393  -18.5324  -53.8471 C.2       18 UNK         0.5000 
    103 O         -2.9347  -19.4664  -53.8436 O.2       18 UNK        -0.5000 
    104 N         -4.9392  -18.6042  -54.4383 N.am      19 UNK        -0.5000 
    105 CA        -5.4957  -19.8197  -55.0358 C.3       19 UNK         0.1400 
    106 CB        -6.7762  -19.4621  -55.8054 C.3       19 UNK        -0.1800 
    107 C         -5.7832  -20.8892  -53.9648 C.2       19 UNK         0.5000 
    108 O         -6.2467  -20.5449  -52.8776 O.2       19 UNK        -0.5000 
    109 N         -5.5034  -22.1572  -54.2990 N.am      20 UNK        -0.5000 
    110 CA        -5.5216  -23.3256  -53.4029 C.3       20 UNK         0.1400 
    111 CB        -6.9218  -23.5693  -52.8030 C.3       20 UNK        -0.1800 
    112 C         -4.3986  -23.2804  -52.3399 C.2       20 UNK         0.5000 
    113 O         -4.5220  -23.8733  -51.2641 O.2       20 UNK        -0.5000 
    114 N         -3.3048  -22.5964  -52.6906 N.am      21 UNK        -0.5000 
    115 CA        -2.0629  -22.5056  -51.9372 C.3       21 UNK         0.1400 
    116 CB        -2.0778  -21.2520  -51.0486 C.3       21 UNK        -0.1800 
    117 C         -0.9151  -22.4869  -52.9534 C.2       21 UNK         0.5000 
    118 O         -0.0859  -23.3967  -52.9547 O.2       21 UNK        -0.5000 
    119 N         -0.9436  -21.4903  -53.8457 N.am      22 UNK        -0.5000 
    120 CA        -0.1636  -21.4472  -55.0881 C.3       22 UNK         0.1400 
    121 C         -0.9936  -22.0334  -56.2647 C.2       22 UNK         0.5000 
    122 N         -0.3382  -22.4725  -57.3303 N.am      22 UNK        -0.7600 
    123 O         -2.2236  -22.0799  -56.2348 O.2       22 UNK        -0.5000 
    124 C124        0.3170  -20.0088  -55.4134 C.3       23 UNK        -0.0398 
    125 S125        1.5005  -19.3782  -54.1734 S.3       23 UNK        -0.2404 
    126 C126        0.4325  -18.2547  -53.2243 C.3       23 UNK        -0.0205 
    127 H127       -1.4967  -10.6633  -53.7600 H         1 UNK         0.0600 
    128 H128       -2.5649   -9.9143  -52.5683 H         1 UNK         0.0600 
    129 H129       -2.6029  -11.6626  -52.8136 H         1 UNK         0.0600 
    130 H130       -1.5985  -12.7432  -51.1500 H         1 UNK         0.3000 
    131 H131        1.0541  -12.0938  -50.2265 H         1 UNK         0.0600 
    132 H132       -0.8917  -14.1197  -49.0160 H         1 UNK         0.0800 
    133 H133        0.0339  -14.4520  -50.4490 H         1 UNK         0.0800 
    134 H134        3.4919  -15.3702  -49.2767 H         1 UNK         0.0800 
    135 H135        2.6607  -14.5661  -50.5840 H         1 UNK         0.0800 
    136 H136        1.5494  -15.9786  -52.1748 H         1 UNK         0.1150 
    137 H137        0.4876  -20.0047  -51.1668 H         1 UNK         0.1150 
    138 H138        2.1952  -17.4321  -48.1990 H         1 UNK         0.1150 
    139 H139        1.0240  -19.4988  -47.5478 H         1 UNK         0.0800 
    140 H140        0.2596  -20.5054  -48.7438 H         1 UNK         0.0800 
    141 H141        0.8621  -22.4455  -47.5417 H         1 UNK         0.0800 
    142 H142        1.4941  -23.0883  -49.0349 H         1 UNK         0.0800 
    143 H143        3.6187  -23.7452  -47.7876 H         1 UNK         0.0600 
    144 H144        2.4641  -22.2766  -45.6271 H         1 UNK         0.3000 
    145 H145        4.2626  -23.8592  -42.9733 H         1 UNK         0.0600 
    146 H146        4.8175  -21.4656  -42.5335 H         1 UNK         0.0600 
    147 H147        4.4782  -21.0651  -44.2162 H         1 UNK         0.0600 
    148 H148        5.8120  -22.1360  -43.8173 H         1 UNK         0.0600 
    149 H149        2.2326  -21.7713  -43.3563 H         1 UNK         0.3000 
    150 H150       -0.4928  -23.8585  -42.4505 H         1 UNK         0.0600 
    151 H151        0.4868  -23.3581  -40.2026 H         1 UNK         0.0600 
    152 H152       -0.8089  -22.2392  -40.5976 H         1 UNK         0.0600 
    153 H153        0.8720  -21.7214  -40.7239 H         1 UNK         0.0600 
    154 H154       -0.2516  -21.0267  -42.7977 H         1 UNK         0.3000 
    155 H155       -0.5559  -20.9347  -46.3236 H         1 UNK         0.0600 
    156 H156       -2.9038  -21.2484  -45.5427 H         1 UNK         0.0600 
    157 H157       -2.5195  -19.5489  -45.7801 H         1 UNK         0.0600 
    158 H158       -2.5881  -20.2312  -44.1516 H         1 UNK         0.0600 
    159 H159       -0.5303  -18.7541  -44.6520 H         1 UNK         0.3000 
    160 H160        2.8814  -18.5275  -43.7144 H         1 UNK         0.0600 
    161 H161        1.4777  -16.9658  -45.9382 H         1 UNK         0.0600 
    162 H162        2.9583  -17.9098  -46.1336 H         1 UNK         0.0600 
    163 H163        2.9556  -16.5177  -45.0764 H         1 UNK         0.0600 
    164 H164        0.4052  -16.9008  -43.7515 H         1 UNK         0.3000 
    165 H165       -0.2858  -17.5239  -40.3286 H         1 UNK         0.0600 
    166 H166       -0.1672  -15.0308  -40.1628 H         1 UNK         0.0600 
    167 H167        1.4266  -15.7666  -40.0854 H         1 UNK         0.0600 
    168 H168        0.8983  -14.9837  -41.5664 H         1 UNK         0.0600 
    169 H169       -1.3732  -15.7612  -42.3539 H         1 UNK         0.3000 
    170 H170       -3.5835  -18.1333  -43.7773 H         1 UNK         0.0600 
    171 H171       -4.3811  -16.0533  -41.6771 H         1 UNK         0.0600 
    172 H172       -5.4408  -16.7523  -42.9014 H         1 UNK         0.0600 
    173 H173       -4.7915  -17.7633  -41.6223 H         1 UNK         0.0600 
    174 H174       -3.6591  -15.3288  -43.9426 H         1 UNK         0.3000 
    175 H175       -2.0095  -15.1043  -46.8957 H         1 UNK         0.0600 
    176 H176       -3.3227  -13.4542  -44.6686 H         1 UNK         0.0600 
    177 H177       -3.1631  -13.0003  -46.3588 H         1 UNK         0.0600 
    178 H178       -4.1837  -14.3554  -45.9205 H         1 UNK         0.0600 
    179 H179       -0.2556  -13.8297  -46.4059 H         1 UNK         0.3000 
    180 H180        1.0381  -12.3071  -43.4877 H         1 UNK         0.0600 
    181 H181        3.1405  -13.2372  -44.3465 H         1 UNK         0.0600 
    182 H182        2.2732  -14.3339  -45.4174 H         1 UNK         0.0600 
    183 H183        2.1846  -14.5464  -43.6700 H         1 UNK         0.0600 
    184 H184        1.6287  -12.2159  -46.3301 H         1 UNK         0.3000 
    185 H185       -0.3553   -9.3535  -47.0198 H         1 UNK         0.0600 
    186 H186        1.8358   -8.3855  -47.6617 H         1 UNK         0.0600 
    187 H187        1.6539   -8.3743  -45.9150 H         1 UNK         0.0600 
    188 H188        2.6835   -9.5797  -46.6782 H         1 UNK         0.0600 
    189 H189        1.6192  -10.8575  -48.4928 H         1 UNK         0.3000 
    190 H190        1.2004  -24.5912  -45.4293 H         1 UNK         0.3000 
    191 H191       -0.1049  -26.3097  -44.9719 H         1 UNK         0.0600 
    192 H192        0.3774  -28.5944  -45.7396 H         1 UNK         0.0600 
    193 H193        1.8827  -27.8038  -45.2979 H         1 UNK         0.0600 
    194 H194        1.4541  -28.0060  -46.9963 H         1 UNK         0.0600 
    195 H195       -1.0369  -24.3673  -46.4799 H         1 UNK         0.3000 
    196 H196       -2.2056  -25.2081  -49.0133 H         1 UNK         0.0600 
    197 H197       -3.0619  -22.8460  -48.9548 H         1 UNK         0.0600 
    198 H198       -1.3252  -22.9214  -48.6718 H         1 UNK         0.0600 
    199 H199       -2.4324  -22.6567  -47.3279 H         1 UNK         0.0600 
    200 H200       -4.5135  -24.8267  -49.4923 H         1 UNK         0.3000 
    201 H201       -6.3173  -25.8904  -47.3745 H         1 UNK         0.0600 
    202 H202       -6.2293  -27.1348  -49.5142 H         1 UNK         0.0600 
    203 H203       -6.6194  -25.6704  -50.4107 H         1 UNK         0.0600 
    204 H204       -7.8019  -26.3781  -49.3165 H         1 UNK         0.0600 
    205 H205       -5.3133  -22.8926  -48.4841 H         1 UNK         0.3000 
    206 H206       -7.6998  -21.5245  -47.4956 H         1 UNK         0.0600 
    207 H207       -8.1075  -21.6987  -49.9794 H         1 UNK         0.0600 
    208 H208       -7.7680  -20.0372  -49.5221 H         1 UNK         0.0600 
    209 H209       -6.5152  -21.0057  -50.2864 H         1 UNK         0.0600 
    210 H210       -7.1733  -19.1586  -47.2868 H         1 UNK         0.3000 
    211 H211       -4.6719  -18.7920  -45.9083 H         1 UNK         0.0600 
    212 H212       -6.9801  -16.8813  -46.5137 H         1 UNK         0.0600 
    213 H213       -5.6452  -16.5442  -45.4208 H         1 UNK         0.0600 
    214 H214       -6.7672  -17.8418  -45.0495 H         1 UNK         0.0600 
    215 H215       -3.6079  -19.4051  -48.0762 H         1 UNK         0.3000 
    216 H216       -2.0654  -18.9474  -49.5956 H         1 UNK         0.0600 
    217 H217       -1.0169  -16.7678  -49.8902 H         1 UNK         0.0600 
    218 H218       -1.2795  -17.0253  -48.1810 H         1 UNK         0.0600 
    219 H219       -2.3499  -15.9526  -49.0931 H         1 UNK         0.0600 
    220 H220       -1.8620  -17.1789  -51.6736 H         1 UNK         0.3000 
    221 H221       -2.4953  -16.8215  -53.7509 H         1 UNK         0.0600 
    222 H222       -5.3409  -16.4207  -52.6805 H         1 UNK         0.0600 
    223 H223       -4.0828  -15.1928  -52.7289 H         1 UNK         0.0600 
    224 H224       -4.7104  -15.8523  -54.2255 H         1 UNK         0.0600 
    225 H225       -5.5610  -17.8132  -54.3650 H         1 UNK         0.3000 
    226 H226       -4.7631  -20.2145  -55.7435 H         1 UNK         0.0600 
    227 H227       -6.5750  -18.7328  -56.5904 H         1 UNK         0.0600 
    228 H228       -7.2031  -20.3446  -56.2837 H         1 UNK         0.0600 
    229 H229       -7.5386  -19.0454  -55.1458 H         1 UNK         0.0600 
    230 H230       -5.1418  -22.3352  -55.2267 H         1 UNK         0.3000 
    231 H231       -5.2925  -24.1832  -54.0369 H         1 UNK         0.0600 
    232 H232       -6.9900  -24.5699  -52.3789 H         1 UNK         0.0600 
    233 H233       -7.6990  -23.4893  -53.5629 H         1 UNK         0.0600 
    234 H234       -7.1538  -22.8618  -52.0072 H         1 UNK         0.0600 
    235 H235       -3.2906  -22.1609  -53.6032 H         1 UNK         0.3000 
    236 H236       -1.9507  -23.3911  -51.3078 H         1 UNK         0.0600 
    237 H237       -1.9709  -20.3360  -51.6258 H         1 UNK         0.0600 
    238 H238       -3.0078  -21.1702  -50.4863 H         1 UNK         0.0600 
    239 H239       -1.2586  -21.2819  -50.3337 H         1 UNK         0.0600 
    240 H240       -1.6818  -20.7914  -53.7840 H         1 UNK         0.3000 
    241 H241        0.7207  -22.0777  -54.9758 H         1 UNK         0.0600 
    242 H242       -0.8635  -22.8493  -58.1041 H         1 UNK         0.3800 
    243 H243        0.6688  -22.4506  -57.3824 H         1 UNK         0.3800 
    244 H244       -0.5309  -19.3277  -55.5056 H         1 UNK         0.0800 
    245 H245        0.8256  -19.9867  -56.3786 H         1 UNK         0.0800 
    246 H246        0.3210  -17.3155  -53.7679 H         1 UNK         0.0800 
    247 H247       -0.5623  -18.6885  -53.1417 H         1 UNK         0.0800 
@<TRIPOS>BOND
     1    1    2 1    
     2    1  127 1    
     3    1  128 1    
     4    1  129 1    
     5    2    3 2    
     6    2    4 am   BACKBONE|DICT|INTERRES
     7    4    5 1    
     8    4  130 1    
     9    5    6 1    
    10    5   65 1    
    11    5  131 1    
    12    6    7 1    
    13    6  132 1    
    14    6  133 1    
    15    7    8 1    
    16    8    9 1    
    17    8  134 1    
    18    8  135 1    
    19    9   10 ar   
    20    9   14 ar   
    21   10   11 ar   
    22   10  136 1    
    23   11   12 ar   
    24   11  126 1    
    25   12   13 ar   
    26   12  137 1    
    27   13   14 ar   
    28   13   15 1    
    29   14  138 1    
    30   15   16 1    
    31   15  139 1    
    32   15  140 1    
    33   16   17 1    
    34   17   18 1    
    35   17  141 1    
    36   17  142 1    
    37   18   19 1    
    38   18   67 1    
    39   18  143 1    
    40   19   20 am   BACKBONE|DICT|INTERRES
    41   19  144 1    
    42   20   21 2    
    43   20   22 1    
    44   22   23 1    
    45   22   24 1    
    46   22  145 1    
    47   23  146 1    
    48   23  147 1    
    49   23  148 1    
    50   24   25 am   BACKBONE|DICT|INTERRES
    51   24  149 1    
    52   25   26 2    
    53   25   27 1    
    54   27   28 1    
    55   27   29 1    
    56   27  150 1    
    57   28  151 1    
    58   28  152 1    
    59   28  153 1    
    60   29   30 am   BACKBONE|DICT|INTERRES
    61   29  154 1    
    62   30   31 2    
    63   30   32 1    
    64   32   33 1    
    65   32   34 1    
    66   32  155 1    
    67   33  156 1    
    68   33  157 1    
    69   33  158 1    
    70   34   35 am   BACKBONE|DICT|INTERRES
    71   34  159 1    
    72   35   36 2    
    73   35   37 1    
    74   37   38 1    
    75   37   39 1    
    76   37  160 1    
    77   38  161 1    
    78   38  162 1    
    79   38  163 1    
    80   39   40 am   BACKBONE|DICT|INTERRES
    81   39  164 1    
    82   40   41 2    
    83   40   42 1    
    84   42   43 1    
    85   42   44 1    
    86   42  165 1    
    87   43  166 1    
    88   43  167 1    
    89   43  168 1    
    90   44   45 am   BACKBONE|DICT|INTERRES
    91   44  169 1    
    92   45   46 2    
    93   45   47 1    
    94   47   48 1    
    95   47   49 1    
    96   47  170 1    
    97   48  171 1    
    98   48  172 1    
    99   48  173 1    
   100   49   50 am   BACKBONE|DICT|INTERRES
   101   49  174 1    
   102   50   51 2    
   103   50   52 1    
   104   52   53 1    
   105   52   54 1    
   106   52  175 1    
   107   53  176 1    
   108   53  177 1    
   109   53  178 1    
   110   54   55 am   BACKBONE|DICT|INTERRES
   111   54  179 1    
   112   55   56 2    
   113   55   57 1    
   114   57   58 1    
   115   57   59 1    
   116   57  180 1    
   117   58  181 1    
   118   58  182 1    
   119   58  183 1    
   120   59   60 am   BACKBONE|DICT|INTERRES
   121   59  184 1    
   122   60   61 2    
   123   60   62 1    
   124   62   63 1    
   125   62   64 1    
   126   62  185 1    
   127   63  186 1    
   128   63  187 1    
   129   63  188 1    
   130   64   65 am   BACKBONE|DICT|INTERRES
   131   64  189 1    
   132   65   66 2    
   133   67   68 2    
   134   67   69 am   BACKBONE|DICT|INTERRES
   135   69   70 1    
   136   69  190 1    
   137   70   71 1    
   138   70   72 1    
   139   70  191 1    
   140   71  192 1    
   141   71  193 1    
   142   71  194 1    
   143   72   73 2    
   144   72   74 am   BACKBONE|DICT|INTERRES
   145   74   75 1    
   146   74  195 1    
   147   75   76 1    
   148   75   77 1    
   149   75  196 1    
   150   76  197 1    
   151   76  198 1    
   152   76  199 1    
   153   77   78 2    
   154   77   79 am   BACKBONE|DICT|INTERRES
   155   79   80 1    
   156   79  200 1    
   157   80   81 1    
   158   80   82 1    
   159   80  201 1    
   160   81  202 1    
   161   81  203 1    
   162   81  204 1    
   163   82   83 2    
   164   82   84 am   BACKBONE|DICT|INTERRES
   165   84   85 1    
   166   84  205 1    
   167   85   86 1    
   168   85   87 1    
   169   85  206 1    
   170   86  207 1    
   171   86  208 1    
   172   86  209 1    
   173   87   88 2    
   174   87   89 am   BACKBONE|DICT|INTERRES
   175   89   90 1    
   176   89  210 1    
   177   90   91 1    
   178   90   92 1    
   179   90  211 1    
   180   91  212 1    
   181   91  213 1    
   182   91  214 1    
   183   92   93 2    
   184   92   94 am   BACKBONE|DICT|INTERRES
   185   94   95 1    
   186   94  215 1    
   187   95   96 1    
   188   95   97 1    
   189   95  216 1    
   190   96  217 1    
   191   96  218 1    
   192   96  219 1    
   193   97   98 2    
   194   97   99 am   BACKBONE|DICT|INTERRES
   195   99  100 1    
   196   99  220 1    
   197  100  101 1    
   198  100  102 1    
   199  100  221 1    
   200  101  222 1    
   201  101  223 1    
   202  101  224 1    
   203  102  103 2    
   204  102  104 am   BACKBONE|DICT|INTERRES
   205  104  105 1    
   206  104  225 1    
   207  105  106 1    
   208  105  107 1    
   209  105  226 1    
   210  106  227 1    
   211  106  228 1    
   212  106  229 1    
   213  107  108 2    
   214  107  109 am   BACKBONE|DICT|INTERRES
   215  109  110 1    
   216  109  230 1    
   217  110  111 1    
   218  110  112 1    
   219  110  231 1    
   220  111  232 1    
   221  111  233 1    
   222  111  234 1    
   223  112  113 2    
   224  112  114 am   BACKBONE|DICT|INTERRES
   225  114  115 1    
   226  114  235 1    
   227  115  116 1    
   228  115  117 1    
   229  115  236 1    
   230  116  237 1    
   231  116  238 1    
   232  116  239 1    
   233  117  118 2    
   234  117  119 am   BACKBONE|DICT|INTERRES
   235  119  120 1    
   236  119  240 1    
   237  120  121 1    
   238  120  124 1    
   239  120  241 1    
   240  121  122 am   BACKBONE|DICT|INTERRES
   241  121  123 2    
   242  122  242 1    
   243  122  243 1    
   244  124  125 1    
   245  124  244 1    
   246  124  245 1    
   247  125  126 1    
   248  126  246 1    
   249  126  247 1    
@<TRIPOS>SUBSTRUCTURE
     1 UNK         1 GROUP             0       ****    0 ROOT    
