@<TRIPOS>MOLECULE
3R540
247   249    1
SMALL
USER_CHARGES


@<TRIPOS>ATOM
      1 CA         -0.9670   -9.8863  -48.1658 C.3       0 UNK        -0.1800 
      2 C           0.0725  -10.5895  -47.3054 C.2       0 UNK         0.5000 
      3 O          -0.1387  -10.7547  -46.1036 O.2       0 UNK        -0.5000 
      4 N           1.2045  -10.9815  -47.9101 N.am      1 UNK        -0.5000 
      5 CA          2.3085  -11.7432  -47.2972 C.3       1 UNK         0.1400 
      6 C6          1.8851  -13.1739  -46.8710 C.3       23 UNK        -0.0398 
      7 S7          1.2531  -14.2007  -48.2392 S.3       23 UNK        -0.2404 
      8 C8          2.7779  -15.0424  -48.7629 C.3       23 UNK        -0.0205 
      9 C9          2.4763  -16.3806  -49.4136 C.ar      23 UNK        -0.0193 
     10 C10         2.3320  -16.4833  -50.7986 C.ar      23 UNK        -0.1150 
     11 C11         2.0903  -17.7248  -51.3934 C.ar      23 UNK        -0.0193 
     12 C12         1.9847  -18.8652  -50.5906 C.ar      23 UNK        -0.1150 
     13 C13         2.1275  -18.7778  -49.1982 C.ar      23 UNK        -0.0193 
     14 C14         2.3702  -17.5273  -48.6239 C.ar      23 UNK        -0.1150 
     15 C15         2.0355  -19.9836  -48.2611 C.3       23 UNK        -0.0205 
     16 S16         2.0464  -21.6249  -49.0570 S.3       23 UNK        -0.2404 
     17 C17         0.2890  -21.8398  -49.4973 C.3       23 UNK        -0.0398 
     18 CA         -0.4258  -22.7567  -48.4795 C.3       11 UNK         0.1400 
     19 N          -0.6093  -22.1127  -47.1779 N.am      11 UNK        -0.5000 
     20 C          -0.8499  -22.7674  -46.0353 C.2       10 UNK         0.5000 
     21 O          -0.9221  -23.9930  -45.9502 O.2       10 UNK        -0.5000 
     22 CA         -1.0995  -21.8971  -44.7909 C.3       10 UNK         0.1400 
     23 CB          0.2298  -21.4249  -44.1831 C.3       10 UNK        -0.1800 
     24 N          -1.9373  -20.7351  -45.0912 N.am      10 UNK        -0.5000 
     25 C          -3.2282  -20.8133  -45.4484 C.2       9 UNK         0.5000 
     26 O          -3.8526  -21.8711  -45.5128 O.2       9 UNK        -0.5000 
     27 CA         -3.9310  -19.5009  -45.8454 C.3       9 UNK         0.1400 
     28 CB         -4.5914  -18.8553  -44.6186 C.3       9 UNK        -0.1800 
     29 N          -3.0404  -18.5269  -46.4766 N.am      9 UNK        -0.5000 
     30 C          -2.3317  -18.7240  -47.5979 C.2       8 UNK         0.5000 
     31 O          -2.3807  -19.7581  -48.2632 O.2       8 UNK        -0.5000 
     32 CA         -1.3713  -17.5958  -48.0169 C.3       8 UNK         0.1400 
     33 CB         -1.9882  -16.7481  -49.1346 C.3       8 UNK        -0.1800 
     34 N          -0.9837  -16.7194  -46.9075 N.am      8 UNK        -0.5000 
     35 C          -0.2293  -17.0962  -45.8682 C.2       7 UNK         0.5000 
     36 O           0.2263  -18.2333  -45.7238 O.2       7 UNK        -0.5000 
     37 CA          0.0178  -16.0422  -44.7858 C.3       7 UNK         0.1400 
     38 CB         -0.9537  -16.2271  -43.6076 C.3       7 UNK        -0.1800 
     39 N           1.3945  -16.1716  -44.3264 N.am      7 UNK        -0.5000 
     40 C           2.1383  -15.1621  -43.8669 C.2       6 UNK         0.5000 
     41 O           1.7025  -14.0221  -43.6843 O.2       6 UNK        -0.5000 
     42 CA          3.6193  -15.4660  -43.5910 C.3       6 UNK         0.1400 
     43 CB          4.3572  -15.9219  -44.8685 C.3       6 UNK        -0.1800 
     44 N           4.2349  -14.2575  -43.0557 N.am      6 UNK        -0.5000 
     45 C           5.4265  -14.1580  -42.4610 C.2       5 UNK         0.5000 
     46 O           6.1908  -15.1081  -42.2866 O.2       5 UNK        -0.5000 
     47 CA          5.8273  -12.7575  -41.9631 C.3       5 UNK         0.1400 
     48 CB          6.5407  -11.9710  -43.0729 C.3       5 UNK        -0.1800 
     49 N           4.6888  -11.9791  -41.4650 N.am      5 UNK        -0.5000 
     50 C           4.0869  -12.2103  -40.2890 C.2       4 UNK         0.5000 
     51 O           4.4019  -13.1316  -39.5344 O.2       4 UNK        -0.5000 
     52 CA          2.9696  -11.2459  -39.8579 C.3       4 UNK         0.1400 
     53 CB          3.5436  -10.1470  -38.9498 C.3       4 UNK        -0.1800 
     54 N           2.2980  -10.6089  -40.9892 N.am      4 UNK        -0.5000 
     55 C           1.1429  -11.0136  -41.5257 C.2       3 UNK         0.5000 
     56 O           0.5401  -12.0228  -41.1591 O.2       3 UNK        -0.5000 
     57 CA          0.5256  -10.1244  -42.6254 C.3       3 UNK         0.1400 
     58 CB         -0.1633   -8.8915  -42.0106 C.3       3 UNK        -0.1800 
     59 N           1.4291   -9.7295  -43.7133 N.am      3 UNK        -0.5000 
     60 C           2.5525   -8.9941  -43.6825 C.2       2 UNK         0.5000 
     61 O           3.0284   -8.5185  -42.6500 O.2       2 UNK        -0.5000 
     62 CA          3.2622   -8.7350  -45.0331 C.3       2 UNK         0.1400 
     63 CB          4.7978   -8.6863  -44.8936 C.3       2 UNK        -0.1800 
     64 N           2.8587   -9.6557  -46.1045 N.am      2 UNK        -0.5000 
     65 C           3.0060  -10.9901  -46.1347 C.2       1 UNK         0.5000 
     66 O           3.6283  -11.6207  -45.2792 O.2       1 UNK        -0.5000 
     67 C          -1.7626  -23.2928  -49.0224 C.2       11 UNK         0.5000 
     68 O          -1.7868  -24.3945  -49.5698 O.2       11 UNK        -0.5000 
     69 N          -2.8598  -22.5526  -48.8069 N.am      12 UNK        -0.5000 
     70 CA         -4.2215  -22.9851  -49.1239 C.3       12 UNK         0.1400 
     71 CB         -5.2102  -21.8478  -48.8320 C.3       12 UNK        -0.1800 
     72 C          -4.6264  -24.2613  -48.3614 C.2       12 UNK         0.5000 
     73 O          -5.1712  -25.1836  -48.9691 O.2       12 UNK        -0.5000 
     74 N          -4.3105  -24.3041  -47.0590 N.am      13 UNK        -0.5000 
     75 CA         -4.5180  -25.4589  -46.1861 C.3       13 UNK         0.1400 
     76 CB         -4.2634  -25.0552  -44.7262 C.3       13 UNK        -0.1800 
     77 C          -3.6492  -26.6674  -46.5772 C.2       13 UNK         0.5000 
     78 O          -4.1465  -27.7931  -46.5574 O.2       13 UNK        -0.5000 
     79 N          -2.3866  -26.4172  -46.9558 N.am      14 UNK        -0.5000 
     80 CA         -1.4522  -27.4343  -47.4461 C.3       14 UNK         0.1400 
     81 CB         -0.0404  -26.8383  -47.5484 C.3       14 UNK        -0.1800 
     82 C          -1.8866  -28.0428  -48.7931 C.2       14 UNK         0.5000 
     83 O          -1.7601  -29.2534  -48.9808 O.2       14 UNK        -0.5000 
     84 N          -2.4189  -27.2011  -49.6909 N.am      15 UNK        -0.5000 
     85 CA         -3.0116  -27.6074  -50.9668 C.3       15 UNK         0.1400 
     86 CB         -3.2082  -26.3651  -51.8507 C.3       15 UNK        -0.1800 
     87 C          -4.3463  -28.3602  -50.8023 C.2       15 UNK         0.5000 
     88 O          -4.7236  -29.1172  -51.6971 O.2       15 UNK        -0.5000 
     89 N          -5.0464  -28.1145  -49.6847 N.am      16 UNK        -0.5000 
     90 CA         -6.3313  -28.6671  -49.2319 C.3       16 UNK         0.1400 
     91 CB         -6.2731  -30.2002  -49.1010 C.3       16 UNK        -0.1800 
     92 C          -7.5429  -28.2191  -50.0718 C.2       16 UNK         0.5000 
     93 O          -8.5803  -27.8720  -49.5074 O.2       16 UNK        -0.5000 
     94 N          -7.3793  -28.1926  -51.3983 N.am      17 UNK        -0.5000 
     95 CA         -8.3414  -27.6875  -52.3782 C.3       17 UNK         0.1400 
     96 CB         -8.0464  -28.3605  -53.7291 C.3       17 UNK        -0.1800 
     97 C          -8.3102  -26.1501  -52.5198 C.2       17 UNK         0.5000 
     98 O          -9.0802  -25.6080  -53.3132 O.2       17 UNK        -0.5000 
     99 N          -7.4077  -25.4819  -51.7820 N.am      18 UNK        -0.5000 
    100 CA        -7.1338  -24.0400  -51.7938 C.3       18 UNK         0.1400 
    101 CB        -8.3623  -23.2269  -51.3361 C.3       18 UNK        -0.1800 
    102 C         -6.5363  -23.5411  -53.1266 C.2       18 UNK         0.5000 
    103 O         -6.6737  -22.3659  -53.4650 O.2       18 UNK        -0.5000 
    104 N         -5.8497  -24.4366  -53.8510 N.am      19 UNK        -0.5000 
    105 CA        -5.2125  -24.1599  -55.1417 C.3       19 UNK         0.1400 
    106 CB        -4.7800  -25.4900  -55.7775 C.3       19 UNK        -0.1800 
    107 C         -4.0162  -23.1914  -55.0466 C.2       19 UNK         0.5000 
    108 O         -3.7111  -22.5101  -56.0255 O.2       19 UNK        -0.5000 
    109 N         -3.3764  -23.1396  -53.8710 N.am      20 UNK        -0.5000 
    110 CA        -2.2386  -22.2735  -53.5595 C.3       20 UNK         0.1400 
    111 CB        -1.0976  -23.1344  -52.9932 C.3       20 UNK        -0.1800 
    112 C         -2.6375  -21.1246  -52.6111 C.2       20 UNK         0.5000 
    113 O         -1.7923  -20.6211  -51.8706 O.2       20 UNK        -0.5000 
    114 N         -3.9121  -20.7094  -52.6499 N.am      21 UNK        -0.5000 
    115 CA        -4.4282  -19.5264  -51.9595 C.3       21 UNK         0.1400 
    116 CB        -5.9525  -19.6628  -51.7975 C.3       21 UNK        -0.1800 
    117 C         -4.0333  -18.2454  -52.7224 C.2       21 UNK         0.5000 
    118 O         -4.8647  -17.6472  -53.4081 O.2       21 UNK        -0.5000 
    119 N         -2.7482  -17.8909  -52.6294 N.am      22 UNK        -0.5000 
    120 CA        -2.1091  -16.7282  -53.2644 C.3       22 UNK         0.1400 
    121 C         -2.7702  -15.3654  -52.9081 C.2       22 UNK         0.5000 
    122 N         -2.7998  -14.4236  -53.8415 N.am      22 UNK        -0.7600 
    123 O         -3.2153  -15.1372  -51.7860 O.2       22 UNK        -0.5000 
    124 C124       -0.5955  -16.6834  -52.9386 C.3       23 UNK        -0.0398 
    125 S125        0.2760  -18.2026  -53.4508 S.3       23 UNK        -0.2404 
    126 C126        1.9738  -17.8397  -52.9070 C.3       23 UNK        -0.0205 
    127 H127       -1.9023  -10.4458  -48.1533 H         1 UNK         0.0600 
    128 H128       -1.1611   -8.8865  -47.7776 H         1 UNK         0.0600 
    129 H129       -0.6404   -9.7926  -49.2017 H         1 UNK         0.0600 
    130 H130        1.3125  -10.8002  -48.8985 H         1 UNK         0.3000 
    131 H131        3.0713  -11.8440  -48.0705 H         1 UNK         0.0600 
    132 H132        1.1062  -13.1196  -46.1105 H         1 UNK         0.0800 
    133 H133        2.7146  -13.7006  -46.4018 H         1 UNK         0.0800 
    134 H134        3.3260  -14.3973  -49.4511 H         1 UNK         0.0800 
    135 H135        3.4374  -15.2077  -47.9106 H         1 UNK         0.0800 
    136 H136        2.4185  -15.5978  -51.4127 H         1 UNK         0.1150 
    137 H137        1.7934  -19.8146  -51.0682 H         1 UNK         0.1150 
    138 H138        2.4805  -17.4456  -47.5514 H         1 UNK         0.1150 
    139 H139        2.8841  -19.9513  -47.5763 H         1 UNK         0.0800 
    140 H140        1.1450  -19.8869  -47.6407 H         1 UNK         0.0800 
    141 H141        0.2651  -22.2807  -50.4942 H         1 UNK         0.0800 
    142 H142       -0.2087  -20.8721  -49.5821 H         1 UNK         0.0800 
    143 H143        0.2101  -23.6314  -48.3266 H         1 UNK         0.0600 
    144 H144       -0.6329  -21.1040  -47.1722 H         1 UNK         0.3000 
    145 H145       -1.6174  -22.5101  -44.0501 H         1 UNK         0.0600 
    146 H146        0.0646  -20.8430  -43.2762 H         1 UNK         0.0600 
    147 H147        0.8587  -22.2747  -43.9148 H         1 UNK         0.0600 
    148 H148        0.7959  -20.8053  -44.8798 H         1 UNK         0.0600 
    149 H149       -1.4817  -19.8323  -45.0889 H         1 UNK         0.3000 
    150 H150       -4.7130  -19.7461  -46.5655 H         1 UNK         0.0600 
    151 H151       -5.2802  -19.5498  -44.1354 H         1 UNK         0.0600 
    152 H152       -5.1663  -17.9723  -44.8982 H         1 UNK         0.0600 
    153 H153       -3.8525  -18.5544  -43.8748 H         1 UNK         0.0600 
    154 H154       -2.9367  -17.6416  -46.0047 H         1 UNK         0.3000 
    155 H155       -0.4718  -18.0689  -48.4109 H         1 UNK         0.0600 
    156 H156       -2.8804  -16.2187  -48.7987 H         1 UNK         0.0600 
    157 H157       -2.2771  -17.3736  -49.9783 H         1 UNK         0.0600 
    158 H158       -1.2778  -16.0096  -49.5072 H         1 UNK         0.0600 
    159 H159       -1.3075  -15.7643  -46.9608 H         1 UNK         0.3000 
    160 H160       -0.1326  -15.0534  -45.2241 H         1 UNK         0.0600 
    161 H161       -1.9901  -16.1432  -43.9363 H         1 UNK         0.0600 
    162 H162       -0.7938  -15.4667  -42.8427 H         1 UNK         0.0600 
    163 H163       -0.8341  -17.2043  -43.1379 H         1 UNK         0.0600 
    164 H164        1.8025  -17.0853  -44.4780 H         1 UNK         0.3000 
    165 H165        3.6658  -16.2535  -42.8365 H         1 UNK         0.0600 
    166 H166        5.3795  -16.2278  -44.6472 H         1 UNK         0.0600 
    167 H167        3.8680  -16.7767  -45.3363 H         1 UNK         0.0600 
    168 H168        4.4075  -15.1232  -45.6080 H         1 UNK         0.0600 
    169 H169        3.6482  -13.4346  -43.1403 H         1 UNK         0.3000 
    170 H170        6.5354  -12.8889  -41.1419 H         1 UNK         0.0600 
    171 H171        5.9047  -11.8441  -43.9483 H         1 UNK         0.0600 
    172 H172        6.8438  -10.9823  -42.7282 H         1 UNK         0.0600 
    173 H173        7.4415  -12.4922  -43.3994 H         1 UNK         0.0600 
    174 H174        4.3629  -11.2169  -42.0405 H         1 UNK         0.3000 
    175 H175        2.2477  -11.8196  -39.2728 H         1 UNK         0.0600 
    176 H176        4.2724   -9.5293  -39.4762 H         1 UNK         0.0600 
    177 H177        2.7551   -9.4918  -38.5790 H         1 UNK         0.0600 
    178 H178        4.0430  -10.5774  -38.0807 H         1 UNK         0.0600 
    179 H179        2.7154   -9.7615  -41.3691 H         1 UNK         0.3000 
    180 H180       -0.2505  -10.7242  -43.1040 H         1 UNK         0.0600 
    181 H181        0.5496   -8.2260  -41.5231 H         1 UNK         0.0600 
    182 H182       -0.8965   -9.1892  -41.2600 H         1 UNK         0.0600 
    183 H183       -0.6923   -8.3170  -42.7710 H         1 UNK         0.0600 
    184 H184        1.1383  -10.0796  -44.6205 H         1 UNK         0.3000 
    185 H185        2.9334   -7.7451  -45.3521 H         1 UNK         0.0600 
    186 H186        5.1050   -7.8835  -44.2224 H         1 UNK         0.0600 
    187 H187        5.1990   -9.6155  -44.4915 H         1 UNK         0.0600 
    188 H188        5.2760   -8.5026  -45.8556 H         1 UNK         0.0600 
    189 H189        2.3251   -9.2387  -46.8546 H         1 UNK         0.3000 
    190 H190       -2.7495  -21.6217  -48.4140 H         1 UNK         0.3000 
    191 H191       -4.2480  -23.1999  -50.1936 H         1 UNK         0.0600 
    192 H192       -5.3327  -21.6835  -47.7623 H         1 UNK         0.0600 
    193 H193       -6.1965  -22.0765  -49.2364 H         1 UNK         0.0600 
    194 H194       -4.8798  -20.9091  -49.2737 H         1 UNK         0.0600 
    195 H195       -3.9176  -23.4750  -46.6227 H         1 UNK         0.3000 
    196 H196       -5.5637  -25.7605  -46.2764 H         1 UNK         0.0600 
    197 H197       -3.2427  -24.7015  -44.5777 H         1 UNK         0.0600 
    198 H198       -4.4211  -25.8989  -44.0533 H         1 UNK         0.0600 
    199 H199       -4.9405  -24.2598  -44.4146 H         1 UNK         0.0600 
    200 H200       -2.0320  -25.4698  -46.8842 H         1 UNK         0.3000 
    201 H201       -1.4245  -28.2417  -46.7114 H         1 UNK         0.0600 
    202 H202        0.2950  -26.4486  -46.5872 H         1 UNK         0.0600 
    203 H203        0.0028  -26.0267  -48.2740 H         1 UNK         0.0600 
    204 H204        0.6797  -27.5952  -47.8615 H         1 UNK         0.0600 
    205 H205       -2.4056  -26.2040  -49.4923 H         1 UNK         0.3000 
    206 H206       -2.3141  -28.2796  -51.4706 H         1 UNK         0.0600 
    207 H207       -2.2557  -25.8755  -52.0517 H         1 UNK         0.0600 
    208 H208       -3.6430  -26.6351  -52.8134 H         1 UNK         0.0600 
    209 H209       -3.8680  -25.6356  -51.3804 H         1 UNK         0.0600 
    210 H210       -4.6628  -27.4098  -49.0675 H         1 UNK         0.3000 
    211 H211       -6.4818  -28.2607  -48.2304 H         1 UNK         0.0600 
    212 H212       -6.1483  -30.6900  -50.0670 H         1 UNK         0.0600 
    213 H213       -7.1915  -30.5864  -48.6574 H         1 UNK         0.0600 
    214 H214       -5.4473  -30.5073  -48.4591 H         1 UNK         0.0600 
    215 H215       -6.4886  -28.5274  -51.7580 H         1 UNK         0.3000 
    216 H216       -9.3491  -27.9679  -52.0653 H         1 UNK         0.0600 
    217 H217       -8.7677  -28.0552  -54.4883 H         1 UNK         0.0600 
    218 H218       -8.1038  -29.4462  -53.6488 H         1 UNK         0.0600 
    219 H219       -7.0522  -28.1040  -54.0976 H         1 UNK         0.0600 
    220 H220       -6.8416  -26.0246  -51.1448 H         1 UNK         0.3000 
    221 H221       -6.3547  -23.8837  -51.0502 H         1 UNK         0.0600 
    222 H222       -9.1704  -23.2632  -52.0668 H         1 UNK         0.0600 
    223 H223       -8.7489  -23.5991  -50.3874 H         1 UNK         0.0600 
    224 H224       -8.1059  -22.1773  -51.1900 H         1 UNK         0.0600 
    225 H225       -5.8003  -25.3862  -53.5153 H         1 UNK         0.3000 
    226 H226       -5.9580  -23.6971  -55.7919 H         1 UNK         0.0600 
    227 H227       -5.6290  -26.1621  -55.9048 H         1 UNK         0.0600 
    228 H228       -4.3459  -25.3269  -56.7648 H         1 UNK         0.0600 
    229 H229       -4.0317  -26.0030  -55.1725 H         1 UNK         0.0600 
    230 H230       -3.7123  -23.7244  -53.1212 H         1 UNK         0.3000 
    231 H231       -1.8661  -21.7991  -54.4694 H         1 UNK         0.0600 
    232 H232       -0.1957  -22.5401  -52.8433 H         1 UNK         0.0600 
    233 H233       -0.8385  -23.9437  -53.6760 H         1 UNK         0.0600 
    234 H234       -1.3676  -23.5783  -52.0367 H         1 UNK         0.0600 
    235 H235       -4.5509  -21.1643  -53.2882 H         1 UNK         0.3000 
    236 H236       -3.9878  -19.4718  -50.9614 H         1 UNK         0.0600 
    237 H237       -6.3616  -18.8203  -51.2388 H         1 UNK         0.0600 
    238 H238       -6.4611  -19.6969  -52.7617 H         1 UNK         0.0600 
    239 H239       -6.2149  -20.5708  -51.2574 H         1 UNK         0.0600 
    240 H240       -2.1277  -18.5063  -52.1162 H         1 UNK         0.3000 
    241 H241       -2.2182  -16.8720  -54.3410 H         1 UNK         0.0600 
    242 H242       -2.4359  -14.5818  -54.7687 H         1 UNK         0.3800 
    243 H243       -3.2124  -13.5306  -53.6198 H         1 UNK         0.3800 
    244 H244       -0.1198  -15.8373  -53.4378 H         1 UNK         0.0800 
    245 H245       -0.4458  -16.5356  -51.8679 H         1 UNK         0.0800 
    246 H246        2.6310  -18.6381  -53.2542 H         1 UNK         0.0800 
    247 H247        2.3202  -16.9273  -53.3949 H         1 UNK         0.0800 
@<TRIPOS>BOND
     1    1    2 1    
     2    1  127 1    
     3    1  128 1    
     4    1  129 1    
     5    2    3 2    
     6    2    4 am   BACKBONE|DICT|INTERRES
     7    4    5 1    
     8    4  130 1    
     9    5    6 1    
    10    5   65 1    
    11    5  131 1    
    12    6    7 1    
    13    6  132 1    
    14    6  133 1    
    15    7    8 1    
    16    8    9 1    
    17    8  134 1    
    18    8  135 1    
    19    9   10 ar   
    20    9   14 ar   
    21   10   11 ar   
    22   10  136 1    
    23   11   12 ar   
    24   11  126 1    
    25   12   13 ar   
    26   12  137 1    
    27   13   14 ar   
    28   13   15 1    
    29   14  138 1    
    30   15   16 1    
    31   15  139 1    
    32   15  140 1    
    33   16   17 1    
    34   17   18 1    
    35   17  141 1    
    36   17  142 1    
    37   18   19 1    
    38   18   67 1    
    39   18  143 1    
    40   19   20 am   BACKBONE|DICT|INTERRES
    41   19  144 1    
    42   20   21 2    
    43   20   22 1    
    44   22   23 1    
    45   22   24 1    
    46   22  145 1    
    47   23  146 1    
    48   23  147 1    
    49   23  148 1    
    50   24   25 am   BACKBONE|DICT|INTERRES
    51   24  149 1    
    52   25   26 2    
    53   25   27 1    
    54   27   28 1    
    55   27   29 1    
    56   27  150 1    
    57   28  151 1    
    58   28  152 1    
    59   28  153 1    
    60   29   30 am   BACKBONE|DICT|INTERRES
    61   29  154 1    
    62   30   31 2    
    63   30   32 1    
    64   32   33 1    
    65   32   34 1    
    66   32  155 1    
    67   33  156 1    
    68   33  157 1    
    69   33  158 1    
    70   34   35 am   BACKBONE|DICT|INTERRES
    71   34  159 1    
    72   35   36 2    
    73   35   37 1    
    74   37   38 1    
    75   37   39 1    
    76   37  160 1    
    77   38  161 1    
    78   38  162 1    
    79   38  163 1    
    80   39   40 am   BACKBONE|DICT|INTERRES
    81   39  164 1    
    82   40   41 2    
    83   40   42 1    
    84   42   43 1    
    85   42   44 1    
    86   42  165 1    
    87   43  166 1    
    88   43  167 1    
    89   43  168 1    
    90   44   45 am   BACKBONE|DICT|INTERRES
    91   44  169 1    
    92   45   46 2    
    93   45   47 1    
    94   47   48 1    
    95   47   49 1    
    96   47  170 1    
    97   48  171 1    
    98   48  172 1    
    99   48  173 1    
   100   49   50 am   BACKBONE|DICT|INTERRES
   101   49  174 1    
   102   50   51 2    
   103   50   52 1    
   104   52   53 1    
   105   52   54 1    
   106   52  175 1    
   107   53  176 1    
   108   53  177 1    
   109   53  178 1    
   110   54   55 am   BACKBONE|DICT|INTERRES
   111   54  179 1    
   112   55   56 2    
   113   55   57 1    
   114   57   58 1    
   115   57   59 1    
   116   57  180 1    
   117   58  181 1    
   118   58  182 1    
   119   58  183 1    
   120   59   60 am   BACKBONE|DICT|INTERRES
   121   59  184 1    
   122   60   61 2    
   123   60   62 1    
   124   62   63 1    
   125   62   64 1    
   126   62  185 1    
   127   63  186 1    
   128   63  187 1    
   129   63  188 1    
   130   64   65 am   BACKBONE|DICT|INTERRES
   131   64  189 1    
   132   65   66 2    
   133   67   68 2    
   134   67   69 am   BACKBONE|DICT|INTERRES
   135   69   70 1    
   136   69  190 1    
   137   70   71 1    
   138   70   72 1    
   139   70  191 1    
   140   71  192 1    
   141   71  193 1    
   142   71  194 1    
   143   72   73 2    
   144   72   74 am   BACKBONE|DICT|INTERRES
   145   74   75 1    
   146   74  195 1    
   147   75   76 1    
   148   75   77 1    
   149   75  196 1    
   150   76  197 1    
   151   76  198 1    
   152   76  199 1    
   153   77   78 2    
   154   77   79 am   BACKBONE|DICT|INTERRES
   155   79   80 1    
   156   79  200 1    
   157   80   81 1    
   158   80   82 1    
   159   80  201 1    
   160   81  202 1    
   161   81  203 1    
   162   81  204 1    
   163   82   83 2    
   164   82   84 am   BACKBONE|DICT|INTERRES
   165   84   85 1    
   166   84  205 1    
   167   85   86 1    
   168   85   87 1    
   169   85  206 1    
   170   86  207 1    
   171   86  208 1    
   172   86  209 1    
   173   87   88 2    
   174   87   89 am   BACKBONE|DICT|INTERRES
   175   89   90 1    
   176   89  210 1    
   177   90   91 1    
   178   90   92 1    
   179   90  211 1    
   180   91  212 1    
   181   91  213 1    
   182   91  214 1    
   183   92   93 2    
   184   92   94 am   BACKBONE|DICT|INTERRES
   185   94   95 1    
   186   94  215 1    
   187   95   96 1    
   188   95   97 1    
   189   95  216 1    
   190   96  217 1    
   191   96  218 1    
   192   96  219 1    
   193   97   98 2    
   194   97   99 am   BACKBONE|DICT|INTERRES
   195   99  100 1    
   196   99  220 1    
   197  100  101 1    
   198  100  102 1    
   199  100  221 1    
   200  101  222 1    
   201  101  223 1    
   202  101  224 1    
   203  102  103 2    
   204  102  104 am   BACKBONE|DICT|INTERRES
   205  104  105 1    
   206  104  225 1    
   207  105  106 1    
   208  105  107 1    
   209  105  226 1    
   210  106  227 1    
   211  106  228 1    
   212  106  229 1    
   213  107  108 2    
   214  107  109 am   BACKBONE|DICT|INTERRES
   215  109  110 1    
   216  109  230 1    
   217  110  111 1    
   218  110  112 1    
   219  110  231 1    
   220  111  232 1    
   221  111  233 1    
   222  111  234 1    
   223  112  113 2    
   224  112  114 am   BACKBONE|DICT|INTERRES
   225  114  115 1    
   226  114  235 1    
   227  115  116 1    
   228  115  117 1    
   229  115  236 1    
   230  116  237 1    
   231  116  238 1    
   232  116  239 1    
   233  117  118 2    
   234  117  119 am   BACKBONE|DICT|INTERRES
   235  119  120 1    
   236  119  240 1    
   237  120  121 1    
   238  120  124 1    
   239  120  241 1    
   240  121  122 am   BACKBONE|DICT|INTERRES
   241  121  123 2    
   242  122  242 1    
   243  122  243 1    
   244  124  125 1    
   245  124  244 1    
   246  124  245 1    
   247  125  126 1    
   248  126  246 1    
   249  126  247 1    
@<TRIPOS>SUBSTRUCTURE
     1 UNK         1 GROUP             0       ****    0 ROOT    
