@<TRIPOS>MOLECULE
3R540
247   249    1
SMALL
USER_CHARGES


@<TRIPOS>ATOM
      1 CA          0.0152  -10.7145  -48.5179 C.3       0 UNK        -0.1800 
      2 C           0.2892  -12.1641  -48.1484 C.2       0 UNK         0.5000 
      3 O          -0.1230  -12.6082  -47.0799 O.2       0 UNK        -0.5000 
      4 N           0.9795  -12.9028  -49.0257 N.am      1 UNK        -0.5000 
      5 CA          1.3292  -14.3207  -48.8442 C.3       1 UNK         0.1400 
      6 C6          2.7011  -14.6374  -49.5039 C.3       23 UNK        -0.0398 
      7 S7          3.7562  -15.7288  -48.4870 S.3       23 UNK        -0.2404 
      8 C8          4.4473  -16.8862  -49.7126 C.3       23 UNK        -0.0205 
      9 C9          3.5478  -18.0914  -49.9482 C.ar      23 UNK        -0.0193 
     10 C10         2.4655  -17.9967  -50.8241 C.ar      23 UNK        -0.1150 
     11 C11         1.6376  -19.0949  -51.0582 C.ar      23 UNK        -0.0193 
     12 C12         1.9123  -20.3125  -50.4271 C.ar      23 UNK        -0.1150 
     13 C13         3.0082  -20.4314  -49.5638 C.ar      23 UNK        -0.0193 
     14 C14         3.8150  -19.3135  -49.3215 C.ar      23 UNK        -0.1150 
     15 C15         3.3554  -21.7773  -48.9357 C.3       23 UNK        -0.0205 
     16 S16         3.1276  -21.8032  -47.1276 S.3       23 UNK        -0.2404 
     17 C17         1.3115  -21.7703  -46.9886 C.3       23 UNK        -0.0398 
     18 CA          0.6887  -23.1017  -46.5113 C.3       11 UNK         0.1400 
     19 N           1.2552  -23.5838  -45.2477 N.am      11 UNK        -0.5000 
     20 C           1.0728  -24.8192  -44.7590 C.2       10 UNK         0.5000 
     21 O           0.4036  -25.6817  -45.3253 O.2       10 UNK        -0.5000 
     22 CA          1.7023  -25.1340  -43.3887 C.3       10 UNK         0.1400 
     23 CB          3.1630  -25.5765  -43.5586 C.3       10 UNK        -0.1800 
     24 N           1.6465  -24.0060  -42.4594 N.am      10 UNK        -0.5000 
     25 C           0.5204  -23.4353  -42.0081 C.2       9 UNK         0.5000 
     26 O          -0.6079  -23.8421  -42.2807 O.2       9 UNK        -0.5000 
     27 CA          0.6815  -22.1555  -41.1653 C.3       9 UNK         0.1400 
     28 CB          0.7346  -22.4991  -39.6696 C.3       9 UNK        -0.1800 
     29 N           1.8635  -21.3643  -41.5252 N.am      9 UNK        -0.5000 
     30 C           2.0897  -20.8412  -42.7377 C.2       8 UNK         0.5000 
     31 O           1.3245  -20.9830  -43.6956 O.2       8 UNK        -0.5000 
     32 CA          3.4303  -20.1076  -42.9226 C.3       8 UNK         0.1400 
     33 CB          4.5459  -21.1189  -43.2316 C.3       8 UNK        -0.1800 
     34 N           3.3686  -19.1353  -44.0110 N.am      8 UNK        -0.5000 
     35 C           2.6572  -18.0026  -43.9774 C.2       7 UNK         0.5000 
     36 O           2.0460  -17.6055  -42.9816 O.2       7 UNK        -0.5000 
     37 CA          2.6061  -17.2156  -45.2984 C.3       7 UNK         0.1400 
     38 CB          1.6450  -17.8962  -46.2794 C.3       7 UNK        -0.1800 
     39 N           2.1990  -15.8231  -45.1119 N.am      7 UNK        -0.5000 
     40 C           2.9805  -14.8781  -44.5731 C.2       6 UNK         0.5000 
     41 O           4.1415  -15.0818  -44.2125 O.2       6 UNK        -0.5000 
     42 CA          2.3942  -13.4607  -44.4176 C.3       6 UNK         0.1400 
     43 CB          2.9407  -12.5307  -45.5124 C.3       6 UNK        -0.1800 
     44 N           0.9310  -13.4110  -44.4303 N.am      6 UNK        -0.5000 
     45 C           0.1478  -13.8242  -43.4242 C.2       5 UNK         0.5000 
     46 O           0.5798  -14.3137  -42.3798 O.2       5 UNK        -0.5000 
     47 CA         -1.3722  -13.6042  -43.5780 C.3       5 UNK         0.1400 
     48 CB         -1.7045  -12.1335  -43.8894 C.3       5 UNK        -0.1800 
     49 N          -2.1202  -14.5124  -44.4652 N.am      5 UNK        -0.5000 
     50 C          -1.7157  -15.2976  -45.4771 C.2       4 UNK         0.5000 
     51 O          -0.5684  -15.3733  -45.9074 O.2       4 UNK        -0.5000 
     52 CA         -2.7917  -16.1897  -46.1215 C.3       4 UNK         0.1400 
     53 CB         -2.7791  -17.5653  -45.4311 C.3       4 UNK        -0.1800 
     54 N          -4.1579  -15.6614  -46.0373 N.am      4 UNK        -0.5000 
     55 C          -4.7667  -14.6070  -46.6127 C.2       3 UNK         0.5000 
     56 O          -5.9325  -14.3565  -46.3116 O.2       3 UNK        -0.5000 
     57 CA         -4.1001  -13.6684  -47.6492 C.3       3 UNK         0.1400 
     58 CB         -3.5549  -12.3989  -46.9858 C.3       3 UNK        -0.1800 
     59 N          -3.0599  -14.2566  -48.4859 N.am      3 UNK        -0.5000 
     60 C          -3.2845  -14.9096  -49.6349 C.2       2 UNK         0.5000 
     61 O          -4.4083  -15.0707  -50.1109 O.2       2 UNK        -0.5000 
     62 CA         -2.0447  -15.4278  -50.3941 C.3       2 UNK         0.1400 
     63 CB         -2.1925  -15.2915  -51.9190 C.3       2 UNK        -0.1800 
     64 N          -0.8362  -14.7123  -49.9730 N.am      2 UNK        -0.5000 
     65 C           0.1979  -15.2639  -49.3254 C.2       1 UNK         0.5000 
     66 O           0.2656  -16.4670  -49.0967 O.2       1 UNK        -0.5000 
     67 C          -0.8386  -22.9347  -46.4127 C.2       11 UNK         0.5000 
     68 O          -1.5409  -23.1797  -47.3946 O.2       11 UNK        -0.5000 
     69 N          -1.3220  -22.5105  -45.2373 N.am      12 UNK        -0.5000 
     70 CA         -2.7444  -22.3867  -44.9305 C.3       12 UNK         0.1400 
     71 CB         -2.9313  -21.4956  -43.6941 C.3       12 UNK        -0.1800 
     72 C          -3.4010  -23.7648  -44.7378 C.2       12 UNK         0.5000 
     73 O          -4.4806  -23.9967  -45.2795 O.2       12 UNK        -0.5000 
     74 N          -2.7188  -24.6701  -44.0200 N.am      13 UNK        -0.5000 
     75 CA         -3.1438  -26.0534  -43.7831 C.3       13 UNK         0.1400 
     76 CB         -2.1991  -26.7136  -42.7681 C.3       13 UNK        -0.1800 
     77 C          -3.2251  -26.8926  -45.0722 C.2       13 UNK         0.5000 
     78 O          -4.1520  -27.6892  -45.2218 O.2       13 UNK        -0.5000 
     79 N          -2.2818  -26.6671  -45.9973 N.am      14 UNK        -0.5000 
     80 CA         -2.2691  -27.2473  -47.3432 C.3       14 UNK         0.1400 
     81 CB         -0.8592  -27.0871  -47.9351 C.3       14 UNK        -0.1800 
     82 C          -3.3137  -26.6242  -48.2932 C.2       14 UNK         0.5000 
     83 O          -3.5110  -27.1469  -49.3905 O.2       14 UNK        -0.5000 
     84 N          -3.9327  -25.5097  -47.8739 N.am      15 UNK        -0.5000 
     85 CA         -4.8829  -24.6701  -48.6094 C.3       15 UNK         0.1400 
     86 CB         -6.1681  -25.4473  -48.9593 C.3       15 UNK        -0.1800 
     87 C          -4.2619  -23.9559  -49.8286 C.2       15 UNK         0.5000 
     88 O          -4.9923  -23.5004  -50.7090 O.2       15 UNK        -0.5000 
     89 N          -2.9278  -23.8371  -49.8447 N.am      16 UNK        -0.5000 
     90 CA         -2.1595  -23.1622  -50.8844 C.3       16 UNK         0.1400 
     91 CB         -0.6913  -23.6142  -50.8198 C.3       16 UNK        -0.1800 
     92 C          -2.2770  -21.6401  -50.7419 C.2       16 UNK         0.5000 
     93 O          -2.6553  -20.9692  -51.7006 O.2       16 UNK        -0.5000 
     94 N          -1.9911  -21.1321  -49.5354 N.am      17 UNK        -0.5000 
     95 CA         -2.0951  -19.7083  -49.2012 C.3       17 UNK         0.1400 
     96 CB         -1.1413  -19.3782  -48.0462 C.3       17 UNK        -0.1800 
     97 C          -3.5329  -19.2735  -48.8717 C.2       17 UNK         0.5000 
     98 O          -3.8003  -18.0753  -48.8219 O.2       17 UNK        -0.5000 
     99 N          -4.4358  -20.2412  -48.6583 N.am      18 UNK        -0.5000 
    100 CA        -5.8685  -19.9984  -48.4819 C.3       18 UNK         0.1400 
    101 CB        -6.5331  -21.2619  -47.9160 C.3       18 UNK        -0.1800 
    102 C         -6.5547  -19.5666  -49.7936 C.2       18 UNK         0.5000 
    103 O         -7.5550  -18.8501  -49.7453 O.2       18 UNK        -0.5000 
    104 N         -6.0056  -20.0006  -50.9367 N.am      19 UNK        -0.5000 
    105 CA        -6.4152  -19.5669  -52.2664 C.3       19 UNK         0.1400 
    106 CB        -6.0115  -20.6378  -53.2922 C.3       19 UNK        -0.1800 
    107 C         -5.7451  -18.2239  -52.5927 C.2       19 UNK         0.5000 
    108 O         -4.5185  -18.1281  -52.5246 O.2       19 UNK        -0.5000 
    109 N         -6.5492  -17.2269  -52.9846 N.am      20 UNK        -0.5000 
    110 CA        -6.1011  -15.8682  -53.3164 C.3       20 UNK         0.1400 
    111 CB        -7.3322  -14.9747  -53.5309 C.3       20 UNK        -0.1800 
    112 C         -5.1615  -15.7938  -54.5374 C.2       20 UNK         0.5000 
    113 O         -4.3748  -14.8532  -54.6451 O.2       20 UNK        -0.5000 
    114 N         -5.2502  -16.7935  -55.4234 N.am      21 UNK        -0.5000 
    115 CA        -4.3785  -16.9667  -56.5844 C.3       21 UNK         0.1400 
    116 CB        -5.1284  -17.8096  -57.6291 C.3       21 UNK        -0.1800 
    117 C         -3.0210  -17.6181  -56.2421 C.2       21 UNK         0.5000 
    118 O         -2.1466  -17.6354  -57.1085 O.2       21 UNK        -0.5000 
    119 N         -2.8732  -18.1444  -55.0155 N.am      22 UNK        -0.5000 
    120 CA        -1.7675  -18.9827  -54.5292 C.3       22 UNK         0.1400 
    121 C         -1.7946  -20.3922  -55.1849 C.2       22 UNK         0.5000 
    122 N         -2.2192  -21.4084  -54.4483 N.am      22 UNK        -0.7600 
    123 O         -1.4240  -20.5781  -56.3412 O.2       22 UNK        -0.5000 
    124 C124       -0.3822  -18.2845  -54.6173 C.3       23 UNK        -0.0398 
    125 S125        0.9615  -19.1488  -53.7311 S.3       23 UNK        -0.2404 
    126 C126        0.4540  -18.9449  -51.9983 C.3       23 UNK        -0.0205 
    127 H127        0.4455  -10.0512  -47.7677 H         1 UNK         0.0600 
    128 H128       -1.0591  -10.5351  -48.5564 H         1 UNK         0.0600 
    129 H129        0.4403  -10.4545  -49.4875 H         1 UNK         0.0600 
    130 H130        1.2983  -12.4775  -49.8851 H         1 UNK         0.3000 
    131 H131        1.4216  -14.5027  -47.7713 H         1 UNK         0.0600 
    132 H132        2.5824  -15.0312  -50.5128 H         1 UNK         0.0800 
    133 H133        3.2783  -13.7202  -49.6292 H         1 UNK         0.0800 
    134 H134        4.6367  -16.3668  -50.6531 H         1 UNK         0.0800 
    135 H135        5.4223  -17.2203  -49.3553 H         1 UNK         0.0800 
    136 H136        2.2564  -17.0654  -51.3275 H         1 UNK         0.1150 
    137 H137        1.2822  -21.1684  -50.6216 H         1 UNK         0.1150 
    138 H138        4.6613  -19.4022  -48.6550 H         1 UNK         0.1150 
    139 H139        2.7683  -22.5804  -49.3839 H         1 UNK         0.0800 
    140 H140        4.3986  -22.0069  -49.1567 H         1 UNK         0.0800 
    141 H141        0.8952  -21.5028  -47.9591 H         1 UNK         0.0800 
    142 H142        1.0450  -20.9608  -46.3087 H         1 UNK         0.0800 
    143 H143        0.8856  -23.8575  -47.2747 H         1 UNK         0.0600 
    144 H144        1.7611  -22.9005  -44.6998 H         1 UNK         0.3000 
    145 H145        1.1429  -25.9605  -42.9464 H         1 UNK         0.0600 
    146 H146        3.5973  -25.8791  -42.6056 H         1 UNK         0.0600 
    147 H147        3.2357  -26.4306  -44.2333 H         1 UNK         0.0600 
    148 H148        3.7809  -24.7780  -43.9718 H         1 UNK         0.0600 
    149 H149        2.5286  -23.6029  -42.1816 H         1 UNK         0.3000 
    150 H150       -0.1992  -21.5350  -41.3439 H         1 UNK         0.0600 
    151 H151        1.6138  -23.0961  -39.4240 H         1 UNK         0.0600 
    152 H152       -0.1448  -23.0705  -39.3691 H         1 UNK         0.0600 
    153 H153        0.7583  -21.5971  -39.0578 H         1 UNK         0.0600 
    154 H154        2.5437  -21.2171  -40.7931 H         1 UNK         0.3000 
    155 H155        3.6744  -19.5793  -41.9986 H         1 UNK         0.0600 
    156 H156        4.3415  -21.6782  -44.1458 H         1 UNK         0.0600 
    157 H157        4.6579  -21.8421  -42.4230 H         1 UNK         0.0600 
    158 H158        5.5078  -20.6202  -43.3526 H         1 UNK         0.0600 
    159 H159        3.7977  -19.4154  -44.8805 H         1 UNK         0.3000 
    160 H160        3.6049  -17.2214  -45.7400 H         1 UNK         0.0600 
    161 H161        0.6347  -17.9689  -45.8769 H         1 UNK         0.0600 
    162 H162        1.9848  -18.9008  -46.5244 H         1 UNK         0.0600 
    163 H163        1.5984  -17.3491  -47.2161 H         1 UNK         0.0600 
    164 H164        1.2402  -15.5895  -45.3590 H         1 UNK         0.3000 
    165 H165        2.7324  -13.0746  -43.4538 H         1 UNK         0.0600 
    166 H166        2.5330  -11.5239  -45.4202 H         1 UNK         0.0600 
    167 H167        4.0263  -12.4503  -45.4472 H         1 UNK         0.0600 
    168 H168        2.7038  -12.9010  -46.5090 H         1 UNK         0.0600 
    169 H169        0.4905  -13.0981  -45.2926 H         1 UNK         0.3000 
    170 H170       -1.7905  -13.8004  -42.5893 H         1 UNK         0.0600 
    171 H171       -1.2882  -11.4751  -43.1261 H         1 UNK         0.0600 
    172 H172       -1.2935  -11.8104  -44.8445 H         1 UNK         0.0600 
    173 H173       -2.7809  -11.9638  -43.9090 H         1 UNK         0.0600 
    174 H174       -3.0987  -14.5924  -44.2291 H         1 UNK         0.3000 
    175 H175       -2.5233  -16.3538  -47.1636 H         1 UNK         0.0600 
    176 H176       -1.7806  -18.0034  -45.4361 H         1 UNK         0.0600 
    177 H177       -3.0941  -17.4977  -44.3891 H         1 UNK         0.0600 
    178 H178       -3.4427  -18.2678  -45.9354 H         1 UNK         0.0600 
    179 H179       -4.7412  -16.1913  -45.4081 H         1 UNK         0.3000 
    180 H180       -4.9079  -13.3371  -48.3057 H         1 UNK         0.0600 
    181 H181       -2.6484  -12.6095  -46.4285 H         1 UNK         0.0600 
    182 H182       -4.2783  -11.9632  -46.2955 H         1 UNK         0.0600 
    183 H183       -3.3156  -11.6388  -47.7295 H         1 UNK         0.0600 
    184 H184       -2.1082  -14.1645  -48.1593 H         1 UNK         0.3000 
    185 H185       -1.9661  -16.4916  -50.1631 H         1 UNK         0.0600 
    186 H186       -3.0233  -15.8944  -52.2842 H         1 UNK         0.0600 
    187 H187       -2.3769  -14.2590  -52.2176 H         1 UNK         0.0600 
    188 H188       -1.2967  -15.6369  -52.4345 H         1 UNK         0.0600 
    189 H189       -0.8297  -13.7139  -50.1249 H         1 UNK         0.3000 
    190 H190       -0.6712  -22.3174  -44.4878 H         1 UNK         0.3000 
    191 H191       -3.2370  -21.8962  -45.7734 H         1 UNK         0.0600 
    192 H192       -2.5028  -20.5060  -43.8547 H         1 UNK         0.0600 
    193 H193       -3.9899  -21.3593  -43.4698 H         1 UNK         0.0600 
    194 H194       -2.4611  -21.9241  -42.8088 H         1 UNK         0.0600 
    195 H195       -1.8610  -24.3791  -43.5573 H         1 UNK         0.3000 
    196 H196       -4.1439  -26.0215  -43.3459 H         1 UNK         0.0600 
    197 H197       -2.5123  -27.7351  -42.5489 H         1 UNK         0.0600 
    198 H198       -2.1888  -26.1671  -41.8249 H         1 UNK         0.0600 
    199 H199       -1.1759  -26.7565  -43.1417 H         1 UNK         0.0600 
    200 H200       -1.5018  -26.0607  -45.7623 H         1 UNK         0.3000 
    201 H201       -2.4905  -28.3136  -47.2650 H         1 UNK         0.0600 
    202 H202       -0.7953  -27.5312  -48.9293 H         1 UNK         0.0600 
    203 H203       -0.1124  -27.5806  -47.3130 H         1 UNK         0.0600 
    204 H204       -0.5793  -26.0367  -48.0257 H         1 UNK         0.0600 
    205 H205       -3.7129  -25.1767  -46.9435 H         1 UNK         0.3000 
    206 H206       -5.1624  -23.8794  -47.9141 H         1 UNK         0.0600 
    207 H207       -6.5833  -25.9378  -48.0788 H         1 UNK         0.0600 
    208 H208       -6.9360  -24.7776  -49.3480 H         1 UNK         0.0600 
    209 H209       -5.9888  -26.2102  -49.7170 H         1 UNK         0.0600 
    210 H210       -2.4126  -24.1459  -49.0291 H         1 UNK         0.3000 
    211 H211       -2.5614  -23.4469  -51.8592 H         1 UNK         0.0600 
    212 H212       -0.2280  -23.3728  -49.8626 H         1 UNK         0.0600 
    213 H213       -0.1019  -23.1329  -51.6014 H         1 UNK         0.0600 
    214 H214       -0.6069  -24.6911  -50.9668 H         1 UNK         0.0600 
    215 H215       -1.7429  -21.7709  -48.7872 H         1 UNK         0.3000 
    216 H216       -1.7854  -19.1136  -50.0621 H         1 UNK         0.0600 
    217 H217       -1.2287  -18.3304  -47.7608 H         1 UNK         0.0600 
    218 H218       -0.1043  -19.5213  -48.3451 H         1 UNK         0.0600 
    219 H219       -1.3407  -19.9822  -47.1611 H         1 UNK         0.0600 
    220 H220       -4.1319  -21.2005  -48.7134 H         1 UNK         0.3000 
    221 H221       -5.9927  -19.1921  -47.7556 H         1 UNK         0.0600 
    222 H222       -6.5282  -22.0758  -48.6410 H         1 UNK         0.0600 
    223 H223       -6.0332  -21.6060  -47.0101 H         1 UNK         0.0600 
    224 H224       -7.5746  -21.0666  -47.6578 H         1 UNK         0.0600 
    225 H225       -5.1553  -20.5441  -50.8928 H         1 UNK         0.3000 
    226 H226       -7.5012  -19.4550  -52.2954 H         1 UNK         0.0600 
    227 H227       -6.3214  -20.3531  -54.2982 H         1 UNK         0.0600 
    228 H228       -4.9320  -20.7917  -53.3128 H         1 UNK         0.0600 
    229 H229       -6.4786  -21.5963  -53.0650 H         1 UNK         0.0600 
    230 H230       -7.5458  -17.3873  -53.0178 H         1 UNK         0.3000 
    231 H231       -5.5466  -15.4831  -52.4596 H         1 UNK         0.0600 
    232 H232       -7.9451  -15.3264  -54.3617 H         1 UNK         0.0600 
    233 H233       -7.0363  -13.9483  -53.7523 H         1 UNK         0.0600 
    234 H234       -7.9580  -14.9444  -52.6387 H         1 UNK         0.0600 
    235 H235       -5.9357  -17.5158  -55.2597 H         1 UNK         0.3000 
    236 H236       -4.1712  -15.9880  -57.0223 H         1 UNK         0.0600 
    237 H237       -6.0660  -17.3355  -57.9200 H         1 UNK         0.0600 
    238 H238       -4.5336  -17.9311  -58.5353 H         1 UNK         0.0600 
    239 H239       -5.3578  -18.8070  -57.2516 H         1 UNK         0.0600 
    240 H240       -3.6388  -18.0509  -54.3571 H         1 UNK         0.3000 
    241 H241       -1.9866  -19.1086  -53.4690 H         1 UNK         0.0600 
    242 H242       -2.4916  -21.2625  -53.4780 H         1 UNK         0.3800 
    243 H243       -2.2460  -22.3324  -54.8480 H         1 UNK         0.3800 
    244 H244       -0.0713  -18.1774  -55.6570 H         1 UNK         0.0800 
    245 H245       -0.4522  -17.2708  -54.2214 H         1 UNK         0.0800 
    246 H246       -0.0083  -17.9675  -51.8496 H         1 UNK         0.0800 
    247 H247       -0.3050  -19.6896  -51.7674 H         1 UNK         0.0800 
@<TRIPOS>BOND
     1    1    2 1    
     2    1  127 1    
     3    1  128 1    
     4    1  129 1    
     5    2    3 2    
     6    2    4 am   BACKBONE|DICT|INTERRES
     7    4    5 1    
     8    4  130 1    
     9    5    6 1    
    10    5   65 1    
    11    5  131 1    
    12    6    7 1    
    13    6  132 1    
    14    6  133 1    
    15    7    8 1    
    16    8    9 1    
    17    8  134 1    
    18    8  135 1    
    19    9   10 ar   
    20    9   14 ar   
    21   10   11 ar   
    22   10  136 1    
    23   11   12 ar   
    24   11  126 1    
    25   12   13 ar   
    26   12  137 1    
    27   13   14 ar   
    28   13   15 1    
    29   14  138 1    
    30   15   16 1    
    31   15  139 1    
    32   15  140 1    
    33   16   17 1    
    34   17   18 1    
    35   17  141 1    
    36   17  142 1    
    37   18   19 1    
    38   18   67 1    
    39   18  143 1    
    40   19   20 am   BACKBONE|DICT|INTERRES
    41   19  144 1    
    42   20   21 2    
    43   20   22 1    
    44   22   23 1    
    45   22   24 1    
    46   22  145 1    
    47   23  146 1    
    48   23  147 1    
    49   23  148 1    
    50   24   25 am   BACKBONE|DICT|INTERRES
    51   24  149 1    
    52   25   26 2    
    53   25   27 1    
    54   27   28 1    
    55   27   29 1    
    56   27  150 1    
    57   28  151 1    
    58   28  152 1    
    59   28  153 1    
    60   29   30 am   BACKBONE|DICT|INTERRES
    61   29  154 1    
    62   30   31 2    
    63   30   32 1    
    64   32   33 1    
    65   32   34 1    
    66   32  155 1    
    67   33  156 1    
    68   33  157 1    
    69   33  158 1    
    70   34   35 am   BACKBONE|DICT|INTERRES
    71   34  159 1    
    72   35   36 2    
    73   35   37 1    
    74   37   38 1    
    75   37   39 1    
    76   37  160 1    
    77   38  161 1    
    78   38  162 1    
    79   38  163 1    
    80   39   40 am   BACKBONE|DICT|INTERRES
    81   39  164 1    
    82   40   41 2    
    83   40   42 1    
    84   42   43 1    
    85   42   44 1    
    86   42  165 1    
    87   43  166 1    
    88   43  167 1    
    89   43  168 1    
    90   44   45 am   BACKBONE|DICT|INTERRES
    91   44  169 1    
    92   45   46 2    
    93   45   47 1    
    94   47   48 1    
    95   47   49 1    
    96   47  170 1    
    97   48  171 1    
    98   48  172 1    
    99   48  173 1    
   100   49   50 am   BACKBONE|DICT|INTERRES
   101   49  174 1    
   102   50   51 2    
   103   50   52 1    
   104   52   53 1    
   105   52   54 1    
   106   52  175 1    
   107   53  176 1    
   108   53  177 1    
   109   53  178 1    
   110   54   55 am   BACKBONE|DICT|INTERRES
   111   54  179 1    
   112   55   56 2    
   113   55   57 1    
   114   57   58 1    
   115   57   59 1    
   116   57  180 1    
   117   58  181 1    
   118   58  182 1    
   119   58  183 1    
   120   59   60 am   BACKBONE|DICT|INTERRES
   121   59  184 1    
   122   60   61 2    
   123   60   62 1    
   124   62   63 1    
   125   62   64 1    
   126   62  185 1    
   127   63  186 1    
   128   63  187 1    
   129   63  188 1    
   130   64   65 am   BACKBONE|DICT|INTERRES
   131   64  189 1    
   132   65   66 2    
   133   67   68 2    
   134   67   69 am   BACKBONE|DICT|INTERRES
   135   69   70 1    
   136   69  190 1    
   137   70   71 1    
   138   70   72 1    
   139   70  191 1    
   140   71  192 1    
   141   71  193 1    
   142   71  194 1    
   143   72   73 2    
   144   72   74 am   BACKBONE|DICT|INTERRES
   145   74   75 1    
   146   74  195 1    
   147   75   76 1    
   148   75   77 1    
   149   75  196 1    
   150   76  197 1    
   151   76  198 1    
   152   76  199 1    
   153   77   78 2    
   154   77   79 am   BACKBONE|DICT|INTERRES
   155   79   80 1    
   156   79  200 1    
   157   80   81 1    
   158   80   82 1    
   159   80  201 1    
   160   81  202 1    
   161   81  203 1    
   162   81  204 1    
   163   82   83 2    
   164   82   84 am   BACKBONE|DICT|INTERRES
   165   84   85 1    
   166   84  205 1    
   167   85   86 1    
   168   85   87 1    
   169   85  206 1    
   170   86  207 1    
   171   86  208 1    
   172   86  209 1    
   173   87   88 2    
   174   87   89 am   BACKBONE|DICT|INTERRES
   175   89   90 1    
   176   89  210 1    
   177   90   91 1    
   178   90   92 1    
   179   90  211 1    
   180   91  212 1    
   181   91  213 1    
   182   91  214 1    
   183   92   93 2    
   184   92   94 am   BACKBONE|DICT|INTERRES
   185   94   95 1    
   186   94  215 1    
   187   95   96 1    
   188   95   97 1    
   189   95  216 1    
   190   96  217 1    
   191   96  218 1    
   192   96  219 1    
   193   97   98 2    
   194   97   99 am   BACKBONE|DICT|INTERRES
   195   99  100 1    
   196   99  220 1    
   197  100  101 1    
   198  100  102 1    
   199  100  221 1    
   200  101  222 1    
   201  101  223 1    
   202  101  224 1    
   203  102  103 2    
   204  102  104 am   BACKBONE|DICT|INTERRES
   205  104  105 1    
   206  104  225 1    
   207  105  106 1    
   208  105  107 1    
   209  105  226 1    
   210  106  227 1    
   211  106  228 1    
   212  106  229 1    
   213  107  108 2    
   214  107  109 am   BACKBONE|DICT|INTERRES
   215  109  110 1    
   216  109  230 1    
   217  110  111 1    
   218  110  112 1    
   219  110  231 1    
   220  111  232 1    
   221  111  233 1    
   222  111  234 1    
   223  112  113 2    
   224  112  114 am   BACKBONE|DICT|INTERRES
   225  114  115 1    
   226  114  235 1    
   227  115  116 1    
   228  115  117 1    
   229  115  236 1    
   230  116  237 1    
   231  116  238 1    
   232  116  239 1    
   233  117  118 2    
   234  117  119 am   BACKBONE|DICT|INTERRES
   235  119  120 1    
   236  119  240 1    
   237  120  121 1    
   238  120  124 1    
   239  120  241 1    
   240  121  122 am   BACKBONE|DICT|INTERRES
   241  121  123 2    
   242  122  242 1    
   243  122  243 1    
   244  124  125 1    
   245  124  244 1    
   246  124  245 1    
   247  125  126 1    
   248  126  246 1    
   249  126  247 1    
@<TRIPOS>SUBSTRUCTURE
     1 UNK         1 GROUP             0       ****    0 ROOT    
