@<TRIPOS>MOLECULE
3R540
247   249    1
SMALL
USER_CHARGES


@<TRIPOS>ATOM
      1 CA         -0.3392  -14.2449  -40.4801 C.3       0 UNK        -0.1800 
      2 C          -0.1813  -13.9155  -41.9575 C.2       0 UNK         0.5000 
      3 O           0.4585  -12.9204  -42.3011 O.2       0 UNK        -0.5000 
      4 N          -0.7488  -14.7489  -42.8349 N.am      1 UNK        -0.5000 
      5 CA         -0.7044  -14.6380  -44.2960 C.3       1 UNK         0.1400 
      6 C6         -1.8964  -15.3774  -44.9531 C.3       23 UNK        -0.0398 
      7 S7         -3.4952  -14.5573  -44.6216 S.3       23 UNK        -0.2404 
      8 C8         -3.8373  -13.6768  -46.1831 C.3       23 UNK        -0.0205 
      9 C9         -4.0719  -14.6289  -47.3480 C.ar      23 UNK        -0.0193 
     10 C10        -5.3197  -15.2311  -47.5415 C.ar      23 UNK        -0.1150 
     11 C11        -5.5167  -16.1406  -48.5876 C.ar      23 UNK        -0.0193 
     12 C12        -4.4480  -16.4523  -49.4336 C.ar      23 UNK        -0.1150 
     13 C13        -3.2086  -15.8308  -49.2679 C.ar      23 UNK        -0.0193 
     14 C14        -3.0316  -14.9110  -48.2351 C.ar      23 UNK        -0.1150 
     15 C15        -2.0528  -16.1442  -50.1985 C.3       23 UNK        -0.0205 
     16 S16        -0.8581  -17.2758  -49.4251 S.3       23 UNK        -0.2404 
     17 C17        -1.7133  -18.8815  -49.5240 C.3       23 UNK        -0.0398 
     18 CA         -1.9738  -19.4912  -48.1272 C.3       11 UNK         0.1400 
     19 N          -2.9789  -18.7423  -47.3504 N.am      11 UNK        -0.5000 
     20 C          -3.3148  -19.0105  -46.0794 C.2       10 UNK         0.5000 
     21 O          -2.7853  -19.8975  -45.4057 O.2       10 UNK        -0.5000 
     22 CA         -4.4973  -18.2383  -45.4881 C.3       10 UNK         0.1400 
     23 CB         -5.8229  -18.8477  -45.9828 C.3       10 UNK        -0.1800 
     24 N          -4.4157  -18.3344  -44.0368 N.am      10 UNK        -0.5000 
     25 C          -5.1143  -17.6215  -43.1485 C.2       9 UNK         0.5000 
     26 O          -5.9620  -16.7837  -43.4587 O.2       9 UNK        -0.5000 
     27 CA         -4.8431  -17.8974  -41.6551 C.3       9 UNK         0.1400 
     28 CB         -6.0253  -18.6531  -41.0274 C.3       9 UNK        -0.1800 
     29 N          -3.6144  -18.6525  -41.3855 N.am      9 UNK        -0.5000 
     30 C          -2.3704  -18.1700  -41.5058 C.2       8 UNK         0.5000 
     31 O          -2.1262  -17.0406  -41.9271 O.2       8 UNK        -0.5000 
     32 CA         -1.2087  -19.0842  -41.0632 C.3       8 UNK         0.1400 
     33 CB         -1.6599  -20.3354  -40.2821 C.3       8 UNK        -0.1800 
     34 N          -0.4095  -19.5138  -42.2085 N.am      8 UNK        -0.5000 
     35 C           0.5823  -18.8114  -42.7684 C.2       7 UNK         0.5000 
     36 O           0.9307  -17.6889  -42.3939 O.2       7 UNK        -0.5000 
     37 CA          1.3055  -19.5027  -43.9423 C.3       7 UNK         0.1400 
     38 CB          0.4822  -19.4189  -45.2359 C.3       7 UNK        -0.1800 
     39 N           2.6250  -18.9269  -44.1876 N.am      7 UNK        -0.5000 
     40 C           3.7045  -19.1323  -43.4248 C.2       6 UNK         0.5000 
     41 O           3.7090  -19.8702  -42.4372 O.2       6 UNK        -0.5000 
     42 CA          5.0024  -18.4311  -43.8794 C.3       6 UNK         0.1400 
     43 CB          6.1682  -18.6376  -42.8955 C.3       6 UNK        -0.1800 
     44 N           5.4217  -18.8862  -45.2074 N.am      6 UNK        -0.5000 
     45 C           4.8963  -18.4678  -46.3637 C.2       5 UNK         0.5000 
     46 O           3.9845  -17.6397  -46.4403 O.2       5 UNK        -0.5000 
     47 CA          5.4541  -19.0931  -47.6529 C.3       5 UNK         0.1400 
     48 CB          4.6513  -20.3486  -48.0278 C.3       5 UNK        -0.1800 
     49 N           5.3478  -18.1184  -48.7350 N.am      5 UNK        -0.5000 
     50 C           6.1787  -17.0799  -48.8900 C.2       4 UNK         0.5000 
     51 O           7.2593  -16.9645  -48.3105 O.2       4 UNK        -0.5000 
     52 CA          5.6555  -15.9406  -49.7671 C.3       4 UNK         0.1400 
     53 CB          5.3676  -16.3974  -51.2111 C.3       4 UNK        -0.1800 
     54 N           4.4546  -15.4076  -49.1280 N.am      4 UNK        -0.5000 
     55 C           3.9170  -14.2067  -49.3647 C.2       3 UNK         0.5000 
     56 O           4.3567  -13.4103  -50.1953 O.2       3 UNK        -0.5000 
     57 CA          2.6793  -13.8241  -48.5320 C.3       3 UNK         0.1400 
     58 CB          1.3934  -14.2101  -49.2777 C.3       3 UNK        -0.1800 
     59 N           2.6536  -14.4326  -47.2001 N.am      3 UNK        -0.5000 
     60 C           3.4340  -14.0777  -46.1715 C.2       2 UNK         0.5000 
     61 O           4.3221  -13.2277  -46.2571 O.2       2 UNK        -0.5000 
     62 CA          3.1242  -14.7481  -44.8139 C.3       2 UNK         0.1400 
     63 CB          4.0819  -14.3098  -43.6923 C.3       2 UNK        -0.1800 
     64 N           1.7490  -14.4938  -44.3857 N.am      2 UNK        -0.5000 
     65 C           0.6577  -15.1102  -44.8552 C.2       1 UNK         0.5000 
     66 O           0.7097  -15.9944  -45.7117 O.2       1 UNK        -0.5000 
     67 C          -2.3031  -20.9965  -48.2507 C.2       11 UNK         0.5000 
     68 O          -1.3859  -21.8074  -48.3683 O.2       11 UNK        -0.5000 
     69 N          -3.5914  -21.3511  -48.1322 N.am      12 UNK        -0.5000 
     70 CA         -4.1015  -22.7205  -48.0344 C.3       12 UNK         0.1400 
     71 CB         -5.6315  -22.6580  -47.9055 C.3       12 UNK        -0.1800 
     72 C          -3.5093  -23.5413  -46.8671 C.2       12 UNK         0.5000 
     73 O          -3.5059  -24.7703  -46.9372 O.2       12 UNK        -0.5000 
     74 N          -3.0150  -22.8613  -45.8207 N.am      13 UNK        -0.5000 
     75 CA         -2.3335  -23.4805  -44.6853 C.3       13 UNK         0.1400 
     76 CB         -2.3124  -22.4928  -43.5087 C.3       13 UNK        -0.1800 
     77 C          -0.9031  -23.9482  -45.0197 C.2       13 UNK         0.5000 
     78 O          -0.3953  -24.8337  -44.3307 O.2       13 UNK        -0.5000 
     79 N          -0.2718  -23.3590  -46.0484 N.am      14 UNK        -0.5000 
     80 CA          1.0584  -23.7569  -46.5139 C.3       14 UNK         0.1400 
     81 CB          1.7221  -22.6031  -47.2821 C.3       14 UNK        -0.1800 
     82 C           0.9963  -25.0289  -47.3757 C.2       14 UNK         0.5000 
     83 O           1.8253  -25.9222  -47.1972 O.2       14 UNK        -0.5000 
     84 N           0.0032  -25.0991  -48.2697 N.am      15 UNK        -0.5000 
     85 CA         -0.2807  -26.2356  -49.1391 C.3       15 UNK         0.1400 
     86 CB          0.7815  -26.3467  -50.2512 C.3       15 UNK        -0.1800 
     87 C          -1.6690  -26.0450  -49.7579 C.2       15 UNK         0.5000 
     88 O          -2.1017  -24.9063  -49.9436 O.2       15 UNK        -0.5000 
     89 N          -2.3166  -27.1537  -50.1375 N.am      16 UNK        -0.5000 
     90 CA         -3.6115  -27.1529  -50.8269 C.3       16 UNK         0.1400 
     91 CB         -4.1373  -28.5927  -50.9248 C.3       16 UNK        -0.1800 
     92 C          -3.5510  -26.5008  -52.2226 C.2       16 UNK         0.5000 
     93 O          -4.5171  -25.8639  -52.6393 O.2       16 UNK        -0.5000 
     94 N          -2.4021  -26.6338  -52.9007 N.am      17 UNK        -0.5000 
     95 CA         -2.1142  -25.9841  -54.1808 C.3       17 UNK         0.1400 
     96 CB         -0.8846  -26.6513  -54.8151 C.3       17 UNK        -0.1800 
     97 C          -1.8900  -24.4655  -54.0431 C.2       17 UNK         0.5000 
     98 O          -2.1896  -23.7206  -54.9765 O.2       17 UNK        -0.5000 
     99 N          -1.3872  -24.0284  -52.8790 N.am      18 UNK        -0.5000 
    100 CA        -1.1249  -22.6237  -52.5615 C.3       18 UNK         0.1400 
    101 CB        -0.0913  -22.5351  -51.4282 C.3       18 UNK        -0.1800 
    102 C         -2.4012  -21.8319  -52.2220 C.2       18 UNK         0.5000 
    103 O         -2.3610  -20.6030  -52.2368 O.2       18 UNK        -0.5000 
    104 N         -3.5248  -22.5242  -51.9771 N.am      19 UNK        -0.5000 
    105 CA        -4.8484  -21.9326  -51.7532 C.3       19 UNK         0.1400 
    106 CB        -5.8603  -23.0520  -51.4687 C.3       19 UNK        -0.1800 
    107 C         -5.3428  -21.0659  -52.9293 C.2       19 UNK         0.5000 
    108 O         -6.0750  -20.1012  -52.7083 O.2       19 UNK        -0.5000 
    109 N         -4.8955  -21.3954  -54.1506 N.am      20 UNK        -0.5000 
    110 CA        -5.1733  -20.6624  -55.3871 C.3       20 UNK         0.1400 
    111 CB        -4.5836  -21.4445  -56.5699 C.3       20 UNK        -0.1800 
    112 C         -4.6493  -19.2119  -55.3865 C.2       20 UNK         0.5000 
    113 O         -5.2152  -18.3673  -56.0828 O.2       20 UNK        -0.5000 
    114 N         -3.6165  -18.9269  -54.5773 N.am      21 UNK        -0.5000 
    115 CA        -3.0445  -17.5900  -54.3958 C.3       21 UNK         0.1400 
    116 CB        -1.6929  -17.7079  -53.6744 C.3       21 UNK        -0.1800 
    117 C         -3.9859  -16.6011  -53.6739 C.2       21 UNK         0.5000 
    118 O         -3.7199  -15.3992  -53.6990 O.2       21 UNK        -0.5000 
    119 N         -5.0755  -17.1042  -53.0737 N.am      22 UNK        -0.5000 
    120 CA        -6.1966  -16.2950  -52.5686 C.3       22 UNK         0.1400 
    121 C         -7.0484  -15.6201  -53.6892 C.2       22 UNK         0.5000 
    122 N         -6.9520  -16.0384  -54.9479 N.am      22 UNK        -0.7600 
    123 O         -7.8041  -14.6920  -53.4167 O.2       22 UNK        -0.5000 
    124 C124       -7.0902  -17.1187  -51.6003 C.3       23 UNK        -0.0398 
    125 S125       -7.7714  -16.1274  -50.2232 S.3       23 UNK        -0.2404 
    126 C126       -6.8751  -16.8003  -48.7863 C.3       23 UNK        -0.0205 
    127 H127       -0.8472  -13.4294  -39.9655 H         1 UNK         0.0600 
    128 H128        0.6394  -14.3842  -40.0210 H         1 UNK         0.0600 
    129 H129       -0.9176  -15.1563  -40.3282 H         1 UNK         0.0600 
    130 H130       -1.2334  -15.5751  -42.4847 H         1 UNK         0.3000 
    131 H131       -0.7877  -13.5825  -44.5633 H         1 UNK         0.0600 
    132 H132       -1.7550  -15.4628  -46.0276 H         1 UNK         0.0800 
    133 H133       -1.9515  -16.4040  -44.5874 H         1 UNK         0.0800 
    134 H134       -4.7193  -13.0497  -46.0459 H         1 UNK         0.0800 
    135 H135       -3.0127  -12.9967  -46.4018 H         1 UNK         0.0800 
    136 H136       -6.1311  -15.0026  -46.8645 H         1 UNK         0.1150 
    137 H137       -4.5810  -17.1662  -50.2323 H         1 UNK         0.1150 
    138 H138       -2.0688  -14.4358  -48.1078 H         1 UNK         0.1150 
    139 H139       -2.4176  -16.5628  -51.1342 H         1 UNK         0.0800 
    140 H140       -1.5394  -15.2182  -50.4617 H         1 UNK         0.0800 
    141 H141       -1.0643  -19.5335  -50.1114 H         1 UNK         0.0800 
    142 H142       -2.6407  -18.7924  -50.0914 H         1 UNK         0.0800 
    143 H143       -1.0389  -19.4384  -47.5679 H         1 UNK         0.0600 
    144 H144       -3.4321  -17.9781  -47.8323 H         1 UNK         0.3000 
    145 H145       -4.4204  -17.1936  -45.7880 H         1 UNK         0.0600 
    146 H146       -6.6747  -18.2306  -45.6975 H         1 UNK         0.0600 
    147 H147       -5.8391  -18.9384  -47.0677 H         1 UNK         0.0600 
    148 H148       -5.9807  -19.8462  -45.5733 H         1 UNK         0.0600 
    149 H149       -3.7265  -18.9994  -43.7096 H         1 UNK         0.3000 
    150 H150       -4.7588  -16.9270  -41.1612 H         1 UNK         0.0600 
    151 H151       -6.1527  -19.6404  -41.4731 H         1 UNK         0.0600 
    152 H152       -6.9592  -18.1071  -41.1680 H         1 UNK         0.0600 
    153 H153       -5.8867  -18.7829  -39.9539 H         1 UNK         0.0600 
    154 H154       -3.7351  -19.5901  -41.0316 H         1 UNK         0.3000 
    155 H155       -0.5813  -18.4910  -40.3944 H         1 UNK         0.0600 
    156 H156       -2.2657  -21.0076  -40.8904 H         1 UNK         0.0600 
    157 H157       -2.2416  -20.0624  -39.4004 H         1 UNK         0.0600 
    158 H158       -0.7981  -20.9020  -39.9284 H         1 UNK         0.0600 
    159 H159       -0.6453  -20.4127  -42.5995 H         1 UNK         0.3000 
    160 H160        1.4461  -20.5575  -43.6955 H         1 UNK         0.0600 
    161 H161        1.1016  -19.5408  -46.1244 H         1 UNK         0.0600 
    162 H162       -0.0428  -18.4680  -45.3295 H         1 UNK         0.0600 
    163 H163       -0.2642  -20.2111  -45.2577 H         1 UNK         0.0600 
    164 H164        2.7125  -18.3069  -44.9855 H         1 UNK         0.3000 
    165 H165        4.7962  -17.3600  -43.9180 H         1 UNK         0.0600 
    166 H166        5.9043  -18.2853  -41.8975 H         1 UNK         0.0600 
    167 H167        6.4453  -19.6892  -42.8115 H         1 UNK         0.0600 
    168 H168        7.0519  -18.0822  -43.2103 H         1 UNK         0.0600 
    169 H169        6.1398  -19.5961  -45.2258 H         1 UNK         0.3000 
    170 H170        6.5008  -19.3671  -47.5044 H         1 UNK         0.0600 
    171 H171        4.7255  -21.1071  -47.2476 H         1 UNK         0.0600 
    172 H172        3.5925  -20.1250  -48.1671 H         1 UNK         0.0600 
    173 H173        5.0239  -20.7942  -48.9502 H         1 UNK         0.0600 
    174 H174        4.4699  -18.1089  -49.2328 H         1 UNK         0.3000 
    175 H175        6.4205  -15.1614  -49.7907 H         1 UNK         0.0600 
    176 H176        5.1124  -15.5513  -51.8491 H         1 UNK         0.0600 
    177 H177        6.2428  -16.8784  -51.6494 H         1 UNK         0.0600 
    178 H178        4.5415  -17.1075  -51.2583 H         1 UNK         0.0600 
    179 H179        4.0619  -15.9711  -48.3837 H         1 UNK         0.3000 
    180 H180        2.6871  -12.7392  -48.4077 H         1 UNK         0.0600 
    181 H181        1.3423  -15.2854  -49.4487 H         1 UNK         0.0600 
    182 H182        1.3432  -13.7210  -50.2514 H         1 UNK         0.0600 
    183 H183        0.5047  -13.9160  -48.7189 H         1 UNK         0.0600 
    184 H184        1.9406  -15.1343  -47.0235 H         1 UNK         0.3000 
    185 H185        3.2433  -15.8221  -44.9392 H         1 UNK         0.0600 
    186 H186        5.1185  -14.5200  -43.9590 H         1 UNK         0.0600 
    187 H187        4.0019  -13.2413  -43.4888 H         1 UNK         0.0600 
    188 H188        3.8716  -14.8442  -42.7656 H         1 UNK         0.0600 
    189 H189        1.6114  -13.7706  -43.6868 H         1 UNK         0.3000 
    190 H190       -4.2718  -20.6162  -48.0189 H         1 UNK         0.3000 
    191 H191       -3.8475  -23.2321  -48.9632 H         1 UNK         0.0600 
    192 H192       -6.0805  -22.0932  -48.7219 H         1 UNK         0.0600 
    193 H193       -6.0650  -23.6588  -47.9258 H         1 UNK         0.0600 
    194 H194       -5.9359  -22.1874  -46.9697 H         1 UNK         0.0600 
    195 H195       -3.0475  -21.8470  -45.8237 H         1 UNK         0.3000 
    196 H196       -2.9054  -24.3585  -44.3775 H         1 UNK         0.0600 
    197 H197       -1.8925  -22.9594  -42.6167 H         1 UNK         0.0600 
    198 H198       -3.3173  -22.1530  -43.2573 H         1 UNK         0.0600 
    199 H199       -1.7078  -21.6160  -43.7357 H         1 UNK         0.0600 
    200 H200       -0.7665  -22.6797  -46.6154 H         1 UNK         0.3000 
    201 H201        1.6844  -23.9728  -45.6452 H         1 UNK         0.0600 
    202 H202        2.7229  -22.8840  -47.6120 H         1 UNK         0.0600 
    203 H203        1.1568  -22.3212  -48.1702 H         1 UNK         0.0600 
    204 H204        1.8271  -21.7210  -46.6523 H         1 UNK         0.0600 
    205 H205       -0.6530  -24.3311  -48.3580 H         1 UNK         0.3000 
    206 H206       -0.2868  -27.1474  -48.5385 H         1 UNK         0.0600 
    207 H207        1.7722  -26.5426  -49.8418 H         1 UNK         0.0600 
    208 H208        0.5531  -27.1653  -50.9347 H         1 UNK         0.0600 
    209 H209        0.8415  -25.4321  -50.8417 H         1 UNK         0.0600 
    210 H210       -1.8990  -28.0563  -49.9613 H         1 UNK         0.3000 
    211 H211       -4.3127  -26.5723  -50.2233 H         1 UNK         0.0600 
    212 H212       -3.4633  -29.2305  -51.4981 H         1 UNK         0.0600 
    213 H213       -5.1114  -28.6197  -51.4150 H         1 UNK         0.0600 
    214 H214       -4.2605  -29.0356  -49.9363 H         1 UNK         0.0600 
    215 H215       -1.6640  -27.1885  -52.4936 H         1 UNK         0.3000 
    216 H216       -2.9673  -26.1353  -54.8459 H         1 UNK         0.0600 
    217 H217       -0.6548  -26.2053  -55.7838 H         1 UNK         0.0600 
    218 H218       -1.0547  -27.7152  -54.9810 H         1 UNK         0.0600 
    219 H219        0.0009  -26.5459  -54.1868 H         1 UNK         0.0600 
    220 H220       -1.2343  -24.6912  -52.1329 H         1 UNK         0.3000 
    221 H221       -0.6866  -22.1494  -53.4422 H         1 UNK         0.0600 
    222 H222       -0.4439  -23.0151  -50.5172 H         1 UNK         0.0600 
    223 H223        0.8478  -23.0088  -51.7134 H         1 UNK         0.0600 
    224 H224        0.1328  -21.4967  -51.1816 H         1 UNK         0.0600 
    225 H225       -3.4718  -23.5332  -51.9728 H         1 UNK         0.3000 
    226 H226       -4.7778  -21.2914  -50.8727 H         1 UNK         0.0600 
    227 H227       -6.8209  -22.6384  -51.1593 H         1 UNK         0.0600 
    228 H228       -6.0397  -23.6633  -52.3538 H         1 UNK         0.0600 
    229 H229       -5.5172  -23.7144  -50.6746 H         1 UNK         0.0600 
    230 H230       -4.2827  -22.1948  -54.2326 H         1 UNK         0.3000 
    231 H231       -6.2573  -20.6176  -55.5096 H         1 UNK         0.0600 
    232 H232       -3.5005  -21.5439  -56.4852 H         1 UNK         0.0600 
    233 H233       -4.7954  -20.9437  -57.5156 H         1 UNK         0.0600 
    234 H234       -5.0077  -22.4469  -56.6318 H         1 UNK         0.0600 
    235 H235       -3.2309  -19.6604  -53.9940 H         1 UNK         0.3000 
    236 H236       -2.8545  -17.1743  -55.3875 H         1 UNK         0.0600 
    237 H237       -1.0016  -18.3383  -54.2337 H         1 UNK         0.0600 
    238 H238       -1.2213  -16.7310  -53.5606 H         1 UNK         0.0600 
    239 H239       -1.8012  -18.1364  -52.6794 H         1 UNK         0.0600 
    240 H240       -5.2279  -18.1050  -53.1016 H         1 UNK         0.3000 
    241 H241       -5.7470  -15.4785  -51.9998 H         1 UNK         0.0600 
    242 H242       -7.5055  -15.5866  -55.6587 H         1 UNK         0.3800 
    243 H243       -6.3350  -16.7986  -55.2073 H         1 UNK         0.3800 
    244 H244       -6.5264  -17.9485  -51.1753 H         1 UNK         0.0800 
    245 H245       -7.9156  -17.5955  -52.1323 H         1 UNK         0.0800 
    246 H246       -7.4935  -16.6540  -47.8993 H         1 UNK         0.0800 
    247 H247       -6.7600  -17.8787  -48.8942 H         1 UNK         0.0800 
@<TRIPOS>BOND
     1    1    2 1    
     2    1  127 1    
     3    1  128 1    
     4    1  129 1    
     5    2    3 2    
     6    2    4 am   BACKBONE|DICT|INTERRES
     7    4    5 1    
     8    4  130 1    
     9    5    6 1    
    10    5   65 1    
    11    5  131 1    
    12    6    7 1    
    13    6  132 1    
    14    6  133 1    
    15    7    8 1    
    16    8    9 1    
    17    8  134 1    
    18    8  135 1    
    19    9   10 ar   
    20    9   14 ar   
    21   10   11 ar   
    22   10  136 1    
    23   11   12 ar   
    24   11  126 1    
    25   12   13 ar   
    26   12  137 1    
    27   13   14 ar   
    28   13   15 1    
    29   14  138 1    
    30   15   16 1    
    31   15  139 1    
    32   15  140 1    
    33   16   17 1    
    34   17   18 1    
    35   17  141 1    
    36   17  142 1    
    37   18   19 1    
    38   18   67 1    
    39   18  143 1    
    40   19   20 am   BACKBONE|DICT|INTERRES
    41   19  144 1    
    42   20   21 2    
    43   20   22 1    
    44   22   23 1    
    45   22   24 1    
    46   22  145 1    
    47   23  146 1    
    48   23  147 1    
    49   23  148 1    
    50   24   25 am   BACKBONE|DICT|INTERRES
    51   24  149 1    
    52   25   26 2    
    53   25   27 1    
    54   27   28 1    
    55   27   29 1    
    56   27  150 1    
    57   28  151 1    
    58   28  152 1    
    59   28  153 1    
    60   29   30 am   BACKBONE|DICT|INTERRES
    61   29  154 1    
    62   30   31 2    
    63   30   32 1    
    64   32   33 1    
    65   32   34 1    
    66   32  155 1    
    67   33  156 1    
    68   33  157 1    
    69   33  158 1    
    70   34   35 am   BACKBONE|DICT|INTERRES
    71   34  159 1    
    72   35   36 2    
    73   35   37 1    
    74   37   38 1    
    75   37   39 1    
    76   37  160 1    
    77   38  161 1    
    78   38  162 1    
    79   38  163 1    
    80   39   40 am   BACKBONE|DICT|INTERRES
    81   39  164 1    
    82   40   41 2    
    83   40   42 1    
    84   42   43 1    
    85   42   44 1    
    86   42  165 1    
    87   43  166 1    
    88   43  167 1    
    89   43  168 1    
    90   44   45 am   BACKBONE|DICT|INTERRES
    91   44  169 1    
    92   45   46 2    
    93   45   47 1    
    94   47   48 1    
    95   47   49 1    
    96   47  170 1    
    97   48  171 1    
    98   48  172 1    
    99   48  173 1    
   100   49   50 am   BACKBONE|DICT|INTERRES
   101   49  174 1    
   102   50   51 2    
   103   50   52 1    
   104   52   53 1    
   105   52   54 1    
   106   52  175 1    
   107   53  176 1    
   108   53  177 1    
   109   53  178 1    
   110   54   55 am   BACKBONE|DICT|INTERRES
   111   54  179 1    
   112   55   56 2    
   113   55   57 1    
   114   57   58 1    
   115   57   59 1    
   116   57  180 1    
   117   58  181 1    
   118   58  182 1    
   119   58  183 1    
   120   59   60 am   BACKBONE|DICT|INTERRES
   121   59  184 1    
   122   60   61 2    
   123   60   62 1    
   124   62   63 1    
   125   62   64 1    
   126   62  185 1    
   127   63  186 1    
   128   63  187 1    
   129   63  188 1    
   130   64   65 am   BACKBONE|DICT|INTERRES
   131   64  189 1    
   132   65   66 2    
   133   67   68 2    
   134   67   69 am   BACKBONE|DICT|INTERRES
   135   69   70 1    
   136   69  190 1    
   137   70   71 1    
   138   70   72 1    
   139   70  191 1    
   140   71  192 1    
   141   71  193 1    
   142   71  194 1    
   143   72   73 2    
   144   72   74 am   BACKBONE|DICT|INTERRES
   145   74   75 1    
   146   74  195 1    
   147   75   76 1    
   148   75   77 1    
   149   75  196 1    
   150   76  197 1    
   151   76  198 1    
   152   76  199 1    
   153   77   78 2    
   154   77   79 am   BACKBONE|DICT|INTERRES
   155   79   80 1    
   156   79  200 1    
   157   80   81 1    
   158   80   82 1    
   159   80  201 1    
   160   81  202 1    
   161   81  203 1    
   162   81  204 1    
   163   82   83 2    
   164   82   84 am   BACKBONE|DICT|INTERRES
   165   84   85 1    
   166   84  205 1    
   167   85   86 1    
   168   85   87 1    
   169   85  206 1    
   170   86  207 1    
   171   86  208 1    
   172   86  209 1    
   173   87   88 2    
   174   87   89 am   BACKBONE|DICT|INTERRES
   175   89   90 1    
   176   89  210 1    
   177   90   91 1    
   178   90   92 1    
   179   90  211 1    
   180   91  212 1    
   181   91  213 1    
   182   91  214 1    
   183   92   93 2    
   184   92   94 am   BACKBONE|DICT|INTERRES
   185   94   95 1    
   186   94  215 1    
   187   95   96 1    
   188   95   97 1    
   189   95  216 1    
   190   96  217 1    
   191   96  218 1    
   192   96  219 1    
   193   97   98 2    
   194   97   99 am   BACKBONE|DICT|INTERRES
   195   99  100 1    
   196   99  220 1    
   197  100  101 1    
   198  100  102 1    
   199  100  221 1    
   200  101  222 1    
   201  101  223 1    
   202  101  224 1    
   203  102  103 2    
   204  102  104 am   BACKBONE|DICT|INTERRES
   205  104  105 1    
   206  104  225 1    
   207  105  106 1    
   208  105  107 1    
   209  105  226 1    
   210  106  227 1    
   211  106  228 1    
   212  106  229 1    
   213  107  108 2    
   214  107  109 am   BACKBONE|DICT|INTERRES
   215  109  110 1    
   216  109  230 1    
   217  110  111 1    
   218  110  112 1    
   219  110  231 1    
   220  111  232 1    
   221  111  233 1    
   222  111  234 1    
   223  112  113 2    
   224  112  114 am   BACKBONE|DICT|INTERRES
   225  114  115 1    
   226  114  235 1    
   227  115  116 1    
   228  115  117 1    
   229  115  236 1    
   230  116  237 1    
   231  116  238 1    
   232  116  239 1    
   233  117  118 2    
   234  117  119 am   BACKBONE|DICT|INTERRES
   235  119  120 1    
   236  119  240 1    
   237  120  121 1    
   238  120  124 1    
   239  120  241 1    
   240  121  122 am   BACKBONE|DICT|INTERRES
   241  121  123 2    
   242  122  242 1    
   243  122  243 1    
   244  124  125 1    
   245  124  244 1    
   246  124  245 1    
   247  125  126 1    
   248  126  246 1    
   249  126  247 1    
@<TRIPOS>SUBSTRUCTURE
     1 UNK         1 GROUP             0       ****    0 ROOT    
