@<TRIPOS>MOLECULE
3R540
247   249    1
SMALL
USER_CHARGES


@<TRIPOS>ATOM
      1 CA         -1.1950  -15.8242  -49.5045 C.3       0 UNK        -0.1800 
      2 C          -2.2931  -14.8078  -49.8083 C.2       0 UNK         0.5000 
      3 O          -2.7160  -14.7097  -50.9580 O.2       0 UNK        -0.5000 
      4 N          -2.7914  -14.0317  -48.8383 N.am      1 UNK        -0.5000 
      5 CA         -2.3604  -13.9421  -47.4411 C.3       1 UNK         0.1400 
      6 C6         -3.4298  -14.5003  -46.4609 C.3       23 UNK        -0.0398 
      7 S7         -3.7058  -16.2912  -46.6736 S.3       23 UNK        -0.2404 
      8 C8         -4.6698  -16.6756  -45.1735 C.3       23 UNK        -0.0205 
      9 C9         -4.9242  -18.1694  -44.9905 C.ar      23 UNK        -0.0193 
     10 C10        -5.4679  -18.9282  -46.0305 C.ar      23 UNK        -0.1150 
     11 C11        -5.7435  -20.2862  -45.8554 C.ar      23 UNK        -0.0193 
     12 C12        -5.4988  -20.8857  -44.6177 C.ar      23 UNK        -0.1150 
     13 C13        -4.9612  -20.1421  -43.5616 C.ar      23 UNK        -0.0193 
     14 C14        -4.6677  -18.7869  -43.7604 C.ar      23 UNK        -0.1150 
     15 C15        -4.7508  -20.7750  -42.1868 C.3       23 UNK        -0.0205 
     16 S16        -3.9017  -22.3928  -42.2254 S.3       23 UNK        -0.2404 
     17 C17        -2.2868  -21.9324  -42.9303 C.3       23 UNK        -0.0398 
     18 CA         -2.1003  -22.4813  -44.3700 C.3       11 UNK         0.1400 
     19 N          -1.5015  -21.4927  -45.2675 N.am      11 UNK        -0.5000 
     20 C          -1.4086  -21.6280  -46.5971 C.2       10 UNK         0.5000 
     21 O          -1.7994  -22.6137  -47.2212 O.2       10 UNK        -0.5000 
     22 CA         -0.7028  -20.4950  -47.3556 C.3       10 UNK         0.1400 
     23 CB         -1.6312  -19.2855  -47.5225 C.3       10 UNK        -0.1800 
     24 N           0.5514  -20.0854  -46.7237 N.am      10 UNK        -0.5000 
     25 C           1.6083  -20.8915  -46.5445 C.2       9 UNK         0.5000 
     26 O           1.6489  -22.0623  -46.9233 O.2       9 UNK        -0.5000 
     27 CA          2.8057  -20.3102  -45.7730 C.3       9 UNK         0.1400 
     28 CB          3.6375  -19.3819  -46.6704 C.3       9 UNK        -0.1800 
     29 N           2.4058  -19.5986  -44.5591 N.am      9 UNK        -0.5000 
     30 C           1.7706  -20.1628  -43.5212 C.2       8 UNK         0.5000 
     31 O           1.4756  -21.3566  -43.4604 O.2       8 UNK        -0.5000 
     32 CA          1.3412  -19.2243  -42.3801 C.3       8 UNK         0.1400 
     33 CB          2.5351  -18.8701  -41.4812 C.3       8 UNK        -0.1800 
     34 N           0.7033  -18.0000  -42.8655 N.am      8 UNK        -0.5000 
     35 C          -0.4126  -17.9737  -43.6086 C.2       7 UNK         0.5000 
     36 O          -1.0352  -18.9774  -43.9470 O.2       7 UNK        -0.5000 
     37 CA         -0.8870  -16.6022  -44.1046 C.3       7 UNK         0.1400 
     38 CB         -1.5563  -15.8068  -42.9736 C.3       7 UNK        -0.1800 
     39 N           0.1947  -15.8198  -44.6945 N.am      7 UNK        -0.5000 
     40 C           0.9004  -16.1781  -45.7764 C.2       6 UNK         0.5000 
     41 O           0.6736  -17.1850  -46.4455 O.2       6 UNK        -0.5000 
     42 CA          2.0950  -15.2821  -46.1402 C.3       6 UNK         0.1400 
     43 CB          1.6343  -14.0298  -46.8992 C.3       6 UNK        -0.1800 
     44 N           2.8585  -14.8835  -44.9584 N.am      6 UNK        -0.5000 
     45 C           3.5755  -15.7236  -44.1987 C.2       5 UNK         0.5000 
     46 O           3.6911  -16.9277  -44.4262 O.2       5 UNK        -0.5000 
     47 CA          4.2439  -15.1161  -42.9530 C.3       5 UNK         0.1400 
     48 CB          5.5718  -14.4391  -43.3240 C.3       5 UNK        -0.1800 
     49 N           3.3791  -14.1521  -42.2702 N.am      5 UNK        -0.5000 
     50 C           2.2511  -14.4806  -41.6255 C.2       4 UNK         0.5000 
     51 O           1.8263  -15.6320  -41.5312 O.2       4 UNK        -0.5000 
     52 CA          1.4395  -13.3189  -41.0247 C.3       4 UNK         0.1400 
     53 CB          2.0362  -12.8775  -39.6797 C.3       4 UNK        -0.1800 
     54 N           1.3258  -12.1586  -41.9153 N.am      4 UNK        -0.5000 
     55 C           0.7378  -12.1866  -43.1175 C.2       3 UNK         0.5000 
     56 O           0.3045  -13.2142  -43.6443 O.2       3 UNK        -0.5000 
     57 CA          0.6136  -10.8580  -43.8703 C.3       3 UNK         0.1400 
     58 CB          1.8654  -10.5860  -44.7231 C.3       3 UNK        -0.1800 
     59 N          -0.5700  -10.9614  -44.7147 N.am      3 UNK        -0.5000 
     60 C          -1.2630   -9.9556  -45.2549 C.2       2 UNK         0.5000 
     61 O          -0.9348   -8.7731  -45.1435 O.2       2 UNK        -0.5000 
     62 CA         -2.5652  -10.3231  -46.0046 C.3       2 UNK         0.1400 
     63 CB         -2.7987   -9.4372  -47.2470 C.3       2 UNK        -0.1800 
     64 N          -2.7133  -11.7514  -46.3364 N.am      2 UNK        -0.5000 
     65 C          -1.9758  -12.4666  -47.2018 C.2       1 UNK         0.5000 
     66 O          -1.0168  -12.0029  -47.8199 O.2       1 UNK        -0.5000 
     67 C          -1.3249  -23.8156  -44.3708 C.2       11 UNK         0.5000 
     68 O          -1.9465  -24.8774  -44.4230 O.2       11 UNK        -0.5000 
     69 N           0.0147  -23.7382  -44.3436 N.am      12 UNK        -0.5000 
     70 CA          0.9158  -24.8909  -44.3928 C.3       12 UNK         0.1400 
     71 CB          2.3501  -24.4376  -44.0811 C.3       12 UNK        -0.1800 
     72 C           0.8633  -25.6364  -45.7383 C.2       12 UNK         0.5000 
     73 O           0.8536  -26.8680  -45.7490 O.2       12 UNK        -0.5000 
     74 N           0.8140  -24.8819  -46.8447 N.am      13 UNK        -0.5000 
     75 CA          0.6908  -25.4160  -48.2023 C.3       13 UNK         0.1400 
     76 CB          1.1129  -24.3312  -49.2031 C.3       13 UNK        -0.1800 
     77 C          -0.7261  -25.9252  -48.5326 C.2       13 UNK         0.5000 
     78 O          -0.8817  -26.6873  -49.4861 O.2       13 UNK        -0.5000 
     79 N          -1.7332  -25.4603  -47.7802 N.am      14 UNK        -0.5000 
     80 CA         -3.1725  -25.7539  -47.8391 C.3       14 UNK         0.1400 
     81 CB         -3.4430  -27.2566  -47.6378 C.3       14 UNK        -0.1800 
     82 C          -3.9016  -25.2179  -49.0889 C.2       14 UNK         0.5000 
     83 O          -5.0955  -24.9296  -49.0071 O.2       14 UNK        -0.5000 
     84 N          -3.1855  -25.0876  -50.2098 N.am      15 UNK        -0.5000 
     85 CA         -3.6617  -24.5352  -51.4774 C.3       15 UNK         0.1400 
     86 CB         -3.5747  -25.6329  -52.5518 C.3       15 UNK        -0.1800 
     87 C          -2.8504  -23.2972  -51.9019 C.2       15 UNK         0.5000 
     88 O          -3.0322  -22.8249  -53.0241 O.2       15 UNK        -0.5000 
     89 N          -1.9363  -22.8152  -51.0419 N.am      16 UNK        -0.5000 
     90 CA         -0.9883  -21.7181  -51.2963 C.3       16 UNK         0.1400 
     91 CB         -1.7185  -20.3641  -51.2797 C.3       16 UNK        -0.1800 
     92 C          -0.1622  -21.9405  -52.5819 C.2       16 UNK         0.5000 
     93 O          -0.1069  -21.0704  -53.4552 O.2       16 UNK        -0.5000 
     94 N           0.3814  -23.1626  -52.7007 N.am      17 UNK        -0.5000 
     95 CA          1.1417  -23.7075  -53.8350 C.3       17 UNK         0.1400 
     96 CB          2.4726  -22.9450  -54.0019 C.3       17 UNK        -0.1800 
     97 C           0.3455  -23.7792  -55.1589 C.2       17 UNK         0.5000 
     98 O           0.9509  -23.9311  -56.2203 O.2       17 UNK        -0.5000 
     99 N          -0.9879  -23.6362  -55.0763 N.am      18 UNK        -0.5000 
    100 CA        -1.9472  -23.4600  -56.1722 C.3       18 UNK         0.1400 
    101 CB        -1.9803  -24.6952  -57.0955 C.3       18 UNK        -0.1800 
    102 C         -1.7577  -22.1369  -56.9493 C.2       18 UNK         0.5000 
    103 O         -2.3465  -21.9754  -58.0190 O.2       18 UNK        -0.5000 
    104 N         -0.9603  -21.2072  -56.4017 N.am      19 UNK        -0.5000 
    105 CA        -0.6753  -19.9023  -56.9919 C.3       19 UNK         0.1400 
    106 CB         0.7090  -19.4211  -56.5271 C.3       19 UNK        -0.1800 
    107 C         -1.7725  -18.8966  -56.6187 C.2       19 UNK         0.5000 
    108 O         -2.3613  -18.2773  -57.5053 O.2       19 UNK        -0.5000 
    109 N         -2.0464  -18.7836  -55.3119 N.am      20 UNK        -0.5000 
    110 CA        -3.1134  -17.9417  -54.7639 C.3       20 UNK         0.1400 
    111 CB        -2.6065  -17.2661  -53.4794 C.3       20 UNK        -0.1800 
    112 C         -4.4054  -18.7364  -54.4914 C.2       20 UNK         0.5000 
    113 O         -5.4166  -18.1303  -54.1342 O.2       20 UNK        -0.5000 
    114 N         -4.3485  -20.0737  -54.6185 N.am      21 UNK        -0.5000 
    115 CA        -5.4362  -21.0406  -54.3915 C.3       21 UNK         0.1400 
    116 CB        -6.5306  -20.8780  -55.4658 C.3       21 UNK        -0.1800 
    117 C         -6.0093  -21.0076  -52.9547 C.2       21 UNK         0.5000 
    118 O         -7.1521  -21.4103  -52.7331 O.2       21 UNK        -0.5000 
    119 N         -5.2022  -20.5065  -52.0110 N.am      22 UNK        -0.5000 
    120 CA        -5.5632  -20.1771  -50.6251 C.3       22 UNK         0.1400 
    121 C         -6.5734  -18.9933  -50.4854 C.2       22 UNK         0.5000 
    122 N         -6.7662  -18.1599  -51.5024 N.am      22 UNK        -0.7600 
    123 O         -7.1779  -18.8015  -49.4353 O.2       22 UNK        -0.5000 
    124 C124       -5.9361  -21.4371  -49.7867 C.3       23 UNK        -0.0398 
    125 S125       -5.0206  -21.5032  -48.2109 S.3       23 UNK        -0.2404 
    126 C126       -6.3188  -21.0907  -47.0072 C.3       23 UNK        -0.0205 
    127 H127       -0.2199  -15.3390  -49.5037 H         1 UNK         0.0600 
    128 H128       -1.1818  -16.6058  -50.2646 H         1 UNK         0.0600 
    129 H129       -1.3463  -16.3104  -48.5429 H         1 UNK         0.0600 
    130 H130       -3.4975  -13.3575  -49.0970 H         1 UNK         0.3000 
    131 H131       -1.4376  -14.4983  -47.2760 H         1 UNK         0.0600 
    132 H132       -3.1185  -14.3339  -45.4287 H         1 UNK         0.0800 
    133 H133       -4.3868  -13.9926  -46.5929 H         1 UNK         0.0800 
    134 H134       -5.6301  -16.1613  -45.2274 H         1 UNK         0.0800 
    135 H135       -4.1508  -16.2722  -44.3040 H         1 UNK         0.0800 
    136 H136       -5.6755  -18.4628  -46.9844 H         1 UNK         0.1150 
    137 H137       -5.7318  -21.9312  -44.4741 H         1 UNK         0.1150 
    138 H138       -4.2624  -18.2041  -42.9454 H         1 UNK         0.1150 
    139 H139       -4.1882  -20.1035  -41.5362 H         1 UNK         0.0800 
    140 H140       -5.7264  -20.9072  -41.7175 H         1 UNK         0.0800 
    141 H141       -1.4935  -22.2597  -42.2552 H         1 UNK         0.0800 
    142 H142       -2.2302  -20.8469  -42.9183 H         1 UNK         0.0800 
    143 H143       -3.0848  -22.6909  -44.7946 H         1 UNK         0.0600 
    144 H144       -1.1777  -20.6275  -44.8405 H         1 UNK         0.3000 
    145 H145       -0.4599  -20.8700  -48.3495 H         1 UNK         0.0600 
    146 H146       -1.1880  -18.5523  -48.1934 H         1 UNK         0.0600 
    147 H147       -2.5921  -19.5774  -47.9474 H         1 UNK         0.0600 
    148 H148       -1.8321  -18.7948  -46.5700 H         1 UNK         0.0600 
    149 H149        0.6047  -19.1206  -46.4077 H         1 UNK         0.3000 
    150 H150        3.4402  -21.1460  -45.4711 H         1 UNK         0.0600 
    151 H151        3.9535  -19.8961  -47.5789 H         1 UNK         0.0600 
    152 H152        4.5381  -19.0432  -46.1581 H         1 UNK         0.0600 
    153 H153        3.0729  -18.4988  -46.9709 H         1 UNK         0.0600 
    154 H154        2.6346  -18.6099  -44.5169 H         1 UNK         0.3000 
    155 H155        0.6072  -19.7584  -41.7733 H         1 UNK         0.0600 
    156 H156        3.2861  -18.2896  -42.0176 H         1 UNK         0.0600 
    157 H157        3.0217  -19.7706  -41.1045 H         1 UNK         0.0600 
    158 H158        2.2171  -18.2867  -40.6170 H         1 UNK         0.0600 
    159 H159        1.1413  -17.1227  -42.5999 H         1 UNK         0.3000 
    160 H160       -1.6254  -16.7822  -44.8833 H         1 UNK         0.0600 
    161 H161       -0.8503  -15.5625  -42.1800 H         1 UNK         0.0600 
    162 H162       -2.3703  -16.3762  -42.5236 H         1 UNK         0.0600 
    163 H163       -1.9762  -14.8715  -43.3421 H         1 UNK         0.0600 
    164 H164        0.4226  -14.9453  -44.2270 H         1 UNK         0.3000 
    165 H165        2.7562  -15.8540  -46.7947 H         1 UNK         0.0600 
    166 H166        2.4816  -13.4082  -47.1883 H         1 UNK         0.0600 
    167 H167        1.1058  -14.2995  -47.8131 H         1 UNK         0.0600 
    168 H168        0.9592  -13.4187  -46.3002 H         1 UNK         0.0600 
    169 H169        2.7847  -13.9195  -44.6719 H         1 UNK         0.3000 
    170 H170        4.4596  -15.9321  -42.2599 H         1 UNK         0.0600 
    171 H171        6.2412  -15.1415  -43.8224 H         1 UNK         0.0600 
    172 H172        5.4216  -13.5944  -43.9974 H         1 UNK         0.0600 
    173 H173        6.0888  -14.0735  -42.4366 H         1 UNK         0.0600 
    174 H174        3.6526  -13.1812  -42.3047 H         1 UNK         0.3000 
    175 H175        0.4295  -13.6908  -40.8390 H         1 UNK         0.0600 
    176 H176        3.0336  -12.4529  -39.7996 H         1 UNK         0.0600 
    177 H177        1.4082  -12.1287  -39.1966 H         1 UNK         0.0600 
    178 H178        2.1188  -13.7215  -38.9935 H         1 UNK         0.0600 
    179 H179        1.6668  -11.2790  -41.5548 H         1 UNK         0.3000 
    180 H180        0.4722  -10.0522  -43.1471 H         1 UNK         0.0600 
    181 H181        2.0199  -11.3626  -45.4722 H         1 UNK         0.0600 
    182 H182        2.7611  -10.5429  -44.1025 H         1 UNK         0.0600 
    183 H183        1.7886   -9.6323  -45.2453 H         1 UNK         0.0600 
    184 H184       -0.9091  -11.9089  -44.8182 H         1 UNK         0.3000 
    185 H185       -3.3705  -10.1037  -45.3022 H         1 UNK         0.0600 
    186 H186       -2.8668   -8.3845  -46.9706 H         1 UNK         0.0600 
    187 H187       -1.9889   -9.5299  -47.9710 H         1 UNK         0.0600 
    188 H188       -3.7303   -9.6985  -47.7490 H         1 UNK         0.0600 
    189 H189       -3.4820  -12.2098  -45.8684 H         1 UNK         0.3000 
    190 H190        0.4554  -22.8257  -44.2633 H         1 UNK         0.3000 
    191 H191        0.6060  -25.5909  -43.6140 H         1 UNK         0.0600 
    192 H192        2.7031  -23.6968  -44.7996 H         1 UNK         0.0600 
    193 H193        3.0424  -25.2800  -44.1087 H         1 UNK         0.0600 
    194 H194        2.4157  -23.9958  -43.0867 H         1 UNK         0.0600 
    195 H195        0.8870  -23.8717  -46.7578 H         1 UNK         0.3000 
    196 H196        1.3751  -26.2604  -48.3078 H         1 UNK         0.0600 
    197 H197        1.0523  -24.6964  -50.2285 H         1 UNK         0.0600 
    198 H198        2.1427  -24.0173  -49.0313 H         1 UNK         0.0600 
    199 H199        0.4787  -23.4493  -49.1188 H         1 UNK         0.0600 
    200 H200       -1.4929  -24.7437  -47.1051 H         1 UNK         0.3000 
    201 H201       -3.6048  -25.2259  -46.9875 H         1 UNK         0.0600 
    202 H202       -2.9783  -27.6201  -46.7212 H         1 UNK         0.0600 
    203 H203       -3.0651  -27.8544  -48.4675 H         1 UNK         0.0600 
    204 H204       -4.5133  -27.4509  -47.5591 H         1 UNK         0.0600 
    205 H205       -2.2412  -25.4588  -50.1955 H         1 UNK         0.3000 
    206 H206       -4.7025  -24.2186  -51.3959 H         1 UNK         0.0600 
    207 H207       -4.1615  -26.5066  -52.2680 H         1 UNK         0.0600 
    208 H208       -3.9624  -25.2822  -53.5093 H         1 UNK         0.0600 
    209 H209       -2.5461  -25.9587  -52.7124 H         1 UNK         0.0600 
    210 H210       -1.8963  -23.2339  -50.1233 H         1 UNK         0.3000 
    211 H211       -0.2716  -21.7157  -50.4765 H         1 UNK         0.0600 
    212 H212       -2.4046  -20.2736  -52.1201 H         1 UNK         0.0600 
    213 H213       -1.0084  -19.5386  -51.3404 H         1 UNK         0.0600 
    214 H214       -2.2872  -20.2362  -50.3595 H         1 UNK         0.0600 
    215 H215        0.2250  -23.8123  -51.9446 H         1 UNK         0.3000 
    216 H216        1.3816  -24.7390  -53.5733 H         1 UNK         0.0600 
    217 H217        3.1172  -23.4340  -54.7332 H         1 UNK         0.0600 
    218 H218        3.0247  -22.9048  -53.0629 H         1 UNK         0.0600 
    219 H219        2.3131  -21.9210  -54.3418 H         1 UNK         0.0600 
    220 H220       -1.3861  -23.4827  -54.1575 H         1 UNK         0.3000 
    221 H221       -2.9269  -23.3855  -55.6987 H         1 UNK         0.0600 
    222 H222       -1.0682  -24.7890  -57.6849 H         1 UNK         0.0600 
    223 H223       -2.1067  -25.6130  -56.5213 H         1 UNK         0.0600 
    224 H224       -2.8137  -24.6358  -57.7965 H         1 UNK         0.0600 
    225 H225       -0.5398  -21.3960  -55.4987 H         1 UNK         0.3000 
    226 H226       -0.6505  -19.9933  -58.0801 H         1 UNK         0.0600 
    227 H227        1.4892  -20.1154  -56.8394 H         1 UNK         0.0600 
    228 H228        0.9479  -18.4478  -56.9575 H         1 UNK         0.0600 
    229 H229        0.7668  -19.3241  -55.4423 H         1 UNK         0.0600 
    230 H230       -1.4966  -19.3177  -54.6515 H         1 UNK         0.3000 
    231 H231       -3.3693  -17.1514  -55.4725 H         1 UNK         0.0600 
    232 H232       -1.7203  -16.6624  -53.6756 H         1 UNK         0.0600 
    233 H233       -2.3519  -17.9898  -52.7078 H         1 UNK         0.0600 
    234 H234       -3.3626  -16.5994  -53.0625 H         1 UNK         0.0600 
    235 H235       -3.4642  -20.4750  -54.8928 H         1 UNK         0.3000 
    236 H236       -5.0018  -22.0318  -54.5226 H         1 UNK         0.0600 
    237 H237       -7.0651  -19.9336  -55.3597 H         1 UNK         0.0600 
    238 H238       -6.1055  -20.9125  -56.4690 H         1 UNK         0.0600 
    239 H239       -7.2674  -21.6794  -55.4003 H         1 UNK         0.0600 
    240 H240       -4.2804  -20.2212  -52.3026 H         1 UNK         0.3000 
    241 H241       -4.6403  -19.7634  -50.2188 H         1 UNK         0.0600 
    242 H242       -7.4147  -17.3975  -51.3909 H         1 UNK         0.3800 
    243 H243       -6.2795  -18.2728  -52.3864 H         1 UNK         0.3800 
    244 H244       -5.6706  -22.3470  -50.3237 H         1 UNK         0.0800 
    245 H245       -7.0114  -21.5147  -49.6192 H         1 UNK         0.0800 
    246 H246       -6.7800  -22.0123  -46.6493 H         1 UNK         0.0800 
    247 H247       -7.1138  -20.5128  -47.4779 H         1 UNK         0.0800 
@<TRIPOS>BOND
     1    1    2 1    
     2    1  127 1    
     3    1  128 1    
     4    1  129 1    
     5    2    3 2    
     6    2    4 am   BACKBONE|DICT|INTERRES
     7    4    5 1    
     8    4  130 1    
     9    5    6 1    
    10    5   65 1    
    11    5  131 1    
    12    6    7 1    
    13    6  132 1    
    14    6  133 1    
    15    7    8 1    
    16    8    9 1    
    17    8  134 1    
    18    8  135 1    
    19    9   10 ar   
    20    9   14 ar   
    21   10   11 ar   
    22   10  136 1    
    23   11   12 ar   
    24   11  126 1    
    25   12   13 ar   
    26   12  137 1    
    27   13   14 ar   
    28   13   15 1    
    29   14  138 1    
    30   15   16 1    
    31   15  139 1    
    32   15  140 1    
    33   16   17 1    
    34   17   18 1    
    35   17  141 1    
    36   17  142 1    
    37   18   19 1    
    38   18   67 1    
    39   18  143 1    
    40   19   20 am   BACKBONE|DICT|INTERRES
    41   19  144 1    
    42   20   21 2    
    43   20   22 1    
    44   22   23 1    
    45   22   24 1    
    46   22  145 1    
    47   23  146 1    
    48   23  147 1    
    49   23  148 1    
    50   24   25 am   BACKBONE|DICT|INTERRES
    51   24  149 1    
    52   25   26 2    
    53   25   27 1    
    54   27   28 1    
    55   27   29 1    
    56   27  150 1    
    57   28  151 1    
    58   28  152 1    
    59   28  153 1    
    60   29   30 am   BACKBONE|DICT|INTERRES
    61   29  154 1    
    62   30   31 2    
    63   30   32 1    
    64   32   33 1    
    65   32   34 1    
    66   32  155 1    
    67   33  156 1    
    68   33  157 1    
    69   33  158 1    
    70   34   35 am   BACKBONE|DICT|INTERRES
    71   34  159 1    
    72   35   36 2    
    73   35   37 1    
    74   37   38 1    
    75   37   39 1    
    76   37  160 1    
    77   38  161 1    
    78   38  162 1    
    79   38  163 1    
    80   39   40 am   BACKBONE|DICT|INTERRES
    81   39  164 1    
    82   40   41 2    
    83   40   42 1    
    84   42   43 1    
    85   42   44 1    
    86   42  165 1    
    87   43  166 1    
    88   43  167 1    
    89   43  168 1    
    90   44   45 am   BACKBONE|DICT|INTERRES
    91   44  169 1    
    92   45   46 2    
    93   45   47 1    
    94   47   48 1    
    95   47   49 1    
    96   47  170 1    
    97   48  171 1    
    98   48  172 1    
    99   48  173 1    
   100   49   50 am   BACKBONE|DICT|INTERRES
   101   49  174 1    
   102   50   51 2    
   103   50   52 1    
   104   52   53 1    
   105   52   54 1    
   106   52  175 1    
   107   53  176 1    
   108   53  177 1    
   109   53  178 1    
   110   54   55 am   BACKBONE|DICT|INTERRES
   111   54  179 1    
   112   55   56 2    
   113   55   57 1    
   114   57   58 1    
   115   57   59 1    
   116   57  180 1    
   117   58  181 1    
   118   58  182 1    
   119   58  183 1    
   120   59   60 am   BACKBONE|DICT|INTERRES
   121   59  184 1    
   122   60   61 2    
   123   60   62 1    
   124   62   63 1    
   125   62   64 1    
   126   62  185 1    
   127   63  186 1    
   128   63  187 1    
   129   63  188 1    
   130   64   65 am   BACKBONE|DICT|INTERRES
   131   64  189 1    
   132   65   66 2    
   133   67   68 2    
   134   67   69 am   BACKBONE|DICT|INTERRES
   135   69   70 1    
   136   69  190 1    
   137   70   71 1    
   138   70   72 1    
   139   70  191 1    
   140   71  192 1    
   141   71  193 1    
   142   71  194 1    
   143   72   73 2    
   144   72   74 am   BACKBONE|DICT|INTERRES
   145   74   75 1    
   146   74  195 1    
   147   75   76 1    
   148   75   77 1    
   149   75  196 1    
   150   76  197 1    
   151   76  198 1    
   152   76  199 1    
   153   77   78 2    
   154   77   79 am   BACKBONE|DICT|INTERRES
   155   79   80 1    
   156   79  200 1    
   157   80   81 1    
   158   80   82 1    
   159   80  201 1    
   160   81  202 1    
   161   81  203 1    
   162   81  204 1    
   163   82   83 2    
   164   82   84 am   BACKBONE|DICT|INTERRES
   165   84   85 1    
   166   84  205 1    
   167   85   86 1    
   168   85   87 1    
   169   85  206 1    
   170   86  207 1    
   171   86  208 1    
   172   86  209 1    
   173   87   88 2    
   174   87   89 am   BACKBONE|DICT|INTERRES
   175   89   90 1    
   176   89  210 1    
   177   90   91 1    
   178   90   92 1    
   179   90  211 1    
   180   91  212 1    
   181   91  213 1    
   182   91  214 1    
   183   92   93 2    
   184   92   94 am   BACKBONE|DICT|INTERRES
   185   94   95 1    
   186   94  215 1    
   187   95   96 1    
   188   95   97 1    
   189   95  216 1    
   190   96  217 1    
   191   96  218 1    
   192   96  219 1    
   193   97   98 2    
   194   97   99 am   BACKBONE|DICT|INTERRES
   195   99  100 1    
   196   99  220 1    
   197  100  101 1    
   198  100  102 1    
   199  100  221 1    
   200  101  222 1    
   201  101  223 1    
   202  101  224 1    
   203  102  103 2    
   204  102  104 am   BACKBONE|DICT|INTERRES
   205  104  105 1    
   206  104  225 1    
   207  105  106 1    
   208  105  107 1    
   209  105  226 1    
   210  106  227 1    
   211  106  228 1    
   212  106  229 1    
   213  107  108 2    
   214  107  109 am   BACKBONE|DICT|INTERRES
   215  109  110 1    
   216  109  230 1    
   217  110  111 1    
   218  110  112 1    
   219  110  231 1    
   220  111  232 1    
   221  111  233 1    
   222  111  234 1    
   223  112  113 2    
   224  112  114 am   BACKBONE|DICT|INTERRES
   225  114  115 1    
   226  114  235 1    
   227  115  116 1    
   228  115  117 1    
   229  115  236 1    
   230  116  237 1    
   231  116  238 1    
   232  116  239 1    
   233  117  118 2    
   234  117  119 am   BACKBONE|DICT|INTERRES
   235  119  120 1    
   236  119  240 1    
   237  120  121 1    
   238  120  124 1    
   239  120  241 1    
   240  121  122 am   BACKBONE|DICT|INTERRES
   241  121  123 2    
   242  122  242 1    
   243  122  243 1    
   244  124  125 1    
   245  124  244 1    
   246  124  245 1    
   247  125  126 1    
   248  126  246 1    
   249  126  247 1    
@<TRIPOS>SUBSTRUCTURE
     1 UNK         1 GROUP             0       ****    0 ROOT    
