@<TRIPOS>MOLECULE
3R540
247   249    1
SMALL
USER_CHARGES


@<TRIPOS>ATOM
      1 CA         -2.5264   -9.2456  -46.5980 C.3       0 UNK        -0.1800 
      2 C          -1.5897  -10.4415  -46.7047 C.2       0 UNK         0.5000 
      3 O          -1.1685  -10.9693  -45.6776 O.2       0 UNK        -0.5000 
      4 N          -1.2771  -10.8503  -47.9423 N.am      1 UNK        -0.5000 
      5 CA         -0.3940  -11.9545  -48.3410 C.3       1 UNK         0.1400 
      6 C6         -1.0844  -13.3521  -48.3391 C.3       23 UNK        -0.0398 
      7 S7         -1.4038  -14.1161  -46.7095 S.3       23 UNK        -0.2404 
      8 C8         -2.8131  -15.2262  -47.0487 C.3       23 UNK        -0.0205 
      9 C9         -2.5884  -16.2688  -48.1448 C.ar      23 UNK        -0.0193 
     10 C10        -3.7011  -16.7841  -48.8148 C.ar      23 UNK        -0.1150 
     11 C11        -3.5647  -17.7357  -49.8296 C.ar      23 UNK        -0.0193 
     12 C12        -2.2770  -18.1645  -50.1805 C.ar      23 UNK        -0.1150 
     13 C13        -1.1503  -17.6513  -49.5327 C.ar      23 UNK        -0.0193 
     14 C14        -1.3146  -16.7276  -48.4987 C.ar      23 UNK        -0.1150 
     15 C15         0.2505  -18.0437  -49.9854 C.3       23 UNK        -0.0205 
     16 S16         0.6925  -19.7593  -49.5772 S.3       23 UNK        -0.2404 
     17 C17         0.6198  -19.7517  -47.7539 C.3       23 UNK        -0.0398 
     18 CA         -0.1481  -20.9671  -47.1889 C.3       11 UNK         0.1400 
     19 N           0.0736  -21.1266  -45.7520 N.am      11 UNK        -0.5000 
     20 C          -0.2648  -22.2161  -45.0499 C.2       10 UNK         0.5000 
     21 O          -0.7997  -23.2088  -45.5424 O.2       10 UNK        -0.5000 
     22 CA          0.0052  -22.1773  -43.5371 C.3       10 UNK         0.1400 
     23 CB          1.4934  -22.4189  -43.2451 C.3       10 UNK        -0.1800 
     24 N          -0.4282  -20.9251  -42.9164 N.am      10 UNK        -0.5000 
     25 C          -1.7005  -20.5023  -42.8795 C.2       9 UNK         0.5000 
     26 O          -2.6445  -21.1273  -43.3622 O.2       9 UNK        -0.5000 
     27 CA         -1.9633  -19.1364  -42.2242 C.3       9 UNK         0.1400 
     28 CB         -1.9094  -19.2465  -40.6931 C.3       9 UNK        -0.1800 
     29 N          -1.0362  -18.1009  -42.6765 N.am      9 UNK        -0.5000 
     30 C          -0.9234  -17.6780  -43.9441 C.2       8 UNK         0.5000 
     31 O          -1.5930  -18.1141  -44.8804 O.2       8 UNK        -0.5000 
     32 CA          0.1648  -16.6265  -44.2164 C.3       8 UNK         0.1400 
     33 CB         -0.2307  -15.2650  -43.6239 C.3       8 UNK        -0.1800 
     34 N           1.4682  -17.0258  -43.6871 N.am      8 UNK        -0.5000 
     35 C           2.1232  -18.1498  -44.0123 C.2       7 UNK         0.5000 
     36 O           1.7302  -18.9634  -44.8471 O.2       7 UNK        -0.5000 
     37 CA          3.4133  -18.4387  -43.2306 C.3       7 UNK         0.1400 
     38 CB          4.5873  -17.6308  -43.8028 C.3       7 UNK        -0.1800 
     39 N           3.2575  -18.1561  -41.8032 N.am      7 UNK        -0.5000 
     40 C           2.4693  -18.8593  -40.9762 C.2       6 UNK         0.5000 
     41 O           1.8069  -19.8364  -41.3239 O.2       6 UNK        -0.5000 
     42 CA          2.3727  -18.3581  -39.5248 C.3       6 UNK         0.1400 
     43 CB          3.5892  -18.8169  -38.7069 C.3       6 UNK        -0.1800 
     44 N           2.2530  -16.9025  -39.4474 N.am      6 UNK        -0.5000 
     45 C           1.1967  -16.2075  -39.8922 C.2       5 UNK         0.5000 
     46 O           0.1922  -16.7260  -40.3787 O.2       5 UNK        -0.5000 
     47 CA          1.2987  -14.6731  -39.8162 C.3       5 UNK         0.1400 
     48 CB          0.8078  -14.1679  -38.4514 C.3       5 UNK        -0.1800 
     49 N           2.6502  -14.1633  -40.0654 N.am      5 UNK        -0.5000 
     50 C           3.3234  -14.3148  -41.2132 C.2       4 UNK         0.5000 
     51 O           2.9021  -14.9543  -42.1800 O.2       4 UNK        -0.5000 
     52 CA          4.7140  -13.6679  -41.2848 C.3       4 UNK         0.1400 
     53 CB          5.8145  -14.7358  -41.3824 C.3       4 UNK        -0.1800 
     54 N           4.7824  -12.7925  -42.4503 N.am      4 UNK        -0.5000 
     55 C           4.3837  -11.5141  -42.4573 C.2       3 UNK         0.5000 
     56 O           4.0048  -10.9098  -41.4528 O.2       3 UNK        -0.5000 
     57 CA          4.4095  -10.7851  -43.8143 C.3       3 UNK         0.1400 
     58 CB          5.7688  -10.1027  -44.0331 C.3       3 UNK        -0.1800 
     59 N           4.1226  -11.6612  -44.9536 N.am      3 UNK        -0.5000 
     60 C           2.9222  -12.1981  -45.2096 C.2       2 UNK         0.5000 
     61 O           1.9358  -12.0450  -44.4870 O.2       2 UNK        -0.5000 
     62 CA          2.8254  -13.0716  -46.4755 C.3       2 UNK         0.1400 
     63 CB          3.0952  -14.5455  -46.1306 C.3       2 UNK        -0.1800 
     64 N           1.5192  -12.9686  -47.1276 N.am      2 UNK        -0.5000 
     65 C           1.0227  -11.8701  -47.7129 C.2       1 UNK         0.5000 
     66 O           1.6579  -10.8177  -47.8208 O.2       1 UNK        -0.5000 
     67 C          -1.6493  -20.9414  -47.5424 C.2       11 UNK         0.5000 
     68 O          -2.0448  -21.5981  -48.5066 O.2       11 UNK        -0.5000 
     69 N          -2.4611  -20.2431  -46.7349 N.am      12 UNK        -0.5000 
     70 CA         -3.9163  -20.2069  -46.8740 C.3       12 UNK         0.1400 
     71 CB         -4.5031  -19.1445  -45.9334 C.3       12 UNK        -0.1800 
     72 C          -4.5693  -21.5794  -46.6281 C.2       12 UNK         0.5000 
     73 O          -5.4439  -21.9755  -47.3983 O.2       12 UNK        -0.5000 
     74 N          -4.1144  -22.2950  -45.5884 N.am      13 UNK        -0.5000 
     75 CA         -4.5735  -23.6421  -45.2396 C.3       13 UNK         0.1400 
     76 CB         -4.0126  -24.0406  -43.8661 C.3       13 UNK        -0.1800 
     77 C          -4.2085  -24.6957  -46.3014 C.2       13 UNK         0.5000 
     78 O          -5.0349  -25.5525  -46.6167 O.2       13 UNK        -0.5000 
     79 N          -2.9918  -24.5971  -46.8536 N.am      14 UNK        -0.5000 
     80 CA         -2.5020  -25.4389  -47.9473 C.3       14 UNK         0.1400 
     81 CB         -0.9677  -25.3546  -47.9880 C.3       14 UNK        -0.1800 
     82 C          -3.0830  -25.0569  -49.3227 C.2       14 UNK         0.5000 
     83 O          -2.8976  -25.8110  -50.2781 O.2       14 UNK        -0.5000 
     84 N          -3.7199  -23.8811  -49.4147 N.am      15 UNK        -0.5000 
     85 CA         -4.2298  -23.2281  -50.6228 C.3       15 UNK         0.1400 
     86 CB         -5.4582  -23.9794  -51.1738 C.3       15 UNK        -0.1800 
     87 C          -3.1245  -23.0125  -51.6781 C.2       15 UNK         0.5000 
     88 O          -3.3233  -23.3190  -52.8532 O.2       15 UNK        -0.5000 
     89 N          -1.9534  -22.5468  -51.2165 N.am      16 UNK        -0.5000 
     90 CA         -0.7060  -22.3892  -51.9752 C.3       16 UNK         0.1400 
     91 CB         -0.8017  -21.1897  -52.9382 C.3       16 UNK        -0.1800 
     92 C          -0.2613  -23.6940  -52.6744 C.2       16 UNK         0.5000 
     93 O           0.1145  -23.6748  -53.8475 O.2       16 UNK        -0.5000 
     94 N          -0.3377  -24.8039  -51.9244 N.am      17 UNK        -0.5000 
     95 CA         -0.1046  -26.1874  -52.3502 C.3       17 UNK         0.1400 
     96 CB          1.3523  -26.3998  -52.8142 C.3       17 UNK        -0.1800 
     97 C          -1.1574  -26.6591  -53.3748 C.2       17 UNK         0.5000 
     98 O          -0.8087  -27.1358  -54.4567 O.2       17 UNK        -0.5000 
     99 N          -2.4332  -26.5213  -52.9859 N.am      18 UNK        -0.5000 
    100 CA        -3.6417  -26.9358  -53.7050 C.3       18 UNK         0.1400 
    101 CB        -3.7281  -28.4754  -53.7663 C.3       18 UNK        -0.1800 
    102 C         -3.8126  -26.2648  -55.0848 C.2       18 UNK         0.5000 
    103 O         -4.2249  -26.9203  -56.0446 O.2       18 UNK        -0.5000 
    104 N         -3.5069  -24.9651  -55.1610 N.am      19 UNK        -0.5000 
    105 CA        -3.7415  -24.1310  -56.3348 C.3       19 UNK         0.1400 
    106 CB        -2.6913  -23.0122  -56.3691 C.3       19 UNK        -0.1800 
    107 C         -5.1636  -23.5482  -56.2817 C.2       19 UNK         0.5000 
    108 O         -5.6494  -23.2072  -55.1992 O.2       19 UNK        -0.5000 
    109 N         -5.8021  -23.4262  -57.4530 N.am      20 UNK        -0.5000 
    110 CA        -7.1506  -22.8815  -57.6259 C.3       20 UNK         0.1400 
    111 CB        -7.5659  -23.0173  -59.0996 C.3       20 UNK        -0.1800 
    112 C         -7.2258  -21.4175  -57.1570 C.2       20 UNK         0.5000 
    113 O         -6.6053  -20.5503  -57.7762 O.2       20 UNK        -0.5000 
    114 N         -7.9214  -21.1907  -56.0328 N.am      21 UNK        -0.5000 
    115 CA        -8.0436  -19.9156  -55.3119 C.3       21 UNK         0.1400 
    116 CB        -8.9220  -18.9309  -56.1118 C.3       21 UNK        -0.1800 
    117 C         -6.6796  -19.3086  -54.9062 C.2       21 UNK         0.5000 
    118 O         -6.5325  -18.0855  -54.8876 O.2       21 UNK        -0.5000 
    119 N         -5.7030  -20.1825  -54.6221 N.am      22 UNK        -0.5000 
    120 CA        -4.2857  -19.8632  -54.3774 C.3       22 UNK         0.1400 
    121 C         -3.5049  -19.3732  -55.6376 C.2       22 UNK         0.5000 
    122 N         -4.0379  -19.4818  -56.8495 N.am      22 UNK        -0.7600 
    123 O         -2.3725  -18.9130  -55.5248 O.2       22 UNK        -0.5000 
    124 C124       -4.0464  -18.9490  -53.1412 C.3       23 UNK        -0.0398 
    125 S125       -4.6705  -19.6935  -51.5969 S.3       23 UNK        -0.2404 
    126 C126       -4.8418  -18.2378  -50.5102 C.3       23 UNK        -0.0205 
    127 H127       -3.4288   -9.5239  -46.0535 H         1 UNK         0.0600 
    128 H128       -2.8234   -8.8715  -47.5782 H         1 UNK         0.0600 
    129 H129       -2.0383   -8.4339  -46.0585 H         1 UNK         0.0600 
    130 H130       -1.6568  -10.3263  -48.7180 H         1 UNK         0.3000 
    131 H131       -0.2038  -11.7458  -49.3951 H         1 UNK         0.0600 
    132 H132       -2.0339  -13.2783  -48.8710 H         1 UNK         0.0800 
    133 H133       -0.4835  -14.0481  -48.9257 H         1 UNK         0.0800 
    134 H134       -3.0632  -15.7513  -46.1260 H         1 UNK         0.0800 
    135 H135       -3.6769  -14.6079  -47.2977 H         1 UNK         0.0800 
    136 H136       -4.6892  -16.4401  -48.5418 H         1 UNK         0.1150 
    137 H137       -2.1316  -18.8950  -50.9583 H         1 UNK         0.1150 
    138 H138       -0.4408  -16.3508  -47.9884 H         1 UNK         0.1150 
    139 H139        0.3192  -17.9163  -51.0667 H         1 UNK         0.0800 
    140 H140        0.9981  -17.3752  -49.5554 H         1 UNK         0.0800 
    141 H141        0.1953  -18.8205  -47.3772 H         1 UNK         0.0800 
    142 H142        1.6512  -19.7721  -47.3999 H         1 UNK         0.0800 
    143 H143        0.2690  -21.8596  -47.6609 H         1 UNK         0.0600 
    144 H144        0.5269  -20.3493  -45.2771 H         1 UNK         0.3000 
    145 H145       -0.5648  -22.9886  -43.0795 H         1 UNK         0.0600 
    146 H146        1.6758  -22.4987  -42.1734 H         1 UNK         0.0600 
    147 H147        1.8368  -23.3474  -43.7030 H         1 UNK         0.0600 
    148 H148        2.1159  -21.6109  -43.6311 H         1 UNK         0.0600 
    149 H149        0.2943  -20.3651  -42.4731 H         1 UNK         0.3000 
    150 H150       -2.9705  -18.8232  -42.5067 H         1 UNK         0.0600 
    151 H151       -2.5950  -20.0136  -40.3310 H         1 UNK         0.0600 
    152 H152       -2.1946  -18.3061  -40.2213 H         1 UNK         0.0600 
    153 H153       -0.9094  -19.5052  -40.3428 H         1 UNK         0.0600 
    154 H154       -0.4546  -17.6727  -41.9618 H         1 UNK         0.3000 
    155 H155        0.2594  -16.5182  -45.2987 H         1 UNK         0.0600 
    156 H156       -1.2321  -14.9734  -43.9405 H         1 UNK         0.0600 
    157 H157        0.4551  -14.4792  -43.9408 H         1 UNK         0.0600 
    158 H158       -0.2352  -15.2824  -42.5362 H         1 UNK         0.0600 
    159 H159        1.8973  -16.3935  -43.0173 H         1 UNK         0.3000 
    160 H160        3.6449  -19.5002  -43.3415 H         1 UNK         0.0600 
    161 H161        4.3897  -16.5592  -43.7800 H         1 UNK         0.0600 
    162 H162        4.7724  -17.9028  -44.8427 H         1 UNK         0.0600 
    163 H163        5.5069  -17.8187  -43.2486 H         1 UNK         0.0600 
    164 H164        3.7199  -17.3323  -41.4499 H         1 UNK         0.3000 
    165 H165        1.4769  -18.7969  -39.0798 H         1 UNK         0.0600 
    166 H166        3.4896  -18.5320  -37.6594 H         1 UNK         0.0600 
    167 H167        3.6931  -19.9023  -38.7390 H         1 UNK         0.0600 
    168 H168        4.5175  -18.3868  -39.0852 H         1 UNK         0.0600 
    169 H169        3.0348  -16.3960  -39.0592 H         1 UNK         0.3000 
    170 H170        0.6435  -14.2595  -40.5849 H         1 UNK         0.0600 
    171 H171       -0.2062  -14.5154  -38.2485 H         1 UNK         0.0600 
    172 H172        1.4441  -14.5191  -37.6381 H         1 UNK         0.0600 
    173 H173        0.7887  -13.0784  -38.4173 H         1 UNK         0.0600 
    174 H174        3.0680  -13.6221  -39.3221 H         1 UNK         0.3000 
    175 H175        4.8905  -13.0873  -40.3766 H         1 UNK         0.0600 
    176 H176        5.7379  -15.3164  -42.3010 H         1 UNK         0.0600 
    177 H177        6.8042  -14.2793  -41.3613 H         1 UNK         0.0600 
    178 H178        5.7607  -15.4328  -40.5451 H         1 UNK         0.0600 
    179 H179        5.0245  -13.2265  -43.3283 H         1 UNK         0.3000 
    180 H180        3.6422  -10.0083  -43.7839 H         1 UNK         0.0600 
    181 H181        6.5796  -10.8295  -44.0965 H         1 UNK         0.0600 
    182 H182        6.0010   -9.4231  -43.2119 H         1 UNK         0.0600 
    183 H183        5.7719   -9.5137  -44.9505 H         1 UNK         0.0600 
    184 H184        4.8867  -11.8356  -45.5905 H         1 UNK         0.3000 
    185 H185        3.5806  -12.7385  -47.1904 H         1 UNK         0.0600 
    186 H186        4.0855  -14.6708  -45.6913 H         1 UNK         0.0600 
    187 H187        2.3711  -14.9265  -45.4110 H         1 UNK         0.0600 
    188 H188        3.0512  -15.1771  -47.0181 H         1 UNK         0.0600 
    189 H189        0.8959  -13.7547  -47.0073 H         1 UNK         0.3000 
    190 H190       -2.0640  -19.6912  -45.9798 H         1 UNK         0.3000 
    191 H191       -4.1431  -19.9121  -47.9005 H         1 UNK         0.0600 
    192 H192       -4.1038  -18.1562  -46.1601 H         1 UNK         0.0600 
    193 H193       -5.5875  -19.0884  -46.0342 H         1 UNK         0.0600 
    194 H194       -4.2781  -19.3627  -44.8889 H         1 UNK         0.0600 
    195 H195       -3.4221  -21.8797  -44.9705 H         1 UNK         0.3000 
    196 H196       -5.6624  -23.6132  -45.1638 H         1 UNK         0.0600 
    197 H197       -4.3451  -25.0396  -43.5817 H         1 UNK         0.0600 
    198 H198       -4.3486  -23.3532  -43.0896 H         1 UNK         0.0600 
    199 H199       -2.9221  -24.0424  -43.8617 H         1 UNK         0.0600 
    200 H200       -2.3415  -23.9055  -46.4889 H         1 UNK         0.3000 
    201 H201       -2.7839  -26.4745  -47.7469 H         1 UNK         0.0600 
    202 H202       -0.5314  -25.6638  -47.0379 H         1 UNK         0.0600 
    203 H203       -0.6277  -24.3392  -48.1965 H         1 UNK         0.0600 
    204 H204       -0.5564  -26.0066  -48.7596 H         1 UNK         0.0600 
    205 H205       -3.7727  -23.3198  -48.5749 H         1 UNK         0.3000 
    206 H206       -4.5606  -22.2395  -50.3070 H         1 UNK         0.0600 
    207 H207       -6.2396  -24.0590  -50.4183 H         1 UNK         0.0600 
    208 H208       -5.8850  -23.4545  -52.0297 H         1 UNK         0.0600 
    209 H209       -5.2043  -24.9871  -51.5006 H         1 UNK         0.0600 
    210 H210       -1.9109  -22.2888  -50.2318 H         1 UNK         0.3000 
    211 H211        0.0700  -22.1628  -51.2438 H         1 UNK         0.0600 
    212 H212       -1.5466  -21.3531  -53.7150 H         1 UNK         0.0600 
    213 H213        0.1525  -21.0079  -53.4335 H         1 UNK         0.0600 
    214 H214       -1.0639  -20.2776  -52.4058 H         1 UNK         0.0600 
    215 H215       -0.7116  -24.7022  -50.9922 H         1 UNK         0.3000 
    216 H216       -0.2507  -26.8042  -51.4620 H         1 UNK         0.0600 
    217 H217        1.5480  -27.4561  -53.0014 H         1 UNK         0.0600 
    218 H218        2.0602  -26.0683  -52.0546 H         1 UNK         0.0600 
    219 H219        1.5728  -25.8621  -53.7365 H         1 UNK         0.0600 
    220 H220       -2.6016  -26.1271  -52.0620 H         1 UNK         0.3000 
    221 H221       -4.4817  -26.5896  -53.1025 H         1 UNK         0.0600 
    222 H222       -2.9422  -28.9002  -54.3915 H         1 UNK         0.0600 
    223 H223       -3.6405  -28.9143  -52.7724 H         1 UNK         0.0600 
    224 H224       -4.6848  -28.7984  -54.1781 H         1 UNK         0.0600 
    225 H225       -3.2795  -24.4633  -54.3039 H         1 UNK         0.3000 
    226 H226       -3.6324  -24.7291  -57.2419 H         1 UNK         0.0600 
    227 H227       -1.6838  -23.4212  -56.4480 H         1 UNK         0.0600 
    228 H228       -2.8458  -22.3509  -57.2225 H         1 UNK         0.0600 
    229 H229       -2.7290  -22.4030  -55.4677 H         1 UNK         0.0600 
    230 H230       -5.3233  -23.6986  -58.2990 H         1 UNK         0.3000 
    231 H231       -7.8361  -23.4831  -57.0255 H         1 UNK         0.0600 
    232 H232       -6.8895  -22.4757  -59.7622 H         1 UNK         0.0600 
    233 H233       -8.5692  -22.6202  -59.2594 H         1 UNK         0.0600 
    234 H234       -7.5770  -24.0617  -59.4121 H         1 UNK         0.0600 
    235 H235       -8.3484  -21.9842  -55.5747 H         1 UNK         0.3000 
    236 H236       -8.5626  -20.1382  -54.3786 H         1 UNK         0.0600 
    237 H237       -9.8811  -19.3791  -56.3710 H         1 UNK         0.0600 
    238 H238       -9.1326  -18.0320  -55.5313 H         1 UNK         0.0600 
    239 H239       -8.4375  -18.6171  -57.0369 H         1 UNK         0.0600 
    240 H240       -5.9095  -21.1735  -54.6890 H         1 UNK         0.3000 
    241 H241       -3.8326  -20.8255  -54.1425 H         1 UNK         0.0600 
    242 H242       -3.5066  -19.1645  -57.6442 H         1 UNK         0.3800 
    243 H243       -4.9734  -19.8487  -56.9952 H         1 UNK         0.3800 
    244 H244       -2.9810  -18.7617  -53.0111 H         1 UNK         0.0800 
    245 H245       -4.5034  -17.9705  -53.2884 H         1 UNK         0.0800 
    246 H246       -5.2923  -17.4193  -51.0730 H         1 UNK         0.0800 
    247 H247       -5.5605  -18.5026  -49.7332 H         1 UNK         0.0800 
@<TRIPOS>BOND
     1    1    2 1    
     2    1  127 1    
     3    1  128 1    
     4    1  129 1    
     5    2    3 2    
     6    2    4 am   BACKBONE|DICT|INTERRES
     7    4    5 1    
     8    4  130 1    
     9    5    6 1    
    10    5   65 1    
    11    5  131 1    
    12    6    7 1    
    13    6  132 1    
    14    6  133 1    
    15    7    8 1    
    16    8    9 1    
    17    8  134 1    
    18    8  135 1    
    19    9   10 ar   
    20    9   14 ar   
    21   10   11 ar   
    22   10  136 1    
    23   11   12 ar   
    24   11  126 1    
    25   12   13 ar   
    26   12  137 1    
    27   13   14 ar   
    28   13   15 1    
    29   14  138 1    
    30   15   16 1    
    31   15  139 1    
    32   15  140 1    
    33   16   17 1    
    34   17   18 1    
    35   17  141 1    
    36   17  142 1    
    37   18   19 1    
    38   18   67 1    
    39   18  143 1    
    40   19   20 am   BACKBONE|DICT|INTERRES
    41   19  144 1    
    42   20   21 2    
    43   20   22 1    
    44   22   23 1    
    45   22   24 1    
    46   22  145 1    
    47   23  146 1    
    48   23  147 1    
    49   23  148 1    
    50   24   25 am   BACKBONE|DICT|INTERRES
    51   24  149 1    
    52   25   26 2    
    53   25   27 1    
    54   27   28 1    
    55   27   29 1    
    56   27  150 1    
    57   28  151 1    
    58   28  152 1    
    59   28  153 1    
    60   29   30 am   BACKBONE|DICT|INTERRES
    61   29  154 1    
    62   30   31 2    
    63   30   32 1    
    64   32   33 1    
    65   32   34 1    
    66   32  155 1    
    67   33  156 1    
    68   33  157 1    
    69   33  158 1    
    70   34   35 am   BACKBONE|DICT|INTERRES
    71   34  159 1    
    72   35   36 2    
    73   35   37 1    
    74   37   38 1    
    75   37   39 1    
    76   37  160 1    
    77   38  161 1    
    78   38  162 1    
    79   38  163 1    
    80   39   40 am   BACKBONE|DICT|INTERRES
    81   39  164 1    
    82   40   41 2    
    83   40   42 1    
    84   42   43 1    
    85   42   44 1    
    86   42  165 1    
    87   43  166 1    
    88   43  167 1    
    89   43  168 1    
    90   44   45 am   BACKBONE|DICT|INTERRES
    91   44  169 1    
    92   45   46 2    
    93   45   47 1    
    94   47   48 1    
    95   47   49 1    
    96   47  170 1    
    97   48  171 1    
    98   48  172 1    
    99   48  173 1    
   100   49   50 am   BACKBONE|DICT|INTERRES
   101   49  174 1    
   102   50   51 2    
   103   50   52 1    
   104   52   53 1    
   105   52   54 1    
   106   52  175 1    
   107   53  176 1    
   108   53  177 1    
   109   53  178 1    
   110   54   55 am   BACKBONE|DICT|INTERRES
   111   54  179 1    
   112   55   56 2    
   113   55   57 1    
   114   57   58 1    
   115   57   59 1    
   116   57  180 1    
   117   58  181 1    
   118   58  182 1    
   119   58  183 1    
   120   59   60 am   BACKBONE|DICT|INTERRES
   121   59  184 1    
   122   60   61 2    
   123   60   62 1    
   124   62   63 1    
   125   62   64 1    
   126   62  185 1    
   127   63  186 1    
   128   63  187 1    
   129   63  188 1    
   130   64   65 am   BACKBONE|DICT|INTERRES
   131   64  189 1    
   132   65   66 2    
   133   67   68 2    
   134   67   69 am   BACKBONE|DICT|INTERRES
   135   69   70 1    
   136   69  190 1    
   137   70   71 1    
   138   70   72 1    
   139   70  191 1    
   140   71  192 1    
   141   71  193 1    
   142   71  194 1    
   143   72   73 2    
   144   72   74 am   BACKBONE|DICT|INTERRES
   145   74   75 1    
   146   74  195 1    
   147   75   76 1    
   148   75   77 1    
   149   75  196 1    
   150   76  197 1    
   151   76  198 1    
   152   76  199 1    
   153   77   78 2    
   154   77   79 am   BACKBONE|DICT|INTERRES
   155   79   80 1    
   156   79  200 1    
   157   80   81 1    
   158   80   82 1    
   159   80  201 1    
   160   81  202 1    
   161   81  203 1    
   162   81  204 1    
   163   82   83 2    
   164   82   84 am   BACKBONE|DICT|INTERRES
   165   84   85 1    
   166   84  205 1    
   167   85   86 1    
   168   85   87 1    
   169   85  206 1    
   170   86  207 1    
   171   86  208 1    
   172   86  209 1    
   173   87   88 2    
   174   87   89 am   BACKBONE|DICT|INTERRES
   175   89   90 1    
   176   89  210 1    
   177   90   91 1    
   178   90   92 1    
   179   90  211 1    
   180   91  212 1    
   181   91  213 1    
   182   91  214 1    
   183   92   93 2    
   184   92   94 am   BACKBONE|DICT|INTERRES
   185   94   95 1    
   186   94  215 1    
   187   95   96 1    
   188   95   97 1    
   189   95  216 1    
   190   96  217 1    
   191   96  218 1    
   192   96  219 1    
   193   97   98 2    
   194   97   99 am   BACKBONE|DICT|INTERRES
   195   99  100 1    
   196   99  220 1    
   197  100  101 1    
   198  100  102 1    
   199  100  221 1    
   200  101  222 1    
   201  101  223 1    
   202  101  224 1    
   203  102  103 2    
   204  102  104 am   BACKBONE|DICT|INTERRES
   205  104  105 1    
   206  104  225 1    
   207  105  106 1    
   208  105  107 1    
   209  105  226 1    
   210  106  227 1    
   211  106  228 1    
   212  106  229 1    
   213  107  108 2    
   214  107  109 am   BACKBONE|DICT|INTERRES
   215  109  110 1    
   216  109  230 1    
   217  110  111 1    
   218  110  112 1    
   219  110  231 1    
   220  111  232 1    
   221  111  233 1    
   222  111  234 1    
   223  112  113 2    
   224  112  114 am   BACKBONE|DICT|INTERRES
   225  114  115 1    
   226  114  235 1    
   227  115  116 1    
   228  115  117 1    
   229  115  236 1    
   230  116  237 1    
   231  116  238 1    
   232  116  239 1    
   233  117  118 2    
   234  117  119 am   BACKBONE|DICT|INTERRES
   235  119  120 1    
   236  119  240 1    
   237  120  121 1    
   238  120  124 1    
   239  120  241 1    
   240  121  122 am   BACKBONE|DICT|INTERRES
   241  121  123 2    
   242  122  242 1    
   243  122  243 1    
   244  124  125 1    
   245  124  244 1    
   246  124  245 1    
   247  125  126 1    
   248  126  246 1    
   249  126  247 1    
@<TRIPOS>SUBSTRUCTURE
     1 UNK         1 GROUP             0       ****    0 ROOT    
