@<TRIPOS>MOLECULE
3R540
247   249    1
SMALL
USER_CHARGES


@<TRIPOS>ATOM
      1 CA         -3.7420  -13.4476  -47.1287 C.3       0 UNK        -0.1800 
      2 C          -2.8964  -12.9459  -48.2898 C.2       0 UNK         0.5000 
      3 O          -3.3896  -12.1769  -49.1149 O.2       0 UNK        -0.5000 
      4 N          -1.6360  -13.3877  -48.3567 N.am      1 UNK        -0.5000 
      5 CA         -0.6553  -12.9979  -49.3706 C.3       1 UNK         0.1400 
      6 C6          0.1484  -14.2177  -49.8972 C.3       23 UNK        -0.0398 
      7 S7          0.9463  -15.2490  -48.6082 S.3       23 UNK        -0.2404 
      8 C8          2.3826  -15.9048  -49.5151 C.3       23 UNK        -0.0205 
      9 C9          2.0003  -17.0305  -50.4680 C.ar      23 UNK        -0.0193 
     10 C10         1.5192  -16.7487  -51.7496 C.ar      23 UNK        -0.1150 
     11 C11         1.2019  -17.7815  -52.6373 C.ar      23 UNK        -0.0193 
     12 C12         1.3708  -19.1090  -52.2281 C.ar      23 UNK        -0.1150 
     13 C13         1.8474  -19.4121  -50.9484 C.ar      23 UNK        -0.0193 
     14 C14         2.1635  -18.3615  -50.0772 C.ar      23 UNK        -0.1150 
     15 C15         2.0885  -20.8748  -50.5726 C.3       23 UNK        -0.0205 
     16 S16         1.9860  -21.2389  -48.7845 S.3       23 UNK        -0.2404 
     17 C17         0.2204  -21.6318  -48.5533 C.3       23 UNK        -0.0398 
     18 CA          0.0549  -22.8409  -47.6051 C.3       11 UNK         0.1400 
     19 N           0.4868  -22.5212  -46.2440 N.am      11 UNK        -0.5000 
     20 C           0.7755  -23.4233  -45.2992 C.2       10 UNK         0.5000 
     21 O           0.7278  -24.6399  -45.4770 O.2       10 UNK        -0.5000 
     22 CA          1.1364  -22.8639  -43.9107 C.3       10 UNK         0.1400 
     23 CB          2.6257  -22.4955  -43.8479 C.3       10 UNK        -0.1800 
     24 N           0.3245  -21.6983  -43.5488 N.am      10 UNK        -0.5000 
     25 C          -1.0005  -21.7527  -43.3455 C.2       9 UNK         0.5000 
     26 O          -1.6530  -22.7944  -43.4004 O.2       9 UNK        -0.5000 
     27 CA         -1.7365  -20.4278  -43.0865 C.3       9 UNK         0.1400 
     28 CB         -1.7163  -20.0755  -41.5932 C.3       9 UNK        -0.1800 
     29 N          -1.2217  -19.3047  -43.8702 N.am      9 UNK        -0.5000 
     30 C          -1.2556  -19.2293  -45.2084 C.2       8 UNK         0.5000 
     31 O          -1.6515  -20.1419  -45.9349 O.2       8 UNK        -0.5000 
     32 CA         -0.7625  -17.9237  -45.8459 C.3       8 UNK         0.1400 
     33 CB         -1.8752  -16.8666  -45.8482 C.3       8 UNK        -0.1800 
     34 N           0.4054  -17.3941  -45.1521 N.am      8 UNK        -0.5000 
     35 C           1.6693  -17.6378  -45.5203 C.2       7 UNK         0.5000 
     36 O           1.9868  -18.3164  -46.4958 O.2       7 UNK        -0.5000 
     37 CA          2.7718  -17.0403  -44.6274 C.3       7 UNK         0.1400 
     38 CB          3.0293  -15.5750  -45.0171 C.3       7 UNK        -0.1800 
     39 N           2.4693  -17.1160  -43.1957 N.am      7 UNK        -0.5000 
     40 C           2.2153  -18.2434  -42.5140 C.2       6 UNK         0.5000 
     41 O           2.2118  -19.3692  -43.0125 O.2       6 UNK        -0.5000 
     42 CA          1.8586  -18.0846  -41.0245 C.3       6 UNK         0.1400 
     43 CB          3.1356  -18.0756  -40.1708 C.3       6 UNK        -0.1800 
     44 N           1.0513  -16.9044  -40.6906 N.am      6 UNK        -0.5000 
     45 C          -0.0810  -16.5009  -41.2869 C.2       5 UNK         0.5000 
     46 O          -0.5380  -17.0297  -42.3024 O.2       5 UNK        -0.5000 
     47 CA         -0.8261  -15.3121  -40.6399 C.3       5 UNK         0.1400 
     48 CB          0.0373  -14.4991  -39.6534 C.3       5 UNK        -0.1800 
     49 N          -1.3424  -14.4002  -41.6564 N.am      5 UNK        -0.5000 
     50 C          -2.4983  -14.5294  -42.3222 C.2       4 UNK         0.5000 
     51 O          -3.3147  -15.4270  -42.1113 O.2       4 UNK        -0.5000 
     52 CA         -2.8088  -13.4600  -43.3907 C.3       4 UNK         0.1400 
     53 CB         -4.0418  -12.6320  -42.9943 C.3       4 UNK        -0.1800 
     54 N          -1.6844  -12.5460  -43.6187 N.am      4 UNK        -0.5000 
     55 C          -0.6857  -12.7730  -44.4783 C.2       3 UNK         0.5000 
     56 O          -0.6423  -13.7356  -45.2497 O.2       3 UNK        -0.5000 
     57 CA          0.4753  -11.7705  -44.4446 C.3       3 UNK         0.1400 
     58 CB          1.4354  -12.0701  -43.2791 C.3       3 UNK        -0.1800 
     59 N           1.1803  -11.8750  -45.7110 N.am      3 UNK        -0.5000 
     60 C           1.8989  -10.9176  -46.3055 C.2       2 UNK         0.5000 
     61 O           2.1713   -9.8359  -45.7835 O.2       2 UNK        -0.5000 
     62 CA          2.3638  -11.2135  -47.7456 C.3       2 UNK         0.1400 
     63 CB          3.7754  -11.8200  -47.7415 C.3       2 UNK        -0.1800 
     64 N           1.4581  -12.1270  -48.4474 N.am      2 UNK        -0.5000 
     65 C           0.2004  -11.8413  -48.8116 C.2       1 UNK         0.5000 
     66 O          -0.2977  -10.7201  -48.6967 O.2       1 UNK        -0.5000 
     67 C          -1.3820  -23.3981  -47.6130 C.2       11 UNK         0.5000 
     68 O          -1.6500  -24.3705  -48.3186 O.2       11 UNK        -0.5000 
     69 N          -2.2697  -22.8225  -46.7891 N.am      12 UNK        -0.5000 
     70 CA         -3.6283  -23.3188  -46.5608 C.3       12 UNK         0.1400 
     71 CB         -4.4151  -22.3094  -45.7137 C.3       12 UNK        -0.1800 
     72 C          -3.6498  -24.7219  -45.9268 C.2       12 UNK         0.5000 
     73 O          -4.4024  -25.5786  -46.3901 O.2       12 UNK        -0.5000 
     74 N          -2.7841  -24.9563  -44.9298 N.am      13 UNK        -0.5000 
     75 CA         -2.5835  -26.2590  -44.2863 C.3       13 UNK         0.1400 
     76 CB         -1.6606  -26.0931  -43.0699 C.3       13 UNK        -0.1800 
     77 C          -2.0321  -27.3341  -45.2446 C.2       13 UNK         0.5000 
     78 O          -2.3821  -28.5066  -45.1084 O.2       13 UNK        -0.5000 
     79 N          -1.2164  -26.9109  -46.2194 N.am      14 UNK        -0.5000 
     80 CA         -0.6957  -27.7408  -47.3080 C.3       14 UNK         0.1400 
     81 CB          0.5868  -27.0908  -47.8538 C.3       14 UNK        -0.1800 
     82 C          -1.7139  -27.9816  -48.4453 C.2       14 UNK         0.5000 
     83 O          -1.3893  -28.7061  -49.3871 O.2       14 UNK        -0.5000 
     84 N          -2.9085  -27.3749  -48.3523 N.am      15 UNK        -0.5000 
     85 CA         -4.0070  -27.4036  -49.3250 C.3       15 UNK         0.1400 
     86 CB         -4.5656  -28.8319  -49.4975 C.3       15 UNK        -0.1800 
     87 C          -3.6487  -26.7213  -50.6627 C.2       15 UNK         0.5000 
     88 O          -4.1347  -27.1293  -51.7189 O.2       15 UNK        -0.5000 
     89 N          -2.8178  -25.6768  -50.5860 N.am      16 UNK        -0.5000 
     90 CA         -2.3584  -24.8518  -51.6989 C.3       16 UNK         0.1400 
     91 CB         -0.8898  -25.2076  -51.9982 C.3       16 UNK        -0.1800 
     92 C          -2.5531  -23.3743  -51.3176 C.2       16 UNK         0.5000 
     93 O          -1.6163  -22.5845  -51.4273 O.2       16 UNK        -0.5000 
     94 N          -3.7581  -23.0597  -50.8132 N.am      17 UNK        -0.5000 
     95 CA         -4.1622  -21.8094  -50.1621 C.3       17 UNK         0.1400 
     96 CB         -5.6888  -21.8038  -49.9936 C.3       17 UNK        -0.1800 
     97 C          -3.6906  -20.5326  -50.8761 C.2       17 UNK         0.5000 
     98 O          -4.0523  -20.3068  -52.0334 O.2       17 UNK        -0.5000 
     99 N          -2.8785  -19.7404  -50.1676 N.am      18 UNK        -0.5000 
    100 CA        -2.2505  -18.5186  -50.6589 C.3       18 UNK         0.1400 
    101 CB        -1.3500  -17.9588  -49.5587 C.3       18 UNK        -0.1800 
    102 C         -3.2775  -17.4571  -51.0798 C.2       18 UNK         0.5000 
    103 O         -4.2984  -17.2951  -50.4074 O.2       18 UNK        -0.5000 
    104 N         -2.9930  -16.7775  -52.1970 N.am      19 UNK        -0.5000 
    105 CA        -3.8034  -15.7737  -52.9001 C.3       19 UNK         0.1400 
    106 CB        -4.0953  -14.5550  -52.0032 C.3       19 UNK        -0.1800 
    107 C         -5.0949  -16.3319  -53.5364 C.2       19 UNK         0.5000 
    108 O         -5.4562  -15.9069  -54.6342 O.2       19 UNK        -0.5000 
    109 N         -5.7560  -17.2768  -52.8575 N.am      20 UNK        -0.5000 
    110 CA        -6.9551  -17.9768  -53.3096 C.3       20 UNK         0.1400 
    111 CB        -7.5660  -18.7375  -52.1226 C.3       20 UNK        -0.1800 
    112 C         -6.6837  -18.9358  -54.4823 C.2       20 UNK         0.5000 
    113 O         -7.5099  -19.0201  -55.3924 O.2       20 UNK        -0.5000 
    114 N         -5.5434  -19.6371  -54.4422 N.am      21 UNK        -0.5000 
    115 CA        -5.1434  -20.6154  -55.4524 C.3       21 UNK         0.1400 
    116 CB        -5.7121  -21.9986  -55.0882 C.3       21 UNK        -0.1800 
    117 C         -3.6195  -20.6845  -55.6277 C.2       21 UNK         0.5000 
    118 O         -3.1535  -20.7857  -56.7626 O.2       21 UNK        -0.5000 
    119 N         -2.8760  -20.6564  -54.5127 N.am      22 UNK        -0.5000 
    120 CA        -1.4103  -20.8135  -54.4240 C.3       22 UNK         0.1400 
    121 C         -0.8737  -22.2291  -54.8084 C.2       22 UNK         0.5000 
    122 N         -1.7169  -23.2282  -55.0430 N.am      22 UNK        -0.7600 
    123 O          0.3349  -22.4377  -54.8694 O.2       22 UNK        -0.5000 
    124 C124       -0.6264  -19.6804  -55.1456 C.3       23 UNK        -0.0398 
    125 S125       -0.9421  -18.0308  -54.4280 S.3       23 UNK        -0.2404 
    126 C126        0.7446  -17.4473  -54.0535 C.3       23 UNK        -0.0205 
    127 H127       -3.2831  -14.3074  -46.6426 H         1 UNK         0.0600 
    128 H128       -4.7280  -13.7493  -47.4819 H         1 UNK         0.0600 
    129 H129       -3.8683  -12.6582  -46.3880 H         1 UNK         0.0600 
    130 H130       -1.2781  -13.9771  -47.6158 H         1 UNK         0.3000 
    131 H131       -1.1763  -12.5841  -50.2367 H         1 UNK         0.0600 
    132 H132       -0.5262  -14.8593  -50.4644 H         1 UNK         0.0800 
    133 H133        0.8960  -13.8807  -50.6168 H         1 UNK         0.0800 
    134 H134        2.8846  -15.1035  -50.0589 H         1 UNK         0.0800 
    135 H135        3.1070  -16.2705  -48.7855 H         1 UNK         0.0800 
    136 H136        1.4131  -15.7210  -52.0648 H         1 UNK         0.1150 
    137 H137        1.1558  -19.9137  -52.9150 H         1 UNK         0.1150 
    138 H138        2.5544  -18.5716  -49.0923 H         1 UNK         0.1150 
    139 H139        1.4049  -21.5274  -51.1186 H         1 UNK         0.0800 
    140 H140        3.0912  -21.1392  -50.9100 H         1 UNK         0.0800 
    141 H141       -0.2242  -21.8401  -49.5235 H         1 UNK         0.0800 
    142 H142       -0.2903  -20.7523  -48.1617 H         1 UNK         0.0800 
    143 H143        0.6960  -23.6434  -47.9771 H         1 UNK         0.0600 
    144 H144        0.5294  -21.5411  -46.0056 H         1 UNK         0.3000 
    145 H145        0.9485  -23.6495  -43.1760 H         1 UNK         0.0600 
    146 H146        2.9079  -22.1665  -42.8476 H         1 UNK         0.0600 
    147 H147        3.2516  -23.3531  -44.0975 H         1 UNK         0.0600 
    148 H148        2.8716  -21.6936  -44.5454 H         1 UNK         0.0600 
    149 H149        0.8076  -20.8086  -43.4740 H         1 UNK         0.3000 
    150 H150       -2.7785  -20.5710  -43.3781 H         1 UNK         0.0600 
    151 H151       -2.1639  -20.8729  -40.9987 H         1 UNK         0.0600 
    152 H152       -2.2811  -19.1644  -41.3939 H         1 UNK         0.0600 
    153 H153       -0.7009  -19.9281  -41.2304 H         1 UNK         0.0600 
    154 H154       -0.9031  -18.4950  -43.3426 H         1 UNK         0.3000 
    155 H155       -0.5028  -18.1427  -46.8818 H         1 UNK         0.0600 
    156 H156       -2.1310  -16.5451  -44.8378 H         1 UNK         0.0600 
    157 H157       -1.5654  -15.9880  -46.4128 H         1 UNK         0.0600 
    158 H158       -2.7836  -17.2493  -46.3149 H         1 UNK         0.0600 
    159 H159        0.2326  -16.8802  -44.2968 H         1 UNK         0.3000 
    160 H160        3.6866  -17.6104  -44.8013 H         1 UNK         0.0600 
    161 H161        3.8424  -15.1436  -44.4332 H         1 UNK         0.0600 
    162 H162        2.1417  -14.9585  -44.8694 H         1 UNK         0.0600 
    163 H163        3.3067  -15.4955  -46.0692 H         1 UNK         0.0600 
    164 H164        2.4301  -16.2415  -42.6943 H         1 UNK         0.3000 
    165 H165        1.2784  -18.9614  -40.7374 H         1 UNK         0.0600 
    166 H166        2.9001  -18.0931  -39.1066 H         1 UNK         0.0600 
    167 H167        3.7520  -18.9514  -40.3788 H         1 UNK         0.0600 
    168 H168        3.7440  -17.1918  -40.3664 H         1 UNK         0.0600 
    169 H169        1.3523  -16.3915  -39.8747 H         1 UNK         0.3000 
    170 H170       -1.6652  -15.7321  -40.0818 H         1 UNK         0.0600 
    171 H171       -0.5238  -13.6561  -39.2493 H         1 UNK         0.0600 
    172 H172        0.9334  -14.0994  -40.1305 H         1 UNK         0.0600 
    173 H173        0.3486  -15.1034  -38.8004 H         1 UNK         0.0600 
    174 H174       -0.7361  -13.6403  -41.9209 H         1 UNK         0.3000 
    175 H175       -3.0409  -13.9931  -44.3135 H         1 UNK         0.0600 
    176 H176       -4.2937  -11.9062  -43.7677 H         1 UNK         0.0600 
    177 H177       -3.8799  -12.0889  -42.0625 H         1 UNK         0.0600 
    178 H178       -4.9150  -13.2707  -42.8549 H         1 UNK         0.0600 
    179 H179       -1.6541  -11.7226  -43.0337 H         1 UNK         0.3000 
    180 H180        0.0653  -10.7637  -44.3406 H         1 UNK         0.0600 
    181 H181        1.8366  -13.0823  -43.3364 H         1 UNK         0.0600 
    182 H182        0.9316  -11.9687  -42.3175 H         1 UNK         0.0600 
    183 H183        2.2781  -11.3787  -43.2742 H         1 UNK         0.0600 
    184 H184        0.9675  -12.7234  -46.2208 H         1 UNK         0.3000 
    185 H185        2.3922  -10.2680  -48.2911 H         1 UNK         0.0600 
    186 H186        3.8009  -12.7775  -47.2191 H         1 UNK         0.0600 
    187 H187        4.1386  -11.9814  -48.7566 H         1 UNK         0.0600 
    188 H188        4.4839  -11.1558  -47.2449 H         1 UNK         0.0600 
    189 H189        1.7754  -13.0815  -48.5535 H         1 UNK         0.3000 
    190 H190       -1.9911  -21.9933  -46.2711 H         1 UNK         0.3000 
    191 H191       -4.1221  -23.4002  -47.5303 H         1 UNK         0.0600 
    192 H192       -4.4329  -21.3268  -46.1856 H         1 UNK         0.0600 
    193 H193       -5.4499  -22.6300  -45.5879 H         1 UNK         0.0600 
    194 H194       -3.9848  -22.1958  -44.7192 H         1 UNK         0.0600 
    195 H195       -2.2380  -24.1815  -44.5614 H         1 UNK         0.3000 
    196 H196       -3.5557  -26.6054  -43.9296 H         1 UNK         0.0600 
    197 H197       -1.5125  -27.0447  -42.5580 H         1 UNK         0.0600 
    198 H198       -2.0845  -25.3971  -42.3457 H         1 UNK         0.0600 
    199 H199       -0.6784  -25.7184  -43.3583 H         1 UNK         0.0600 
    200 H200       -0.9364  -25.9377  -46.2244 H         1 UNK         0.3000 
    201 H201       -0.4298  -28.7188  -46.9020 H         1 UNK         0.0600 
    202 H202        1.3221  -26.9426  -47.0628 H         1 UNK         0.0600 
    203 H203        0.3851  -26.1218  -48.3097 H         1 UNK         0.0600 
    204 H204        1.0525  -27.7185  -48.6143 H         1 UNK         0.0600 
    205 H205       -3.0772  -26.7908  -47.5420 H         1 UNK         0.3000 
    206 H206       -4.8029  -26.7979  -48.8899 H         1 UNK         0.0600 
    207 H207       -4.8079  -29.2791  -48.5334 H         1 UNK         0.0600 
    208 H208       -5.4817  -28.8235  -50.0890 H         1 UNK         0.0600 
    209 H209       -3.8579  -29.4881  -50.0044 H         1 UNK         0.0600 
    210 H210       -2.4731  -25.3853  -49.6728 H         1 UNK         0.3000 
    211 H211       -2.9550  -25.0346  -52.5946 H         1 UNK         0.0600 
    212 H212       -0.2513  -25.0259  -51.1325 H         1 UNK         0.0600 
    213 H213       -0.4986  -24.6155  -52.8255 H         1 UNK         0.0600 
    214 H214       -0.7886  -26.2576  -52.2728 H         1 UNK         0.0600 
    215 H215       -4.4461  -23.7972  -50.7924 H         1 UNK         0.3000 
    216 H216       -3.7166  -21.8183  -49.1674 H         1 UNK         0.0600 
    217 H217       -6.0263  -20.8872  -49.5077 H         1 UNK         0.0600 
    218 H218       -6.0228  -22.6385  -49.3771 H         1 UNK         0.0600 
    219 H219       -6.1974  -21.8716  -50.9563 H         1 UNK         0.0600 
    220 H220       -2.6720  -19.9854  -49.2118 H         1 UNK         0.3000 
    221 H221       -1.6318  -18.7869  -51.5173 H         1 UNK         0.0600 
    222 H222       -1.9266  -17.6584  -48.6843 H         1 UNK         0.0600 
    223 H223       -0.5975  -18.6819  -49.2482 H         1 UNK         0.0600 
    224 H224       -0.8211  -17.0812  -49.9202 H         1 UNK         0.0600 
    225 H225       -2.1493  -17.0379  -52.6930 H         1 UNK         0.3000 
    226 H226       -3.1795  -15.4270  -53.7254 H         1 UNK         0.0600 
    227 H227       -3.1763  -14.1389  -51.5899 H         1 UNK         0.0600 
    228 H228       -4.5833  -13.7633  -52.5726 H         1 UNK         0.0600 
    229 H229       -4.7524  -14.8055  -51.1703 H         1 UNK         0.0600 
    230 H230       -5.3942  -17.5261  -51.9416 H         1 UNK         0.3000 
    231 H231       -7.6773  -17.2304  -53.6468 H         1 UNK         0.0600 
    232 H232       -6.8723  -19.4764  -51.7199 H         1 UNK         0.0600 
    233 H233       -8.4730  -19.2652  -52.4205 H         1 UNK         0.0600 
    234 H234       -7.8356  -18.0570  -51.3148 H         1 UNK         0.0600 
    235 H235       -4.9344  -19.5378  -53.6367 H         1 UNK         0.3000 
    236 H236       -5.5526  -20.3196  -56.4210 H         1 UNK         0.0600 
    237 H237       -6.8020  -21.9850  -55.0740 H         1 UNK         0.0600 
    238 H238       -5.4074  -22.7528  -55.8147 H         1 UNK         0.0600 
    239 H239       -5.3702  -22.3264  -54.1053 H         1 UNK         0.0600 
    240 H240       -3.3469  -20.5938  -53.6119 H         1 UNK         0.3000 
    241 H241       -1.1860  -20.7281  -53.3605 H         1 UNK         0.0600 
    242 H242       -2.7104  -23.0740  -55.0208 H         1 UNK         0.3800 
    243 H243       -1.3507  -24.1317  -55.2965 H         1 UNK         0.3800 
    244 H244        0.4457  -19.8754  -55.1139 H         1 UNK         0.0800 
    245 H245       -0.8783  -19.6487  -56.2057 H         1 UNK         0.0800 
    246 H246        0.7582  -16.3669  -54.2046 H         1 UNK         0.0800 
    247 H247        1.4585  -17.8504  -54.7728 H         1 UNK         0.0800 
@<TRIPOS>BOND
     1    1    2 1    
     2    1  127 1    
     3    1  128 1    
     4    1  129 1    
     5    2    3 2    
     6    2    4 am   BACKBONE|DICT|INTERRES
     7    4    5 1    
     8    4  130 1    
     9    5    6 1    
    10    5   65 1    
    11    5  131 1    
    12    6    7 1    
    13    6  132 1    
    14    6  133 1    
    15    7    8 1    
    16    8    9 1    
    17    8  134 1    
    18    8  135 1    
    19    9   10 ar   
    20    9   14 ar   
    21   10   11 ar   
    22   10  136 1    
    23   11   12 ar   
    24   11  126 1    
    25   12   13 ar   
    26   12  137 1    
    27   13   14 ar   
    28   13   15 1    
    29   14  138 1    
    30   15   16 1    
    31   15  139 1    
    32   15  140 1    
    33   16   17 1    
    34   17   18 1    
    35   17  141 1    
    36   17  142 1    
    37   18   19 1    
    38   18   67 1    
    39   18  143 1    
    40   19   20 am   BACKBONE|DICT|INTERRES
    41   19  144 1    
    42   20   21 2    
    43   20   22 1    
    44   22   23 1    
    45   22   24 1    
    46   22  145 1    
    47   23  146 1    
    48   23  147 1    
    49   23  148 1    
    50   24   25 am   BACKBONE|DICT|INTERRES
    51   24  149 1    
    52   25   26 2    
    53   25   27 1    
    54   27   28 1    
    55   27   29 1    
    56   27  150 1    
    57   28  151 1    
    58   28  152 1    
    59   28  153 1    
    60   29   30 am   BACKBONE|DICT|INTERRES
    61   29  154 1    
    62   30   31 2    
    63   30   32 1    
    64   32   33 1    
    65   32   34 1    
    66   32  155 1    
    67   33  156 1    
    68   33  157 1    
    69   33  158 1    
    70   34   35 am   BACKBONE|DICT|INTERRES
    71   34  159 1    
    72   35   36 2    
    73   35   37 1    
    74   37   38 1    
    75   37   39 1    
    76   37  160 1    
    77   38  161 1    
    78   38  162 1    
    79   38  163 1    
    80   39   40 am   BACKBONE|DICT|INTERRES
    81   39  164 1    
    82   40   41 2    
    83   40   42 1    
    84   42   43 1    
    85   42   44 1    
    86   42  165 1    
    87   43  166 1    
    88   43  167 1    
    89   43  168 1    
    90   44   45 am   BACKBONE|DICT|INTERRES
    91   44  169 1    
    92   45   46 2    
    93   45   47 1    
    94   47   48 1    
    95   47   49 1    
    96   47  170 1    
    97   48  171 1    
    98   48  172 1    
    99   48  173 1    
   100   49   50 am   BACKBONE|DICT|INTERRES
   101   49  174 1    
   102   50   51 2    
   103   50   52 1    
   104   52   53 1    
   105   52   54 1    
   106   52  175 1    
   107   53  176 1    
   108   53  177 1    
   109   53  178 1    
   110   54   55 am   BACKBONE|DICT|INTERRES
   111   54  179 1    
   112   55   56 2    
   113   55   57 1    
   114   57   58 1    
   115   57   59 1    
   116   57  180 1    
   117   58  181 1    
   118   58  182 1    
   119   58  183 1    
   120   59   60 am   BACKBONE|DICT|INTERRES
   121   59  184 1    
   122   60   61 2    
   123   60   62 1    
   124   62   63 1    
   125   62   64 1    
   126   62  185 1    
   127   63  186 1    
   128   63  187 1    
   129   63  188 1    
   130   64   65 am   BACKBONE|DICT|INTERRES
   131   64  189 1    
   132   65   66 2    
   133   67   68 2    
   134   67   69 am   BACKBONE|DICT|INTERRES
   135   69   70 1    
   136   69  190 1    
   137   70   71 1    
   138   70   72 1    
   139   70  191 1    
   140   71  192 1    
   141   71  193 1    
   142   71  194 1    
   143   72   73 2    
   144   72   74 am   BACKBONE|DICT|INTERRES
   145   74   75 1    
   146   74  195 1    
   147   75   76 1    
   148   75   77 1    
   149   75  196 1    
   150   76  197 1    
   151   76  198 1    
   152   76  199 1    
   153   77   78 2    
   154   77   79 am   BACKBONE|DICT|INTERRES
   155   79   80 1    
   156   79  200 1    
   157   80   81 1    
   158   80   82 1    
   159   80  201 1    
   160   81  202 1    
   161   81  203 1    
   162   81  204 1    
   163   82   83 2    
   164   82   84 am   BACKBONE|DICT|INTERRES
   165   84   85 1    
   166   84  205 1    
   167   85   86 1    
   168   85   87 1    
   169   85  206 1    
   170   86  207 1    
   171   86  208 1    
   172   86  209 1    
   173   87   88 2    
   174   87   89 am   BACKBONE|DICT|INTERRES
   175   89   90 1    
   176   89  210 1    
   177   90   91 1    
   178   90   92 1    
   179   90  211 1    
   180   91  212 1    
   181   91  213 1    
   182   91  214 1    
   183   92   93 2    
   184   92   94 am   BACKBONE|DICT|INTERRES
   185   94   95 1    
   186   94  215 1    
   187   95   96 1    
   188   95   97 1    
   189   95  216 1    
   190   96  217 1    
   191   96  218 1    
   192   96  219 1    
   193   97   98 2    
   194   97   99 am   BACKBONE|DICT|INTERRES
   195   99  100 1    
   196   99  220 1    
   197  100  101 1    
   198  100  102 1    
   199  100  221 1    
   200  101  222 1    
   201  101  223 1    
   202  101  224 1    
   203  102  103 2    
   204  102  104 am   BACKBONE|DICT|INTERRES
   205  104  105 1    
   206  104  225 1    
   207  105  106 1    
   208  105  107 1    
   209  105  226 1    
   210  106  227 1    
   211  106  228 1    
   212  106  229 1    
   213  107  108 2    
   214  107  109 am   BACKBONE|DICT|INTERRES
   215  109  110 1    
   216  109  230 1    
   217  110  111 1    
   218  110  112 1    
   219  110  231 1    
   220  111  232 1    
   221  111  233 1    
   222  111  234 1    
   223  112  113 2    
   224  112  114 am   BACKBONE|DICT|INTERRES
   225  114  115 1    
   226  114  235 1    
   227  115  116 1    
   228  115  117 1    
   229  115  236 1    
   230  116  237 1    
   231  116  238 1    
   232  116  239 1    
   233  117  118 2    
   234  117  119 am   BACKBONE|DICT|INTERRES
   235  119  120 1    
   236  119  240 1    
   237  120  121 1    
   238  120  124 1    
   239  120  241 1    
   240  121  122 am   BACKBONE|DICT|INTERRES
   241  121  123 2    
   242  122  242 1    
   243  122  243 1    
   244  124  125 1    
   245  124  244 1    
   246  124  245 1    
   247  125  126 1    
   248  126  246 1    
   249  126  247 1    
@<TRIPOS>SUBSTRUCTURE
     1 UNK         1 GROUP             0       ****    0 ROOT    
