@<TRIPOS>MOLECULE
3R540
247   249    1
SMALL
USER_CHARGES


@<TRIPOS>ATOM
      1 CA          3.4327  -12.6728  -46.2366 C.3       0 UNK        -0.1800 
      2 C           2.1243  -12.5635  -45.4695 C.2       0 UNK         0.5000 
      3 O           2.1414  -12.3690  -44.2542 O.2       0 UNK        -0.5000 
      4 N           0.9869  -12.6798  -46.1686 N.am      1 UNK        -0.5000 
      5 CA         -0.3618  -12.5988  -45.5890 C.3       1 UNK         0.1400 
      6 C6         -1.4671  -12.9935  -46.5977 C.3       23 UNK        -0.0398 
      7 S7         -1.3824  -14.7455  -47.1012 S.3       23 UNK        -0.2404 
      8 C8         -0.7286  -14.6132  -48.7930 C.3       23 UNK        -0.0205 
      9 C9         -0.8595  -15.9204  -49.5634 C.ar      23 UNK        -0.0193 
     10 C10        -2.0418  -16.2066  -50.2507 C.ar      23 UNK        -0.1150 
     11 C11        -2.1604  -17.3559  -51.0383 C.ar      23 UNK        -0.0193 
     12 C12        -1.0714  -18.2363  -51.1157 C.ar      23 UNK        -0.1150 
     13 C13         0.1192  -17.9665  -50.4314 C.ar      23 UNK        -0.0193 
     14 C14         0.2141  -16.8111  -49.6479 C.ar      23 UNK        -0.1150 
     15 C15         1.3347  -18.8726  -50.6058 C.3       23 UNK        -0.0205 
     16 S16         1.0330  -20.6134  -50.1584 S.3       23 UNK        -0.2404 
     17 C17         0.8086  -20.4931  -48.3532 C.3       23 UNK        -0.0398 
     18 CA         -0.3850  -21.3109  -47.8029 C.3       11 UNK         0.1400 
     19 N          -0.3824  -21.3240  -46.3322 N.am      11 UNK        -0.5000 
     20 C          -1.2733  -21.9407  -45.5385 C.2       10 UNK         0.5000 
     21 O          -2.2195  -22.6074  -45.9545 O.2       10 UNK        -0.5000 
     22 CA         -1.1118  -21.7361  -44.0215 C.3       10 UNK         0.1400 
     23 CB          0.0726  -22.5462  -43.4730 C.3       10 UNK        -0.1800 
     24 N          -0.9537  -20.3238  -43.6782 N.am      10 UNK        -0.5000 
     25 C          -1.9187  -19.4013  -43.8092 C.2       9 UNK         0.5000 
     26 O          -3.0808  -19.6671  -44.1165 O.2       9 UNK        -0.5000 
     27 CA         -1.5109  -17.9294  -43.6006 C.3       9 UNK         0.1400 
     28 CB         -1.5880  -17.5431  -42.1163 C.3       9 UNK        -0.1800 
     29 N          -0.1734  -17.6285  -44.1130 N.am      9 UNK        -0.5000 
     30 C           0.1927  -17.7428  -45.3973 C.2       8 UNK         0.5000 
     31 O          -0.5709  -18.0872  -46.2961 O.2       8 UNK        -0.5000 
     32 CA          1.6760  -17.5014  -45.7202 C.3       8 UNK         0.1400 
     33 CB          1.9910  -16.0052  -45.8104 C.3       8 UNK        -0.1800 
     34 N           2.5510  -18.1286  -44.7326 N.am      8 UNK        -0.5000 
     35 C           2.7270  -19.4517  -44.6187 C.2       7 UNK         0.5000 
     36 O           2.1878  -20.2785  -45.3537 O.2       7 UNK        -0.5000 
     37 CA          3.6232  -19.9293  -43.4627 C.3       7 UNK         0.1400 
     38 CB          5.1051  -19.8585  -43.8598 C.3       7 UNK        -0.1800 
     39 N           3.4099  -19.1591  -42.2366 N.am      7 UNK        -0.5000 
     40 C           2.2754  -19.1796  -41.5234 C.2       6 UNK         0.5000 
     41 O           1.2990  -19.8710  -41.8114 O.2       6 UNK        -0.5000 
     42 CA          2.2063  -18.2369  -40.3089 C.3       6 UNK         0.1400 
     43 CB          2.8328  -18.9008  -39.0737 C.3       6 UNK        -0.1800 
     44 N           2.8394  -16.9337  -40.5353 N.am      6 UNK        -0.5000 
     45 C           2.4467  -16.0472  -41.4594 C.2       5 UNK         0.5000 
     46 O           1.5674  -16.2710  -42.2938 O.2       5 UNK        -0.5000 
     47 CA          3.1679  -14.6883  -41.4679 C.3       5 UNK         0.1400 
     48 CB          4.1584  -14.6084  -42.6392 C.3       5 UNK        -0.1800 
     49 N           2.2097  -13.5886  -41.5696 N.am      5 UNK        -0.5000 
     50 C           1.3358  -13.2531  -40.6088 C.2       4 UNK         0.5000 
     51 O           1.2987  -13.7999  -39.5043 O.2       4 UNK        -0.5000 
     52 CA          0.3478  -12.1147  -40.9411 C.3       4 UNK         0.1400 
     53 CB         -0.3699  -11.5442  -39.7000 C.3       4 UNK        -0.1800 
     54 N           0.9625  -11.0439  -41.7286 N.am      4 UNK        -0.5000 
     55 C           1.9901  -10.2511  -41.3859 C.2       3 UNK         0.5000 
     56 O           2.5303  -10.2654  -40.2791 O.2       3 UNK        -0.5000 
     57 CA          2.5227   -9.2885  -42.4679 C.3       3 UNK         0.1400 
     58 CB          3.9600   -9.6648  -42.8655 C.3       3 UNK        -0.1800 
     59 N           1.6916   -9.2900  -43.6736 N.am      3 UNK        -0.5000 
     60 C           0.6255   -8.5040  -43.8762 C.2       2 UNK         0.5000 
     61 O           0.2669   -7.6223  -43.0953 O.2       2 UNK        -0.5000 
     62 CA         -0.1920   -8.7625  -45.1582 C.3       2 UNK         0.1400 
     63 CB          0.2688   -7.8278  -46.2868 C.3       2 UNK        -0.1800 
     64 N          -0.1104  -10.1501  -45.6246 N.am      2 UNK        -0.5000 
     65 C          -0.6520  -11.2037  -44.9945 C.2       1 UNK         0.5000 
     66 O          -1.3102  -11.1117  -43.9587 O.2       1 UNK        -0.5000 
     67 C          -1.7357  -20.8397  -48.3857 C.2       11 UNK         0.5000 
     68 O          -2.2760  -21.4893  -49.2822 O.2       11 UNK        -0.5000 
     69 N          -2.2994  -19.7790  -47.7947 N.am      12 UNK        -0.5000 
     70 CA         -3.5918  -19.1847  -48.1333 C.3       12 UNK         0.1400 
     71 CB         -3.7731  -17.8982  -47.3142 C.3       12 UNK        -0.1800 
     72 C          -4.8206  -20.1080  -47.9874 C.2       12 UNK         0.5000 
     73 O          -5.9054  -19.7041  -48.4067 O.2       12 UNK        -0.5000 
     74 N          -4.6502  -21.3057  -47.4122 N.am      13 UNK        -0.5000 
     75 CA         -5.6784  -22.3374  -47.2997 C.3       13 UNK         0.1400 
     76 CB         -6.2586  -22.2932  -45.8742 C.3       13 UNK        -0.1800 
     77 C          -5.1415  -23.7408  -47.6543 C.2       13 UNK         0.5000 
     78 O          -5.8346  -24.7238  -47.3859 O.2       13 UNK        -0.5000 
     79 N          -3.9214  -23.8404  -48.2077 N.am      14 UNK        -0.5000 
     80 CA         -3.2228  -25.1156  -48.3937 C.3       14 UNK         0.1400 
     81 CB         -1.7148  -24.8765  -48.5675 C.3       14 UNK        -0.1800 
     82 C          -3.7665  -25.9473  -49.5646 C.2       14 UNK         0.5000 
     83 O          -3.9749  -27.1504  -49.4030 O.2       14 UNK        -0.5000 
     84 N          -3.9457  -25.2981  -50.7247 N.am      15 UNK        -0.5000 
     85 CA         -4.3776  -25.8330  -52.0270 C.3       15 UNK         0.1400 
     86 CB         -5.8102  -26.3947  -51.9510 C.3       15 UNK        -0.1800 
     87 C          -3.4192  -26.8589  -52.6679 C.2       15 UNK         0.5000 
     88 O          -3.0851  -26.7205  -53.8429 O.2       15 UNK        -0.5000 
     89 N          -2.9819  -27.8599  -51.8965 N.am      16 UNK        -0.5000 
     90 CA         -2.0523  -28.9118  -52.3143 C.3       16 UNK         0.1400 
     91 CB         -2.1514  -30.0789  -51.3201 C.3       16 UNK        -0.1800 
     92 C          -0.5944  -28.4240  -52.4255 C.2       16 UNK         0.5000 
     93 O           0.2001  -29.0467  -53.1310 O.2       16 UNK        -0.5000 
     94 N          -0.2739  -27.3273  -51.7291 N.am      17 UNK        -0.5000 
     95 CA          1.0400  -26.6851  -51.6958 C.3       17 UNK         0.1400 
     96 CB          1.7086  -26.9807  -50.3403 C.3       17 UNK        -0.1800 
     97 C           0.9097  -25.1762  -51.9783 C.2       17 UNK         0.5000 
     98 O           1.6833  -24.3802  -51.4449 O.2       17 UNK        -0.5000 
     99 N          -0.0766  -24.8068  -52.8027 N.am      18 UNK        -0.5000 
    100 CA        -0.3883  -23.4397  -53.2059 C.3       18 UNK         0.1400 
    101 CB        -1.2301  -22.7573  -52.1116 C.3       18 UNK        -0.1800 
    102 C         -1.1133  -23.4732  -54.5617 C.2       18 UNK         0.5000 
    103 O         -1.1821  -24.5287  -55.1972 O.2       18 UNK        -0.5000 
    104 N         -1.6416  -22.3202  -54.9872 N.am      19 UNK        -0.5000 
    105 CA        -2.5155  -22.2021  -56.1535 C.3       19 UNK         0.1400 
    106 CB        -2.5922  -20.7238  -56.5663 C.3       19 UNK        -0.1800 
    107 C         -3.9252  -22.7431  -55.8504 C.2       19 UNK         0.5000 
    108 O         -4.3403  -22.7758  -54.6882 O.2       19 UNK        -0.5000 
    109 N         -4.6684  -23.0919  -56.9082 N.am      20 UNK        -0.5000 
    110 CA        -6.0534  -23.5722  -56.8320 C.3       20 UNK         0.1400 
    111 CB        -6.4974  -24.0474  -58.2237 C.3       20 UNK        -0.1800 
    112 C         -7.0440  -22.5281  -56.2754 C.2       20 UNK         0.5000 
    113 O         -8.0587  -22.9072  -55.6905 O.2       20 UNK        -0.5000 
    114 N         -6.7207  -21.2380  -56.4464 N.am      21 UNK        -0.5000 
    115 CA        -7.4508  -20.1107  -55.8641 C.3       21 UNK         0.1400 
    116 CB        -7.0290  -18.8198  -56.5829 C.3       21 UNK        -0.1800 
    117 C         -7.2281  -19.9760  -54.3441 C.2       21 UNK         0.5000 
    118 O         -8.1181  -19.4916  -53.6440 O.2       21 UNK        -0.5000 
    119 N         -6.0515  -20.4006  -53.8677 N.am      22 UNK        -0.5000 
    120 CA        -5.6831  -20.4416  -52.4448 C.3       22 UNK         0.1400 
    121 C         -6.2047  -21.7383  -51.7708 C.2       22 UNK         0.5000 
    122 N         -6.0809  -22.8877  -52.4202 N.am      22 UNK        -0.7600 
    123 O         -6.7466  -21.7065  -50.6723 O.2       22 UNK        -0.5000 
    124 C124       -4.1531  -20.2929  -52.2322 C.3       23 UNK        -0.0398 
    125 S125       -3.4493  -18.8479  -53.1002 S.3       23 UNK        -0.2404 
    126 C126       -3.4725  -17.5673  -51.7997 C.3       23 UNK        -0.0205 
    127 H127        3.9692  -11.7250  -46.1963 H         1 UNK         0.0600 
    128 H128        4.0646  -13.4412  -45.7919 H         1 UNK         0.0600 
    129 H129        3.2685  -12.9309  -47.2829 H         1 UNK         0.0600 
    130 H130        1.0307  -12.8430  -47.1632 H         1 UNK         0.3000 
    131 H131       -0.3988  -13.3075  -44.7581 H         1 UNK         0.0600 
    132 H132       -1.4385  -12.3475  -47.4766 H         1 UNK         0.0800 
    133 H133       -2.4533  -12.8473  -46.1526 H         1 UNK         0.0800 
    134 H134       -1.2625  -13.8281  -49.3305 H         1 UNK         0.0800 
    135 H135        0.3161  -14.3029  -48.7540 H         1 UNK         0.0800 
    136 H136       -2.8692  -15.5134  -50.1900 H         1 UNK         0.1150 
    137 H137       -1.1277  -19.1283  -51.7215 H         1 UNK         0.1150 
    138 H138        1.1355  -16.5846  -49.1306 H         1 UNK         0.1150 
    139 H139        1.6433  -18.8345  -51.6512 H         1 UNK         0.0800 
    140 H140        2.1823  -18.5035  -50.0262 H         1 UNK         0.0800 
    141 H141        1.7351  -20.8417  -47.8963 H         1 UNK         0.0800 
    142 H142        0.7098  -19.4464  -48.0715 H         1 UNK         0.0800 
    143 H143       -0.2436  -22.3450  -48.1194 H         1 UNK         0.0600 
    144 H144        0.3795  -20.8172  -45.8916 H         1 UNK         0.3000 
    145 H145       -2.0199  -22.1018  -43.5375 H         1 UNK         0.0600 
    146 H146        0.1372  -22.4608  -42.3881 H         1 UNK         0.0600 
    147 H147       -0.0363  -23.6051  -43.7104 H         1 UNK         0.0600 
    148 H148        1.0227  -22.2123  -43.8894 H         1 UNK         0.0600 
    149 H149       -0.0426  -20.0336  -43.3399 H         1 UNK         0.3000 
    150 H150       -2.2200  -17.3086  -44.1524 H         1 UNK         0.0600 
    151 H151       -2.5901  -17.7126  -41.7205 H         1 UNK         0.0600 
    152 H152       -1.3528  -16.4886  -41.9701 H         1 UNK         0.0600 
    153 H153       -0.8931  -18.1275  -41.5133 H         1 UNK         0.0600 
    154 H154        0.5094  -17.2923  -43.4379 H         1 UNK         0.3000 
    155 H155        1.8908  -17.9449  -46.6941 H         1 UNK         0.0600 
    156 H156        3.0517  -15.8328  -45.9920 H         1 UNK         0.0600 
    157 H157        1.7116  -15.4788  -44.8975 H         1 UNK         0.0600 
    158 H158        1.4440  -15.5481  -46.6342 H         1 UNK         0.0600 
    159 H159        2.9772  -17.5205  -44.0497 H         1 UNK         0.3000 
    160 H160        3.3736  -20.9726  -43.2576 H         1 UNK         0.0600 
    161 H161        5.4238  -18.8335  -44.0535 H         1 UNK         0.0600 
    162 H162        5.2941  -20.4378  -44.7646 H         1 UNK         0.0600 
    163 H163        5.7430  -20.2662  -43.0753 H         1 UNK         0.0600 
    164 H164        4.1631  -18.5614  -41.9300 H         1 UNK         0.3000 
    165 H165        1.1509  -18.0559  -40.0960 H         1 UNK         0.0600 
    166 H166        3.9015  -19.0738  -39.2064 H         1 UNK         0.0600 
    167 H167        2.6996  -18.2846  -38.1843 H         1 UNK         0.0600 
    168 H168        2.3666  -19.8660  -38.8707 H         1 UNK         0.0600 
    169 H169        3.5726  -16.6750  -39.8909 H         1 UNK         0.3000 
    170 H170        3.7242  -14.5694  -40.5359 H         1 UNK         0.0600 
    171 H171        4.9169  -15.3885  -42.5649 H         1 UNK         0.0600 
    172 H172        3.6567  -14.7281  -43.5991 H         1 UNK         0.0600 
    173 H173        4.6763  -13.6492  -42.6527 H         1 UNK         0.0600 
    174 H174        2.1640  -13.1092  -42.4649 H         1 UNK         0.3000 
    175 H175       -0.4141  -12.5597  -41.5827 H         1 UNK         0.0600 
    176 H176       -1.0665  -10.7531  -39.9777 H         1 UNK         0.0600 
    177 H177       -0.9459  -12.3185  -39.1920 H         1 UNK         0.0600 
    178 H178        0.3340  -11.1333  -38.9759 H         1 UNK         0.0600 
    179 H179        0.6020  -10.9493  -42.6682 H         1 UNK         0.3000 
    180 H180        2.5407   -8.2856  -42.0364 H         1 UNK         0.0600 
    181 H181        4.3542   -8.9795  -43.6160 H         1 UNK         0.0600 
    182 H182        4.6283   -9.6209  -42.0047 H         1 UNK         0.0600 
    183 H183        4.0164  -10.6756  -43.2709 H         1 UNK         0.0600 
    184 H184        1.8962  -10.0130  -44.3492 H         1 UNK         0.3000 
    185 H185       -1.2371   -8.5390  -44.9338 H         1 UNK         0.0600 
    186 H186       -0.3489   -7.9491  -47.1768 H         1 UNK         0.0600 
    187 H187        0.1960   -6.7827  -45.9825 H         1 UNK         0.0600 
    188 H188        1.3057   -8.0161  -46.5682 H         1 UNK         0.0600 
    189 H189        0.4266  -10.3151  -46.4636 H         1 UNK         0.3000 
    190 H190       -1.7560  -19.2820  -47.0916 H         1 UNK         0.3000 
    191 H191       -3.5411  -18.9082  -49.1844 H         1 UNK         0.0600 
    192 H192       -4.6960  -17.3832  -47.5825 H         1 UNK         0.0600 
    193 H193       -2.9534  -17.2043  -47.4948 H         1 UNK         0.0600 
    194 H194       -3.8078  -18.1051  -46.2447 H         1 UNK         0.0600 
    195 H195       -3.7358  -21.5538  -47.0504 H         1 UNK         0.3000 
    196 H196       -6.4869  -22.1397  -48.0056 H         1 UNK         0.0600 
    197 H197       -7.0656  -23.0162  -45.7508 H         1 UNK         0.0600 
    198 H198       -6.6703  -21.3096  -45.6474 H         1 UNK         0.0600 
    199 H199       -5.4955  -22.5168  -45.1274 H         1 UNK         0.0600 
    200 H200       -3.4125  -22.9973  -48.4488 H         1 UNK         0.3000 
    201 H201       -3.3534  -25.7089  -47.4859 H         1 UNK         0.0600 
    202 H202       -1.2813  -24.4441  -47.6670 H         1 UNK         0.0600 
    203 H203       -1.5028  -24.2077  -49.4006 H         1 UNK         0.0600 
    204 H204       -1.1878  -25.8128  -48.7550 H         1 UNK         0.0600 
    205 H205       -3.7412  -24.3089  -50.7218 H         1 UNK         0.3000 
    206 H206       -4.3920  -24.9780  -52.7036 H         1 UNK         0.0600 
    207 H207       -6.5019  -25.6683  -51.5258 H         1 UNK         0.0600 
    208 H208       -6.1780  -26.6541  -52.9445 H         1 UNK         0.0600 
    209 H209       -5.8623  -27.2963  -51.3400 H         1 UNK         0.0600 
    210 H210       -3.3147  -27.8855  -50.9347 H         1 UNK         0.3000 
    211 H211       -2.3563  -29.2728  -53.2990 H         1 UNK         0.0600 
    212 H212       -1.8741  -29.7714  -50.3108 H         1 UNK         0.0600 
    213 H213       -1.4902  -30.8971  -51.6086 H         1 UNK         0.0600 
    214 H214       -3.1648  -30.4790  -51.2821 H         1 UNK         0.0600 
    215 H215       -1.0030  -26.8756  -51.1972 H         1 UNK         0.3000 
    216 H216        1.6779  -27.0871  -52.4853 H         1 UNK         0.0600 
    217 H217        2.7186  -26.5712  -50.3015 H         1 UNK         0.0600 
    218 H218        1.7894  -28.0540  -50.1676 H         1 UNK         0.0600 
    219 H219        1.1453  -26.5493  -49.5122 H         1 UNK         0.0600 
    220 H220       -0.6209  -25.5153  -53.2807 H         1 UNK         0.3000 
    221 H221        0.5425  -22.8857  -53.3440 H         1 UNK         0.0600 
    222 H222       -2.2247  -23.1965  -52.0329 H         1 UNK         0.0600 
    223 H223       -0.7502  -22.8403  -51.1378 H         1 UNK         0.0600 
    224 H224       -1.3466  -21.6915  -52.3068 H         1 UNK         0.0600 
    225 H225       -1.5653  -21.5013  -54.4029 H         1 UNK         0.3000 
    226 H226       -2.0872  -22.7762  -56.9779 H         1 UNK         0.0600 
    227 H227       -3.1840  -20.5983  -57.4737 H         1 UNK         0.0600 
    228 H228       -3.0502  -20.1102  -55.7902 H         1 UNK         0.0600 
    229 H229       -1.6007  -20.3193  -56.7705 H         1 UNK         0.0600 
    230 H230       -4.2670  -23.0282  -57.8328 H         1 UNK         0.3000 
    231 H231       -6.0713  -24.4297  -56.1558 H         1 UNK         0.0600 
    232 H232       -7.5161  -24.4368  -58.1971 H         1 UNK         0.0600 
    233 H233       -5.8552  -24.8480  -58.5912 H         1 UNK         0.0600 
    234 H234       -6.4751  -23.2360  -58.9523 H         1 UNK         0.0600 
    235 H235       -5.8814  -21.0195  -56.9617 H         1 UNK         0.3000 
    236 H236       -8.5188  -20.2642  -56.0331 H         1 UNK         0.0600 
    237 H237       -5.9642  -18.6184  -56.4574 H         1 UNK         0.0600 
    238 H238       -7.2377  -18.8764  -57.6514 H         1 UNK         0.0600 
    239 H239       -7.5738  -17.9597  -56.1913 H         1 UNK         0.0600 
    240 H240       -5.3986  -20.8398  -54.5000 H         1 UNK         0.3000 
    241 H241       -6.1611  -19.6004  -51.9387 H         1 UNK         0.0600 
    242 H242       -6.4613  -23.7242  -52.0130 H         1 UNK         0.3800 
    243 H243       -5.5916  -22.9210  -53.3109 H         1 UNK         0.3800 
    244 H244       -3.6393  -21.1770  -52.6084 H         1 UNK         0.0800 
    245 H245       -3.9118  -20.2354  -51.1702 H         1 UNK         0.0800 
    246 H246       -3.7350  -16.6278  -52.2883 H         1 UNK         0.0800 
    247 H247       -4.2791  -17.7705  -51.0949 H         1 UNK         0.0800 
@<TRIPOS>BOND
     1    1    2 1    
     2    1  127 1    
     3    1  128 1    
     4    1  129 1    
     5    2    3 2    
     6    2    4 am   BACKBONE|DICT|INTERRES
     7    4    5 1    
     8    4  130 1    
     9    5    6 1    
    10    5   65 1    
    11    5  131 1    
    12    6    7 1    
    13    6  132 1    
    14    6  133 1    
    15    7    8 1    
    16    8    9 1    
    17    8  134 1    
    18    8  135 1    
    19    9   10 ar   
    20    9   14 ar   
    21   10   11 ar   
    22   10  136 1    
    23   11   12 ar   
    24   11  126 1    
    25   12   13 ar   
    26   12  137 1    
    27   13   14 ar   
    28   13   15 1    
    29   14  138 1    
    30   15   16 1    
    31   15  139 1    
    32   15  140 1    
    33   16   17 1    
    34   17   18 1    
    35   17  141 1    
    36   17  142 1    
    37   18   19 1    
    38   18   67 1    
    39   18  143 1    
    40   19   20 am   BACKBONE|DICT|INTERRES
    41   19  144 1    
    42   20   21 2    
    43   20   22 1    
    44   22   23 1    
    45   22   24 1    
    46   22  145 1    
    47   23  146 1    
    48   23  147 1    
    49   23  148 1    
    50   24   25 am   BACKBONE|DICT|INTERRES
    51   24  149 1    
    52   25   26 2    
    53   25   27 1    
    54   27   28 1    
    55   27   29 1    
    56   27  150 1    
    57   28  151 1    
    58   28  152 1    
    59   28  153 1    
    60   29   30 am   BACKBONE|DICT|INTERRES
    61   29  154 1    
    62   30   31 2    
    63   30   32 1    
    64   32   33 1    
    65   32   34 1    
    66   32  155 1    
    67   33  156 1    
    68   33  157 1    
    69   33  158 1    
    70   34   35 am   BACKBONE|DICT|INTERRES
    71   34  159 1    
    72   35   36 2    
    73   35   37 1    
    74   37   38 1    
    75   37   39 1    
    76   37  160 1    
    77   38  161 1    
    78   38  162 1    
    79   38  163 1    
    80   39   40 am   BACKBONE|DICT|INTERRES
    81   39  164 1    
    82   40   41 2    
    83   40   42 1    
    84   42   43 1    
    85   42   44 1    
    86   42  165 1    
    87   43  166 1    
    88   43  167 1    
    89   43  168 1    
    90   44   45 am   BACKBONE|DICT|INTERRES
    91   44  169 1    
    92   45   46 2    
    93   45   47 1    
    94   47   48 1    
    95   47   49 1    
    96   47  170 1    
    97   48  171 1    
    98   48  172 1    
    99   48  173 1    
   100   49   50 am   BACKBONE|DICT|INTERRES
   101   49  174 1    
   102   50   51 2    
   103   50   52 1    
   104   52   53 1    
   105   52   54 1    
   106   52  175 1    
   107   53  176 1    
   108   53  177 1    
   109   53  178 1    
   110   54   55 am   BACKBONE|DICT|INTERRES
   111   54  179 1    
   112   55   56 2    
   113   55   57 1    
   114   57   58 1    
   115   57   59 1    
   116   57  180 1    
   117   58  181 1    
   118   58  182 1    
   119   58  183 1    
   120   59   60 am   BACKBONE|DICT|INTERRES
   121   59  184 1    
   122   60   61 2    
   123   60   62 1    
   124   62   63 1    
   125   62   64 1    
   126   62  185 1    
   127   63  186 1    
   128   63  187 1    
   129   63  188 1    
   130   64   65 am   BACKBONE|DICT|INTERRES
   131   64  189 1    
   132   65   66 2    
   133   67   68 2    
   134   67   69 am   BACKBONE|DICT|INTERRES
   135   69   70 1    
   136   69  190 1    
   137   70   71 1    
   138   70   72 1    
   139   70  191 1    
   140   71  192 1    
   141   71  193 1    
   142   71  194 1    
   143   72   73 2    
   144   72   74 am   BACKBONE|DICT|INTERRES
   145   74   75 1    
   146   74  195 1    
   147   75   76 1    
   148   75   77 1    
   149   75  196 1    
   150   76  197 1    
   151   76  198 1    
   152   76  199 1    
   153   77   78 2    
   154   77   79 am   BACKBONE|DICT|INTERRES
   155   79   80 1    
   156   79  200 1    
   157   80   81 1    
   158   80   82 1    
   159   80  201 1    
   160   81  202 1    
   161   81  203 1    
   162   81  204 1    
   163   82   83 2    
   164   82   84 am   BACKBONE|DICT|INTERRES
   165   84   85 1    
   166   84  205 1    
   167   85   86 1    
   168   85   87 1    
   169   85  206 1    
   170   86  207 1    
   171   86  208 1    
   172   86  209 1    
   173   87   88 2    
   174   87   89 am   BACKBONE|DICT|INTERRES
   175   89   90 1    
   176   89  210 1    
   177   90   91 1    
   178   90   92 1    
   179   90  211 1    
   180   91  212 1    
   181   91  213 1    
   182   91  214 1    
   183   92   93 2    
   184   92   94 am   BACKBONE|DICT|INTERRES
   185   94   95 1    
   186   94  215 1    
   187   95   96 1    
   188   95   97 1    
   189   95  216 1    
   190   96  217 1    
   191   96  218 1    
   192   96  219 1    
   193   97   98 2    
   194   97   99 am   BACKBONE|DICT|INTERRES
   195   99  100 1    
   196   99  220 1    
   197  100  101 1    
   198  100  102 1    
   199  100  221 1    
   200  101  222 1    
   201  101  223 1    
   202  101  224 1    
   203  102  103 2    
   204  102  104 am   BACKBONE|DICT|INTERRES
   205  104  105 1    
   206  104  225 1    
   207  105  106 1    
   208  105  107 1    
   209  105  226 1    
   210  106  227 1    
   211  106  228 1    
   212  106  229 1    
   213  107  108 2    
   214  107  109 am   BACKBONE|DICT|INTERRES
   215  109  110 1    
   216  109  230 1    
   217  110  111 1    
   218  110  112 1    
   219  110  231 1    
   220  111  232 1    
   221  111  233 1    
   222  111  234 1    
   223  112  113 2    
   224  112  114 am   BACKBONE|DICT|INTERRES
   225  114  115 1    
   226  114  235 1    
   227  115  116 1    
   228  115  117 1    
   229  115  236 1    
   230  116  237 1    
   231  116  238 1    
   232  116  239 1    
   233  117  118 2    
   234  117  119 am   BACKBONE|DICT|INTERRES
   235  119  120 1    
   236  119  240 1    
   237  120  121 1    
   238  120  124 1    
   239  120  241 1    
   240  121  122 am   BACKBONE|DICT|INTERRES
   241  121  123 2    
   242  122  242 1    
   243  122  243 1    
   244  124  125 1    
   245  124  244 1    
   246  124  245 1    
   247  125  126 1    
   248  126  246 1    
   249  126  247 1    
@<TRIPOS>SUBSTRUCTURE
     1 UNK         1 GROUP             0       ****    0 ROOT    
