@<TRIPOS>MOLECULE
3R540
247   249    1
SMALL
USER_CHARGES


@<TRIPOS>ATOM
      1 CA         -0.7232  -16.0240  -52.9558 C.3       0 UNK        -0.1800 
      2 C          -0.4141  -15.7152  -51.4994 C.2       0 UNK         0.5000 
      3 O           0.6443  -16.1015  -51.0038 O.2       0 UNK        -0.5000 
      4 N          -1.3408  -15.0288  -50.8193 N.am      1 UNK        -0.5000 
      5 CA         -1.2378  -14.6474  -49.4079 C.3       1 UNK         0.1400 
      6 C6         -2.6256  -14.6858  -48.7049 C.3       23 UNK        -0.0398 
      7 S7         -2.4768  -15.0970  -46.9276 S.3       23 UNK        -0.2404 
      8 C8         -3.2818  -16.7338  -46.8108 C.3       23 UNK        -0.0205 
      9 C9         -2.7521  -17.7760  -47.7922 C.ar      23 UNK        -0.0193 
     10 C10        -3.6525  -18.6262  -48.4422 C.ar      23 UNK        -0.1150 
     11 C11        -3.1931  -19.6026  -49.3287 C.ar      23 UNK        -0.0193 
     12 C12        -1.8274  -19.7002  -49.5970 C.ar      23 UNK        -0.1150 
     13 C13        -0.9154  -18.8581  -48.9592 C.ar      23 UNK        -0.0193 
     14 C14        -1.3814  -17.9170  -48.0372 C.ar      23 UNK        -0.1150 
     15 C15         0.5693  -18.9580  -49.2776 C.3       23 UNK        -0.0205 
     16 S16         1.2483  -20.6131  -48.9456 S.3       23 UNK        -0.2404 
     17 C17         1.1047  -20.6752  -47.1318 C.3       23 UNK        -0.0398 
     18 CA          0.5151  -21.9955  -46.5867 C.3       11 UNK         0.1400 
     19 N           0.7287  -22.0852  -45.1429 N.am      11 UNK        -0.5000 
     20 C           0.5121  -23.1654  -44.3839 C.2       10 UNK         0.5000 
     21 O           0.1152  -24.2448  -44.8231 O.2       10 UNK        -0.5000 
     22 CA          0.7397  -22.9887  -42.8713 C.3       10 UNK         0.1400 
     23 CB          2.2371  -23.0355  -42.5324 C.3       10 UNK        -0.1800 
     24 N           0.1618  -21.7438  -42.3602 N.am      10 UNK        -0.5000 
     25 C          -1.1519  -21.4753  -42.3477 C.2       9 UNK         0.5000 
     26 O          -2.0138  -22.2615  -42.7405 O.2       9 UNK        -0.5000 
     27 CA         -1.5736  -20.0816  -41.8499 C.3       9 UNK         0.1400 
     28 CB         -1.5221  -20.0124  -40.3164 C.3       9 UNK        -0.1800 
     29 N          -0.7666  -19.0033  -42.4219 N.am      9 UNK        -0.5000 
     30 C          -0.7015  -18.7180  -43.7309 C.2       8 UNK         0.5000 
     31 O          -1.3292  -19.3230  -44.5963 O.2       8 UNK        -0.5000 
     32 CA          0.2685  -17.6054  -44.1561 C.3       8 UNK         0.1400 
     33 CB         -0.3270  -16.2214  -43.8559 C.3       8 UNK        -0.1800 
     34 N           1.5749  -17.7283  -43.5147 N.am      8 UNK        -0.5000 
     35 C           2.3952  -18.7836  -43.6050 C.2       7 UNK         0.5000 
     36 O           2.1574  -19.7866  -44.2745 O.2       7 UNK        -0.5000 
     37 CA          3.6743  -18.7296  -42.7569 C.3       7 UNK         0.1400 
     38 CB          4.7373  -17.8362  -43.4156 C.3       7 UNK        -0.1800 
     39 N           3.3985  -18.2565  -41.4018 N.am      7 UNK        -0.5000 
     40 C           2.7168  -18.9514  -40.4808 C.2       6 UNK         0.5000 
     41 O           2.2727  -20.0858  -40.6657 O.2       6 UNK        -0.5000 
     42 CA          2.4657  -18.2416  -39.1375 C.3       6 UNK         0.1400 
     43 CB          3.6933  -18.3618  -38.2220 C.3       6 UNK        -0.1800 
     44 N           2.1163  -16.8280  -39.2992 N.am      6 UNK        -0.5000 
     45 C           0.9690  -16.3999  -39.8425 C.2       5 UNK         0.5000 
     46 O           0.0918  -17.1521  -40.2669 O.2       5 UNK        -0.5000 
     47 CA          0.7810  -14.8752  -39.9658 C.3       5 UNK         0.1400 
     48 CB          0.3465  -14.2762  -38.6193 C.3       5 UNK        -0.1800 
     49 N           1.9383  -14.1292  -40.4785 N.am      5 UNK        -0.5000 
     50 C           2.6135  -14.4148  -41.5997 C.2       4 UNK         0.5000 
     51 O           2.4845  -15.4637  -42.2302 O.2       4 UNK        -0.5000 
     52 CA          3.6054  -13.3555  -42.1171 C.3       4 UNK         0.1400 
     53 CB          5.0148  -13.6378  -41.5759 C.3       4 UNK        -0.1800 
     54 N           3.6495  -13.3487  -43.5839 N.am      4 UNK        -0.5000 
     55 C           2.6026  -13.0666  -44.3726 C.2       3 UNK         0.5000 
     56 O           1.5329  -12.6206  -43.9462 O.2       3 UNK        -0.5000 
     57 CA          2.7753  -13.3678  -45.8766 C.3       3 UNK         0.1400 
     58 CB          2.9802  -14.8752  -46.1191 C.3       3 UNK        -0.1800 
     59 N           1.5978  -12.9399  -46.6312 N.am      3 UNK        -0.5000 
     60 C           1.3619  -11.6932  -47.0599 C.2       2 UNK         0.5000 
     61 O           2.1936  -10.7853  -47.0035 O.2       2 UNK        -0.5000 
     62 CA         -0.0560  -11.4143  -47.6067 C.3       2 UNK         0.1400 
     63 CB         -0.1031  -10.2552  -48.6253 C.3       2 UNK        -0.1800 
     64 N          -0.7311  -12.6206  -48.1075 N.am      2 UNK        -0.5000 
     65 C          -0.4597  -13.3190  -49.2208 C.2       1 UNK         0.5000 
     66 O           0.3789  -12.9693  -50.0543 O.2       1 UNK        -0.5000 
     67 C          -0.9688  -22.2004  -46.9646 C.2       11 UNK         0.5000 
     68 O          -1.2529  -22.9387  -47.9098 O.2       11 UNK        -0.5000 
     69 N          -1.8848  -21.6016  -46.1888 N.am      12 UNK        -0.5000 
     70 CA         -3.3313  -21.7674  -46.3227 C.3       12 UNK         0.1400 
     71 CB         -4.0621  -20.7419  -45.4434 C.3       12 UNK        -0.1800 
     72 C          -3.8040  -23.1929  -45.9974 C.2       12 UNK         0.5000 
     73 O          -4.6407  -23.7262  -46.7257 O.2       12 UNK        -0.5000 
     74 N          -3.2481  -23.7931  -44.9347 N.am      13 UNK        -0.5000 
     75 CA         -3.5275  -25.1702  -44.5206 C.3       13 UNK         0.1400 
     76 CB         -2.8972  -25.4360  -43.1451 C.3       13 UNK        -0.1800 
     77 C          -3.0508  -26.2093  -45.5520 C.2       13 UNK         0.5000 
     78 O          -3.7641  -27.1786  -45.8136 O.2       13 UNK        -0.5000 
     79 N          -1.8700  -25.9727  -46.1390 N.am      14 UNK        -0.5000 
     80 CA         -1.3121  -26.7713  -47.2313 C.3       14 UNK         0.1400 
     81 CB          0.1838  -26.4460  -47.3648 C.3       14 UNK        -0.1800 
     82 C          -2.0263  -26.5402  -48.5784 C.2       14 UNK         0.5000 
     83 O          -1.9836  -27.4190  -49.4398 O.2       14 UNK        -0.5000 
     84 N          -2.6339  -25.3545  -48.7393 N.am      15 UNK        -0.5000 
     85 CA         -3.2295  -24.7995  -49.9603 C.3       15 UNK         0.1400 
     86 CB         -4.4695  -25.6071  -50.3933 C.3       15 UNK        -0.1800 
     87 C          -2.1886  -24.6275  -51.0884 C.2       15 UNK         0.5000 
     88 O          -2.5057  -24.8157  -52.2642 O.2       15 UNK        -0.5000 
     89 N          -0.9476  -24.3050  -50.6966 N.am      16 UNK        -0.5000 
     90 CA          0.2559  -24.4350  -51.5211 C.3       16 UNK         0.1400 
     91 CB          1.4927  -24.2548  -50.6286 C.3       16 UNK        -0.1800 
     92 C           0.3185  -23.4966  -52.7395 C.2       16 UNK         0.5000 
     93 O           0.9426  -23.8530  -53.7399 O.2       16 UNK        -0.5000 
     94 N          -0.3240  -22.3261  -52.6444 N.am      17 UNK        -0.5000 
     95 CA         -0.3734  -21.3339  -53.7214 C.3       17 UNK         0.1400 
     96 CB         -0.6031  -19.9442  -53.1090 C.3       17 UNK        -0.1800 
     97 C          -1.4440  -21.6406  -54.7888 C.2       17 UNK         0.5000 
     98 O          -1.3730  -21.0664  -55.8754 O.2       17 UNK        -0.5000 
     99 N          -2.3982  -22.5263  -54.4587 N.am      18 UNK        -0.5000 
    100 CA        -3.6441  -22.8453  -55.1673 C.3       18 UNK         0.1400 
    101 CB        -3.4034  -23.2385  -56.6380 C.3       18 UNK        -0.1800 
    102 C         -4.6915  -21.7205  -55.0457 C.2       18 UNK         0.5000 
    103 O         -4.3447  -20.5398  -54.9661 O.2       18 UNK        -0.5000 
    104 N         -5.9726  -22.1164  -55.0294 N.am      19 UNK        -0.5000 
    105 CA        -7.1349  -21.2814  -54.6954 C.3       19 UNK         0.1400 
    106 CB        -8.4139  -22.1173  -54.8525 C.3       19 UNK        -0.1800 
    107 C         -7.2596  -19.9613  -55.4813 C.2       19 UNK         0.5000 
    108 O         -7.7075  -18.9602  -54.9191 O.2       19 UNK        -0.5000 
    109 N         -6.8260  -19.9755  -56.7487 N.am      20 UNK        -0.5000 
    110 CA        -6.7871  -18.8125  -57.6362 C.3       20 UNK         0.1400 
    111 CB        -6.4210  -19.2795  -59.0534 C.3       20 UNK        -0.1800 
    112 C         -5.8222  -17.7040  -57.1678 C.2       20 UNK         0.5000 
    113 O         -6.0719  -16.5328  -57.4565 O.2       20 UNK        -0.5000 
    114 N         -4.7522  -18.0825  -56.4557 N.am      21 UNK        -0.5000 
    115 CA        -3.7963  -17.1577  -55.8504 C.3       21 UNK         0.1400 
    116 CB        -2.3948  -17.7788  -55.8933 C.3       21 UNK        -0.1800 
    117 C         -4.1928  -16.8136  -54.4049 C.2       21 UNK         0.5000 
    118 O         -3.9892  -15.6739  -53.9850 O.2       21 UNK        -0.5000 
    119 N         -4.7532  -17.7891  -53.6741 N.am      22 UNK        -0.5000 
    120 CA        -5.2671  -17.6141  -52.3037 C.3       22 UNK         0.1400 
    121 C         -6.4384  -16.5958  -52.2082 C.2       22 UNK         0.5000 
    122 N         -7.3832  -16.6116  -53.1419 N.am      22 UNK        -0.7600 
    123 O         -6.4913  -15.7931  -51.2808 O.2       22 UNK        -0.5000 
    124 C124       -5.7057  -18.9491  -51.6517 C.3       23 UNK        -0.0398 
    125 S125       -4.4399  -20.2597  -51.7131 S.3       23 UNK        -0.2404 
    126 C126       -4.1536  -20.5967  -49.9553 C.3       23 UNK        -0.0205 
    127 H127        0.1965  -16.1476  -53.5277 H         1 UNK         0.0600 
    128 H128       -1.3016  -15.2225  -53.4154 H         1 UNK         0.0600 
    129 H129       -1.2974  -16.9478  -53.0234 H         1 UNK         0.0600 
    130 H130       -2.1680  -14.7102  -51.3034 H         1 UNK         0.3000 
    131 H131       -0.6115  -15.3984  -48.9252 H         1 UNK         0.0600 
    132 H132       -3.2634  -15.4366  -49.1738 H         1 UNK         0.0800 
    133 H133       -3.1640  -13.7437  -48.8224 H         1 UNK         0.0800 
    134 H134       -3.1506  -17.1179  -45.7984 H         1 UNK         0.0800 
    135 H135       -4.3547  -16.5931  -46.9499 H         1 UNK         0.0800 
    136 H136       -4.7106  -18.5469  -48.2370 H         1 UNK         0.1150 
    137 H137       -1.4701  -20.4502  -50.2868 H         1 UNK         0.1150 
    138 H138       -0.6778  -17.2794  -47.5227 H         1 UNK         0.1150 
    139 H139        0.7196  -18.7211  -50.3301 H         1 UNK         0.0800 
    140 H140        1.1406  -18.2165  -48.7170 H         1 UNK         0.0800 
    141 H141        0.5347  -19.8232  -46.7587 H         1 UNK         0.0800 
    142 H142        2.1175  -20.5441  -46.7501 H         1 UNK         0.0800 
    143 H143        1.0744  -22.8192  -47.0356 H         1 UNK         0.0600 
    144 H144        1.0883  -21.2443  -44.6964 H         1 UNK         0.3000 
    145 H145        0.2496  -23.8212  -42.3623 H         1 UNK         0.0600 
    146 H146        2.6906  -23.9601  -42.8916 H         1 UNK         0.0600 
    147 H147        2.7799  -22.2044  -42.9842 H         1 UNK         0.0600 
    148 H148        2.3977  -22.9904  -41.4550 H         1 UNK         0.0600 
    149 H149        0.8098  -21.0482  -42.0089 H         1 UNK         0.3000 
    150 H150       -2.6077  -19.9205  -42.1612 H         1 UNK         0.0600 
    151 H151       -2.1096  -20.8144  -39.8678 H         1 UNK         0.0600 
    152 H152       -1.9293  -19.0691  -39.9521 H         1 UNK         0.0600 
    153 H153       -0.5014  -20.1018  -39.9428 H         1 UNK         0.0600 
    154 H154       -0.2445  -18.4300  -41.7662 H         1 UNK         0.3000 
    155 H155        0.4198  -17.6874  -45.2341 H         1 UNK         0.0600 
    156 H156       -0.4529  -16.0618  -42.7852 H         1 UNK         0.0600 
    157 H157        0.3073  -15.4215  -44.2363 H         1 UNK         0.0600 
    158 H158       -1.3068  -16.1084  -44.3193 H         1 UNK         0.0600 
    159 H159        1.8765  -16.9341  -42.9503 H         1 UNK         0.3000 
    160 H160        4.0759  -19.7431  -42.6905 H         1 UNK         0.0600 
    161 H161        4.4032  -16.8024  -43.5059 H         1 UNK         0.0600 
    162 H162        4.9746  -18.1911  -44.4193 H         1 UNK         0.0600 
    163 H163        5.6642  -17.8392  -42.8422 H         1 UNK         0.0600 
    164 H164        3.6476  -17.2995  -41.1977 H         1 UNK         0.3000 
    165 H165        1.6282  -18.7450  -38.6495 H         1 UNK         0.0600 
    166 H166        3.4948  -17.9347  -37.2388 H         1 UNK         0.0600 
    167 H167        3.9666  -19.4072  -38.0719 H         1 UNK         0.0600 
    168 H168        4.5618  -17.8521  -38.6410 H         1 UNK         0.0600 
    169 H169        2.7918  -16.1449  -38.9896 H         1 UNK         0.3000 
    170 H170       -0.0316  -14.7150  -40.6770 H         1 UNK         0.0600 
    171 H171       -0.5225  -14.8007  -38.2193 H         1 UNK         0.0600 
    172 H172        1.1407  -14.3408  -37.8746 H         1 UNK         0.0600 
    173 H173        0.0691  -13.2272  -38.7245 H         1 UNK         0.0600 
    174 H174        2.1360  -13.2558  -40.0122 H         1 UNK         0.3000 
    175 H175        3.2827  -12.3690  -41.7782 H         1 UNK         0.0600 
    176 H176        5.3813  -14.6139  -41.8972 H         1 UNK         0.0600 
    177 H177        5.7259  -12.8839  -41.9141 H         1 UNK         0.0600 
    178 H178        5.0250  -13.6263  -40.4853 H         1 UNK         0.0600 
    179 H179        4.4842  -13.7300  -44.0033 H         1 UNK         0.3000 
    180 H180        3.6549  -12.8302  -46.2367 H         1 UNK         0.0600 
    181 H181        2.1482  -15.4656  -45.7352 H         1 UNK         0.0600 
    182 H182        3.8868  -15.2377  -45.6338 H         1 UNK         0.0600 
    183 H183        3.0786  -15.0922  -47.1830 H         1 UNK         0.0600 
    184 H184        0.8386  -13.6017  -46.6780 H         1 UNK         0.3000 
    185 H185       -0.6391  -11.0966  -46.7411 H         1 UNK         0.0600 
    186 H186        0.2144   -9.3197  -48.1635 H         1 UNK         0.0600 
    187 H187        0.5533  -10.4320  -49.4773 H         1 UNK         0.0600 
    188 H188       -1.1137  -10.1018  -49.0036 H         1 UNK         0.0600 
    189 H189       -1.4334  -13.0027  -47.4860 H         1 UNK         0.3000 
    190 H190       -1.5758  -20.9523  -45.4692 H         1 UNK         0.3000 
    191 H191       -3.5924  -21.5685  -47.3613 H         1 UNK         0.0600 
    192 H192       -3.8189  -20.8701  -44.3883 H         1 UNK         0.0600 
    193 H193       -5.1435  -20.8365  -45.5476 H         1 UNK         0.0600 
    194 H194       -3.7975  -19.7230  -45.7236 H         1 UNK         0.0600 
    195 H195       -2.6067  -23.2640  -44.3512 H         1 UNK         0.3000 
    196 H196       -4.6099  -25.2751  -44.4218 H         1 UNK         0.0600 
    197 H197       -3.1021  -26.4538  -42.8111 H         1 UNK         0.0600 
    198 H198       -3.2990  -24.7593  -42.3909 H         1 UNK         0.0600 
    199 H199       -1.8147  -25.3081  -43.1656 H         1 UNK         0.0600 
    200 H200       -1.3085  -25.1917  -45.8108 H         1 UNK         0.3000 
    201 H201       -1.4129  -27.8284  -46.9771 H         1 UNK         0.0600 
    202 H202        0.7207  -26.6775  -46.4447 H         1 UNK         0.0600 
    203 H203        0.3459  -25.3907  -47.5881 H         1 UNK         0.0600 
    204 H204        0.6432  -27.0274  -48.1654 H         1 UNK         0.0600 
    205 H205       -2.5538  -24.6949  -47.9754 H         1 UNK         0.3000 
    206 H206       -3.5685  -23.8001  -49.6952 H         1 UNK         0.0600 
    207 H207       -4.9919  -25.1101  -51.2116 H         1 UNK         0.0600 
    208 H208       -4.2043  -26.6078  -50.7350 H         1 UNK         0.0600 
    209 H209       -5.1778  -25.7089  -49.5709 H         1 UNK         0.0600 
    210 H210       -0.8082  -24.0891  -49.7162 H         1 UNK         0.3000 
    211 H211        0.2716  -25.4559  -51.9084 H         1 UNK         0.0600 
    212 H212        2.4124  -24.3558  -51.2063 H         1 UNK         0.0600 
    213 H213        1.5072  -23.2726  -50.1578 H         1 UNK         0.0600 
    214 H214        1.5230  -25.0056  -49.8393 H         1 UNK         0.0600 
    215 H215       -0.8127  -22.1108  -51.7885 H         1 UNK         0.3000 
    216 H216        0.5951  -21.3154  -54.2259 H         1 UNK         0.0600 
    217 H217       -1.5983  -19.8501  -52.6741 H         1 UNK         0.0600 
    218 H218       -0.5011  -19.1678  -53.8670 H         1 UNK         0.0600 
    219 H219        0.1304  -19.7295  -52.3334 H         1 UNK         0.0600 
    220 H220       -2.3145  -22.9681  -53.5521 H         1 UNK         0.3000 
    221 H221       -4.0432  -23.7206  -54.6523 H         1 UNK         0.0600 
    222 H222       -3.1194  -22.3828  -57.2509 H         1 UNK         0.0600 
    223 H223       -2.6189  -23.9905  -56.7232 H         1 UNK         0.0600 
    224 H224       -4.3073  -23.6607  -57.0782 H         1 UNK         0.0600 
    225 H225       -6.1652  -23.1020  -55.1346 H         1 UNK         0.3000 
    226 H226       -7.0376  -21.0190  -53.6418 H         1 UNK         0.0600 
    227 H227       -8.3977  -22.9915  -54.2014 H         1 UNK         0.0600 
    228 H228       -9.2976  -21.5348  -54.5880 H         1 UNK         0.0600 
    229 H229       -8.5438  -22.4637  -55.8785 H         1 UNK         0.0600 
    230 H230       -6.4569  -20.8403  -57.1154 H         1 UNK         0.3000 
    231 H231       -7.7903  -18.3823  -57.6661 H         1 UNK         0.0600 
    232 H232       -6.4080  -18.4403  -59.7502 H         1 UNK         0.0600 
    233 H233       -7.1448  -20.0021  -59.4307 H         1 UNK         0.0600 
    234 H234       -5.4347  -19.7445  -59.0808 H         1 UNK         0.0600 
    235 H235       -4.6411  -19.0616  -56.2091 H         1 UNK         0.3000 
    236 H236       -3.7657  -16.2287  -56.4236 H         1 UNK         0.0600 
    237 H237       -2.1166  -18.0641  -56.9079 H         1 UNK         0.0600 
    238 H238       -1.6432  -17.0757  -55.5345 H         1 UNK         0.0600 
    239 H239       -2.3407  -18.6692  -55.2688 H         1 UNK         0.0600 
    240 H240       -4.8219  -18.7203  -54.0682 H         1 UNK         0.3000 
    241 H241       -4.4439  -17.2148  -51.7076 H         1 UNK         0.0600 
    242 H242       -7.3820  -17.3198  -53.8702 H         1 UNK         0.3800 
    243 H243       -8.1442  -15.9537  -53.0890 H         1 UNK         0.3800 
    244 H244       -5.9903  -18.7756  -50.6127 H         1 UNK         0.0800 
    245 H245       -6.6010  -19.3319  -52.1420 H         1 UNK         0.0800 
    246 H246       -3.7209  -21.5912  -49.8672 H         1 UNK         0.0800 
    247 H247       -5.1011  -20.6308  -49.4156 H         1 UNK         0.0800 
@<TRIPOS>BOND
     1    1    2 1    
     2    1  127 1    
     3    1  128 1    
     4    1  129 1    
     5    2    3 2    
     6    2    4 am   BACKBONE|DICT|INTERRES
     7    4    5 1    
     8    4  130 1    
     9    5    6 1    
    10    5   65 1    
    11    5  131 1    
    12    6    7 1    
    13    6  132 1    
    14    6  133 1    
    15    7    8 1    
    16    8    9 1    
    17    8  134 1    
    18    8  135 1    
    19    9   10 ar   
    20    9   14 ar   
    21   10   11 ar   
    22   10  136 1    
    23   11   12 ar   
    24   11  126 1    
    25   12   13 ar   
    26   12  137 1    
    27   13   14 ar   
    28   13   15 1    
    29   14  138 1    
    30   15   16 1    
    31   15  139 1    
    32   15  140 1    
    33   16   17 1    
    34   17   18 1    
    35   17  141 1    
    36   17  142 1    
    37   18   19 1    
    38   18   67 1    
    39   18  143 1    
    40   19   20 am   BACKBONE|DICT|INTERRES
    41   19  144 1    
    42   20   21 2    
    43   20   22 1    
    44   22   23 1    
    45   22   24 1    
    46   22  145 1    
    47   23  146 1    
    48   23  147 1    
    49   23  148 1    
    50   24   25 am   BACKBONE|DICT|INTERRES
    51   24  149 1    
    52   25   26 2    
    53   25   27 1    
    54   27   28 1    
    55   27   29 1    
    56   27  150 1    
    57   28  151 1    
    58   28  152 1    
    59   28  153 1    
    60   29   30 am   BACKBONE|DICT|INTERRES
    61   29  154 1    
    62   30   31 2    
    63   30   32 1    
    64   32   33 1    
    65   32   34 1    
    66   32  155 1    
    67   33  156 1    
    68   33  157 1    
    69   33  158 1    
    70   34   35 am   BACKBONE|DICT|INTERRES
    71   34  159 1    
    72   35   36 2    
    73   35   37 1    
    74   37   38 1    
    75   37   39 1    
    76   37  160 1    
    77   38  161 1    
    78   38  162 1    
    79   38  163 1    
    80   39   40 am   BACKBONE|DICT|INTERRES
    81   39  164 1    
    82   40   41 2    
    83   40   42 1    
    84   42   43 1    
    85   42   44 1    
    86   42  165 1    
    87   43  166 1    
    88   43  167 1    
    89   43  168 1    
    90   44   45 am   BACKBONE|DICT|INTERRES
    91   44  169 1    
    92   45   46 2    
    93   45   47 1    
    94   47   48 1    
    95   47   49 1    
    96   47  170 1    
    97   48  171 1    
    98   48  172 1    
    99   48  173 1    
   100   49   50 am   BACKBONE|DICT|INTERRES
   101   49  174 1    
   102   50   51 2    
   103   50   52 1    
   104   52   53 1    
   105   52   54 1    
   106   52  175 1    
   107   53  176 1    
   108   53  177 1    
   109   53  178 1    
   110   54   55 am   BACKBONE|DICT|INTERRES
   111   54  179 1    
   112   55   56 2    
   113   55   57 1    
   114   57   58 1    
   115   57   59 1    
   116   57  180 1    
   117   58  181 1    
   118   58  182 1    
   119   58  183 1    
   120   59   60 am   BACKBONE|DICT|INTERRES
   121   59  184 1    
   122   60   61 2    
   123   60   62 1    
   124   62   63 1    
   125   62   64 1    
   126   62  185 1    
   127   63  186 1    
   128   63  187 1    
   129   63  188 1    
   130   64   65 am   BACKBONE|DICT|INTERRES
   131   64  189 1    
   132   65   66 2    
   133   67   68 2    
   134   67   69 am   BACKBONE|DICT|INTERRES
   135   69   70 1    
   136   69  190 1    
   137   70   71 1    
   138   70   72 1    
   139   70  191 1    
   140   71  192 1    
   141   71  193 1    
   142   71  194 1    
   143   72   73 2    
   144   72   74 am   BACKBONE|DICT|INTERRES
   145   74   75 1    
   146   74  195 1    
   147   75   76 1    
   148   75   77 1    
   149   75  196 1    
   150   76  197 1    
   151   76  198 1    
   152   76  199 1    
   153   77   78 2    
   154   77   79 am   BACKBONE|DICT|INTERRES
   155   79   80 1    
   156   79  200 1    
   157   80   81 1    
   158   80   82 1    
   159   80  201 1    
   160   81  202 1    
   161   81  203 1    
   162   81  204 1    
   163   82   83 2    
   164   82   84 am   BACKBONE|DICT|INTERRES
   165   84   85 1    
   166   84  205 1    
   167   85   86 1    
   168   85   87 1    
   169   85  206 1    
   170   86  207 1    
   171   86  208 1    
   172   86  209 1    
   173   87   88 2    
   174   87   89 am   BACKBONE|DICT|INTERRES
   175   89   90 1    
   176   89  210 1    
   177   90   91 1    
   178   90   92 1    
   179   90  211 1    
   180   91  212 1    
   181   91  213 1    
   182   91  214 1    
   183   92   93 2    
   184   92   94 am   BACKBONE|DICT|INTERRES
   185   94   95 1    
   186   94  215 1    
   187   95   96 1    
   188   95   97 1    
   189   95  216 1    
   190   96  217 1    
   191   96  218 1    
   192   96  219 1    
   193   97   98 2    
   194   97   99 am   BACKBONE|DICT|INTERRES
   195   99  100 1    
   196   99  220 1    
   197  100  101 1    
   198  100  102 1    
   199  100  221 1    
   200  101  222 1    
   201  101  223 1    
   202  101  224 1    
   203  102  103 2    
   204  102  104 am   BACKBONE|DICT|INTERRES
   205  104  105 1    
   206  104  225 1    
   207  105  106 1    
   208  105  107 1    
   209  105  226 1    
   210  106  227 1    
   211  106  228 1    
   212  106  229 1    
   213  107  108 2    
   214  107  109 am   BACKBONE|DICT|INTERRES
   215  109  110 1    
   216  109  230 1    
   217  110  111 1    
   218  110  112 1    
   219  110  231 1    
   220  111  232 1    
   221  111  233 1    
   222  111  234 1    
   223  112  113 2    
   224  112  114 am   BACKBONE|DICT|INTERRES
   225  114  115 1    
   226  114  235 1    
   227  115  116 1    
   228  115  117 1    
   229  115  236 1    
   230  116  237 1    
   231  116  238 1    
   232  116  239 1    
   233  117  118 2    
   234  117  119 am   BACKBONE|DICT|INTERRES
   235  119  120 1    
   236  119  240 1    
   237  120  121 1    
   238  120  124 1    
   239  120  241 1    
   240  121  122 am   BACKBONE|DICT|INTERRES
   241  121  123 2    
   242  122  242 1    
   243  122  243 1    
   244  124  125 1    
   245  124  244 1    
   246  124  245 1    
   247  125  126 1    
   248  126  246 1    
   249  126  247 1    
@<TRIPOS>SUBSTRUCTURE
     1 UNK         1 GROUP             0       ****    0 ROOT    
