@<TRIPOS>MOLECULE
3R540
247   249    1
SMALL
USER_CHARGES


@<TRIPOS>ATOM
      1 CA         -0.4352  -13.7253  -48.7497 C.3       0 UNK        -0.1800 
      2 C           0.4602  -13.2359  -47.6209 C.2       0 UNK         0.5000 
      3 O           0.5015  -12.0377  -47.3424 O.2       0 UNK        -0.5000 
      4 N           1.1601  -14.1630  -46.9517 N.am      1 UNK        -0.5000 
      5 CA          2.1184  -13.9066  -45.8626 C.3       1 UNK         0.1400 
      6 C6          2.8306  -15.1963  -45.3751 C.3       23 UNK        -0.0398 
      7 S7          3.3984  -16.2936  -46.7207 S.3       23 UNK        -0.2404 
      8 C8          2.2217  -17.6737  -46.5446 C.3       23 UNK        -0.0205 
      9 C9          1.8236  -18.2487  -47.8931 C.ar      23 UNK        -0.0193 
     10 C10         0.8700  -17.5920  -48.6738 C.ar      23 UNK        -0.1150 
     11 C11         0.4913  -18.1012  -49.9175 C.ar      23 UNK        -0.0193 
     12 C12         1.0544  -19.2986  -50.3694 C.ar      23 UNK        -0.1150 
     13 C13         2.0094  -19.9685  -49.5955 C.ar      23 UNK        -0.0193 
     14 C14         2.3933  -19.4352  -48.3604 C.ar      23 UNK        -0.1150 
     15 C15         2.6587  -21.2468  -50.1077 C.3       23 UNK        -0.0205 
     16 S16         2.2734  -22.6917  -49.0690 S.3       23 UNK        -0.2404 
     17 C17         0.5126  -22.9561  -49.4602 C.3       23 UNK        -0.0398 
     18 CA         -0.2154  -23.7715  -48.3676 C.3       11 UNK         0.1400 
     19 N          -0.1300  -23.1395  -47.0480 N.am      11 UNK        -0.5000 
     20 C          -0.5778  -23.6748  -45.9049 C.2       10 UNK         0.5000 
     21 O          -1.0881  -24.7929  -45.8340 O.2       10 UNK        -0.5000 
     22 CA         -0.4956  -22.7964  -44.6426 C.3       10 UNK         0.1400 
     23 CB          0.7610  -23.1401  -43.8302 C.3       10 UNK        -0.1800 
     24 N          -0.5111  -21.3536  -44.9048 N.am      10 UNK        -0.5000 
     25 C          -1.4770  -20.6697  -45.5328 C.2       9 UNK         0.5000 
     26 O          -2.4626  -21.2037  -46.0429 O.2       9 UNK        -0.5000 
     27 CA         -1.3017  -19.1367  -45.5842 C.3       9 UNK         0.1400 
     28 CB         -2.4273  -18.4321  -46.3614 C.3       9 UNK        -0.1800 
     29 N          -1.2043  -18.5494  -44.2430 N.am      9 UNK        -0.5000 
     30 C          -0.1201  -18.5927  -43.4591 C.2       8 UNK         0.5000 
     31 O           0.9426  -19.1168  -43.8050 O.2       8 UNK        -0.5000 
     32 CA         -0.2621  -18.0114  -42.0402 C.3       8 UNK         0.1400 
     33 CB         -0.9011  -19.0480  -41.1028 C.3       8 UNK        -0.1800 
     34 N           1.0536  -17.6505  -41.5141 N.am      8 UNK        -0.5000 
     35 C           1.6718  -16.4965  -41.7818 C.2       7 UNK         0.5000 
     36 O           1.1202  -15.5337  -42.3193 O.2       7 UNK        -0.5000 
     37 CA          3.1640  -16.4212  -41.4278 C.3       7 UNK         0.1400 
     38 CB          3.9794  -17.3824  -42.3207 C.3       7 UNK        -0.1800 
     39 N           3.6163  -15.0446  -41.6118 N.am      7 UNK        -0.5000 
     40 C           4.7990  -14.5410  -41.2416 C.2       6 UNK         0.5000 
     41 O           5.6664  -15.1880  -40.6535 O.2       6 UNK        -0.5000 
     42 CA          5.0629  -13.0646  -41.5822 C.3       6 UNK         0.1400 
     43 CB          5.7178  -12.9340  -42.9662 C.3       6 UNK        -0.1800 
     44 N           3.8465  -12.2556  -41.5612 N.am      6 UNK        -0.5000 
     45 C           3.3201  -11.6982  -40.4626 C.2       5 UNK         0.5000 
     46 O           3.7731  -11.8692  -39.3293 O.2       5 UNK        -0.5000 
     47 CA          2.0933  -10.7850  -40.6804 C.3       5 UNK         0.1400 
     48 CB          1.8750   -9.7754  -39.5350 C.3       5 UNK        -0.1800 
     49 N           2.1205  -10.1075  -41.9815 N.am      5 UNK        -0.5000 
     50 C           3.0312   -9.2375  -42.4469 C.2       4 UNK         0.5000 
     51 O           3.9523   -8.7761  -41.7724 O.2       4 UNK        -0.5000 
     52 CA          2.9179   -8.8448  -43.9347 C.3       4 UNK         0.1400 
     53 CB          4.0724   -9.4667  -44.7378 C.3       4 UNK        -0.1800 
     54 N           1.6540   -9.2821  -44.5305 N.am      4 UNK        -0.5000 
     55 C           0.5106   -8.5840  -44.5046 C.2       3 UNK         0.5000 
     56 O           0.4147   -7.4388  -44.0627 O.2       3 UNK        -0.5000 
     57 CA         -0.7447   -9.3088  -45.0271 C.3       3 UNK         0.1400 
     58 CB         -0.9244   -9.0665  -46.5330 C.3       3 UNK        -0.1800 
     59 N          -0.7016  -10.7504  -44.7612 N.am      3 UNK        -0.5000 
     60 C          -0.8363  -11.2909  -43.5394 C.2       2 UNK         0.5000 
     61 O          -1.0650  -10.6285  -42.5279 O.2       2 UNK        -0.5000 
     62 CA         -0.6411  -12.8119  -43.3998 C.3       2 UNK         0.1400 
     63 CB         -1.9960  -13.5337  -43.3578 C.3       2 UNK        -0.1800 
     64 N           0.1707  -13.3944  -44.4642 N.am      2 UNK        -0.5000 
     65 C           1.4814  -13.1883  -44.6530 C.2       1 UNK         0.5000 
     66 O           2.1730  -12.4647  -43.9343 O.2       1 UNK        -0.5000 
     67 C          -1.6712  -24.0607  -48.7928 C.2       11 UNK         0.5000 
     68 O          -1.9090  -25.0598  -49.4690 O.2       11 UNK        -0.5000 
     69 N          -2.6263  -23.2298  -48.3467 N.am      12 UNK        -0.5000 
     70 CA         -4.0541  -23.4112  -48.6111 C.3       12 UNK         0.1400 
     71 CB         -4.8072  -22.1245  -48.2411 C.3       12 UNK        -0.1800 
     72 C          -4.6613  -24.6272  -47.8837 C.2       12 UNK         0.5000 
     73 O          -5.6540  -25.1801  -48.3562 O.2       12 UNK        -0.5000 
     74 N          -4.0548  -25.0368  -46.7609 N.am      13 UNK        -0.5000 
     75 CA         -4.4039  -26.2692  -46.0549 C.3       13 UNK         0.1400 
     76 CB         -4.0235  -26.1340  -44.5723 C.3       13 UNK        -0.1800 
     77 C          -3.7209  -27.4973  -46.6858 C.2       13 UNK         0.5000 
     78 O          -4.2567  -28.6018  -46.5879 O.2       13 UNK        -0.5000 
     79 N          -2.5550  -27.2891  -47.3146 N.am      14 UNK        -0.5000 
     80 CA         -1.7625  -28.3307  -47.9642 C.3       14 UNK         0.1400 
     81 CB         -0.3213  -27.8365  -48.1648 C.3       14 UNK        -0.1800 
     82 C          -2.3693  -28.8052  -49.2968 C.2       14 UNK         0.5000 
     83 O          -2.3341  -30.0064  -49.5690 O.2       14 UNK        -0.5000 
     84 N          -2.9150  -27.8804  -50.0998 N.am      15 UNK        -0.5000 
     85 CA         -3.5249  -28.1864  -51.3919 C.3       15 UNK         0.1400 
     86 CB         -2.4403  -28.2404  -52.4832 C.3       15 UNK        -0.1800 
     87 C          -4.5965  -27.1513  -51.7530 C.2       15 UNK         0.5000 
     88 O          -4.3962  -25.9544  -51.5393 O.2       15 UNK        -0.5000 
     89 N          -5.6889  -27.6251  -52.3670 N.am      16 UNK        -0.5000 
     90 CA         -6.7854  -26.7954  -52.8743 C.3       16 UNK         0.1400 
     91 CB         -7.9771  -27.6934  -53.2370 C.3       16 UNK        -0.1800 
     92 C          -6.3753  -25.9296  -54.0807 C.2       16 UNK         0.5000 
     93 O          -6.8882  -24.8221  -54.2358 O.2       16 UNK        -0.5000 
     94 N          -5.4294  -26.4247  -54.8918 N.am      17 UNK        -0.5000 
     95 CA         -4.8289  -25.6834  -56.0032 C.3       17 UNK         0.1400 
     96 CB         -3.9673  -26.6354  -56.8461 C.3       17 UNK        -0.1800 
     97 C          -3.9972  -24.4836  -55.5146 C.2       17 UNK         0.5000 
     98 O          -4.0566  -23.4106  -56.1151 O.2       17 UNK        -0.5000 
     99 N          -3.2753  -24.6749  -54.4019 N.am      18 UNK        -0.5000 
    100 CA        -2.5296  -23.6199  -53.7213 C.3       18 UNK         0.1400 
    101 CB        -1.5192  -24.2399  -52.7513 C.3       18 UNK        -0.1800 
    102 C         -3.4598  -22.6272  -53.0042 C.2       18 UNK         0.5000 
    103 O         -3.1703  -21.4325  -53.0085 O.2       18 UNK        -0.5000 
    104 N         -4.5832  -23.1150  -52.4554 N.am      19 UNK        -0.5000 
    105 CA        -5.6500  -22.2855  -51.8879 C.3       19 UNK         0.1400 
    106 CB        -6.7234  -23.1683  -51.2305 C.3       19 UNK        -0.1800 
    107 C         -6.2882  -21.3623  -52.9393 C.2       19 UNK         0.5000 
    108 O         -6.4611  -20.1729  -52.6757 O.2       19 UNK        -0.5000 
    109 N         -6.5826  -21.9174  -54.1233 N.am      20 UNK        -0.5000 
    110 CA        -7.1104  -21.1889  -55.2771 C.3       20 UNK         0.1400 
    111 CB        -7.5074  -22.1890  -56.3734 C.3       20 UNK        -0.1800 
    112 C         -6.1300  -20.1343  -55.8256 C.2       20 UNK         0.5000 
    113 O         -6.5692  -19.0602  -56.2380 O.2       20 UNK        -0.5000 
    114 N         -4.8271  -20.4489  -55.8057 N.am      21 UNK        -0.5000 
    115 CA        -3.7521  -19.5339  -56.1879 C.3       21 UNK         0.1400 
    116 CB        -2.4520  -20.3255  -56.3979 C.3       21 UNK        -0.1800 
    117 C         -3.5486  -18.4028  -55.1618 C.2       21 UNK         0.5000 
    118 O         -3.4185  -17.2437  -55.5581 O.2       21 UNK        -0.5000 
    119 N         -3.5181  -18.7579  -53.8704 N.am      22 UNK        -0.5000 
    120 CA        -3.3633  -17.8228  -52.7473 C.3       22 UNK         0.1400 
    121 C         -4.6073  -16.9172  -52.5128 C.2       22 UNK         0.5000 
    122 N         -5.8245  -17.4346  -52.6169 N.am      22 UNK        -0.7600 
    123 O         -4.4691  -15.7239  -52.2577 O.2       22 UNK        -0.5000 
    124 C124       -2.9188  -18.5691  -51.4603 C.3       23 UNK        -0.0398 
    125 S125       -2.1993  -17.4651  -50.1980 S.3       23 UNK        -0.2404 
    126 C126       -0.4822  -17.3169  -50.7837 C.3       23 UNK        -0.0205 
    127 H127       -1.2676  -13.0375  -48.9003 H         1 UNK         0.0600 
    128 H128       -0.8519  -14.7081  -48.5301 H         1 UNK         0.0600 
    129 H129        0.1299  -13.7860  -49.6796 H         1 UNK         0.0600 
    130 H130        1.1142  -15.1245  -47.2525 H         1 UNK         0.3000 
    131 H131        2.8791  -13.2354  -46.2667 H         1 UNK         0.0600 
    132 H132        3.7026  -14.9333  -44.7753 H         1 UNK         0.0800 
    133 H133        2.1832  -15.7664  -44.7088 H         1 UNK         0.0800 
    134 H134        2.6628  -18.4428  -45.9084 H         1 UNK         0.0800 
    135 H135        1.3188  -17.3385  -46.0344 H         1 UNK         0.0800 
    136 H136        0.4274  -16.6737  -48.3210 H         1 UNK         0.1150 
    137 H137        0.7669  -19.6951  -51.3331 H         1 UNK         0.1150 
    138 H138        3.1364  -19.9467  -47.7645 H         1 UNK         0.1150 
    139 H139        2.3609  -21.4538  -51.1369 H         1 UNK         0.0800 
    140 H140        3.7404  -21.1073  -50.1257 H         1 UNK         0.0800 
    141 H141        0.4697  -23.4788  -50.4163 H         1 UNK         0.0800 
    142 H142        0.0214  -21.9927  -49.6068 H         1 UNK         0.0800 
    143 H143        0.2860  -24.7378  -48.2856 H         1 UNK         0.0600 
    144 H144        0.2903  -22.2226  -47.0162 H         1 UNK         0.3000 
    145 H145       -1.3717  -23.0266  -44.0333 H         1 UNK         0.0600 
    146 H146        0.7826  -22.5937  -42.8869 H         1 UNK         0.0600 
    147 H147        0.7936  -24.2037  -43.5899 H         1 UNK         0.0600 
    148 H148        1.6720  -22.8982  -44.3791 H         1 UNK         0.0600 
    149 H149        0.2505  -20.8116  -44.5072 H         1 UNK         0.3000 
    150 H150       -0.3725  -18.9513  -46.1227 H         1 UNK         0.0600 
    151 H151       -3.3956  -18.5617  -45.8768 H         1 UNK         0.0600 
    152 H152       -2.5105  -18.8298  -47.3739 H         1 UNK         0.0600 
    153 H153       -2.2348  -17.3629  -46.4518 H         1 UNK         0.0600 
    154 H154       -2.0540  -18.1449  -43.8765 H         1 UNK         0.3000 
    155 H155       -0.9026  -17.1274  -42.0792 H         1 UNK         0.0600 
    156 H156       -0.3086  -19.9624  -41.0478 H         1 UNK         0.0600 
    157 H157       -1.8992  -19.3247  -41.4447 H         1 UNK         0.0600 
    158 H158       -1.0035  -18.6537  -40.0916 H         1 UNK         0.0600 
    159 H159        1.5898  -18.4067  -41.1144 H         1 UNK         0.3000 
    160 H160        3.2834  -16.6962  -40.3781 H         1 UNK         0.0600 
    161 H161        3.8958  -17.1204  -43.3755 H         1 UNK         0.0600 
    162 H162        3.6355  -18.4118  -42.2151 H         1 UNK         0.0600 
    163 H163        5.0373  -17.3772  -42.0602 H         1 UNK         0.0600 
    164 H164        2.9263  -14.4414  -42.0432 H         1 UNK         0.3000 
    165 H165        5.7645  -12.6741  -40.8418 H         1 UNK         0.0600 
    166 H166        6.6241  -13.5374  -43.0304 H         1 UNK         0.0600 
    167 H167        5.0482  -13.2574  -43.7630 H         1 UNK         0.0600 
    168 H168        6.0002  -11.9007  -43.1692 H         1 UNK         0.0600 
    169 H169        3.3749  -12.1126  -42.4496 H         1 UNK         0.3000 
    170 H170        1.2268  -11.4473  -40.7031 H         1 UNK         0.0600 
    171 H171        1.7048  -10.2893  -38.5883 H         1 UNK         0.0600 
    172 H172        2.7363   -9.1207  -39.4002 H         1 UNK         0.0600 
    173 H173        1.0030   -9.1493  -39.7241 H         1 UNK         0.0600 
    174 H174        1.4167  -10.4152  -42.6363 H         1 UNK         0.3000 
    175 H175        2.9995   -7.7579  -44.0002 H         1 UNK         0.0600 
    176 H176        4.0279   -9.1706  -45.7859 H         1 UNK         0.0600 
    177 H177        5.0390   -9.1420  -44.3503 H         1 UNK         0.0600 
    178 H178        4.0527  -10.5565  -44.6958 H         1 UNK         0.0600 
    179 H179        1.6384  -10.2186  -44.9101 H         1 UNK         0.3000 
    180 H180       -1.6119   -8.8906  -44.5114 H         1 UNK         0.0600 
    181 H181       -0.0671   -9.4228  -47.1049 H         1 UNK         0.0600 
    182 H182       -1.0376   -8.0024  -46.7442 H         1 UNK         0.0600 
    183 H183       -1.8138   -9.5702  -46.9118 H         1 UNK         0.0600 
    184 H184       -0.4794  -11.3499  -45.5481 H         1 UNK         0.3000 
    185 H185       -0.1294  -12.9912  -42.4519 H         1 UNK         0.0600 
    186 H186       -2.6222  -13.1436  -42.5544 H         1 UNK         0.0600 
    187 H187       -2.5458  -13.4135  -44.2921 H         1 UNK         0.0600 
    188 H188       -1.8659  -14.6012  -43.1773 H         1 UNK         0.0600 
    189 H189       -0.3079  -14.0039  -45.1100 H         1 UNK         0.3000 
    190 H190       -2.3768  -22.4631  -47.7312 H         1 UNK         0.3000 
    191 H191       -4.1661  -23.5833  -49.6821 H         1 UNK         0.0600 
    192 H192       -4.3948  -21.2590  -48.7601 H         1 UNK         0.0600 
    193 H193       -5.8610  -22.1974  -48.5112 H         1 UNK         0.0600 
    194 H194       -4.7611  -21.9262  -47.1699 H         1 UNK         0.0600 
    195 H195       -3.2287  -24.5487  -46.4403 H         1 UNK         0.3000 
    196 H196       -5.4839  -26.4228  -46.1086 H         1 UNK         0.0600 
    197 H197       -4.3351  -27.0155  -44.0107 H         1 UNK         0.0600 
    198 H198       -4.5089  -25.2706  -44.1172 H         1 UNK         0.0600 
    199 H199       -2.9476  -26.0255  -44.4356 H         1 UNK         0.0600 
    200 H200       -2.1823  -26.3506  -47.3434 H         1 UNK         0.3000 
    201 H201       -1.7256  -29.1902  -47.2912 H         1 UNK         0.0600 
    202 H202        0.3178  -28.6463  -48.5186 H         1 UNK         0.0600 
    203 H203       -0.2646  -27.0367  -48.9023 H         1 UNK         0.0600 
    204 H204        0.1064  -27.4673  -47.2323 H         1 UNK         0.0600 
    205 H205       -2.8943  -26.8984  -49.8385 H         1 UNK         0.3000 
    206 H206       -4.0130  -29.1618  -51.3330 H         1 UNK         0.0600 
    207 H207       -1.7224  -29.0369  -52.2872 H         1 UNK         0.0600 
    208 H208       -2.8755  -28.4334  -53.4644 H         1 UNK         0.0600 
    209 H209       -1.8870  -27.3030  -52.5450 H         1 UNK         0.0600 
    210 H210       -5.7769  -28.6206  -52.5136 H         1 UNK         0.3000 
    211 H211       -7.0978  -26.1223  -52.0735 H         1 UNK         0.0600 
    212 H212       -7.7215  -28.4070  -54.0213 H         1 UNK         0.0600 
    213 H213       -8.8183  -27.0986  -53.5957 H         1 UNK         0.0600 
    214 H214       -8.3252  -28.2558  -52.3704 H         1 UNK         0.0600 
    215 H215       -5.0712  -27.3501  -54.7093 H         1 UNK         0.3000 
    216 H216       -5.6335  -25.2985  -56.6334 H         1 UNK         0.0600 
    217 H217       -3.5185  -26.1099  -57.6902 H         1 UNK         0.0600 
    218 H218       -4.5649  -27.4512  -57.2532 H         1 UNK         0.0600 
    219 H219       -3.1561  -27.0719  -56.2620 H         1 UNK         0.0600 
    220 H220       -3.3114  -25.5733  -53.9453 H         1 UNK         0.3000 
    221 H221       -1.9671  -23.0602  -54.4713 H         1 UNK         0.0600 
    222 H222       -2.0107  -24.8678  -52.0108 H         1 UNK         0.0600 
    223 H223       -0.7887  -24.8531  -53.2788 H         1 UNK         0.0600 
    224 H224       -0.9717  -23.4626  -52.2194 H         1 UNK         0.0600 
    225 H225       -4.7111  -24.1202  -52.4215 H         1 UNK         0.3000 
    226 H226       -5.1997  -21.6575  -51.1174 H         1 UNK         0.0600 
    227 H227       -7.3779  -22.5685  -50.5974 H         1 UNK         0.0600 
    228 H228       -7.3570  -23.6616  -51.9660 H         1 UNK         0.0600 
    229 H229       -6.2854  -23.9442  -50.6061 H         1 UNK         0.0600 
    230 H230       -6.4640  -22.9204  -54.2332 H         1 UNK         0.3000 
    231 H231       -8.0119  -20.6645  -54.9535 H         1 UNK         0.0600 
    232 H232       -6.6501  -22.7637  -56.7245 H         1 UNK         0.0600 
    233 H233       -7.9344  -21.6751  -57.2354 H         1 UNK         0.0600 
    234 H234       -8.2556  -22.8943  -56.0109 H         1 UNK         0.0600 
    235 H235       -4.5557  -21.3786  -55.5097 H         1 UNK         0.3000 
    236 H236       -4.0211  -19.0752  -57.1417 H         1 UNK         0.0600 
    237 H237       -2.5785  -21.0973  -57.1574 H         1 UNK         0.0600 
    238 H238       -1.6465  -19.6696  -56.7303 H         1 UNK         0.0600 
    239 H239       -2.1208  -20.8111  -55.4802 H         1 UNK         0.0600 
    240 H240       -3.5875  -19.7430  -53.6271 H         1 UNK         0.3000 
    241 H241       -2.5469  -17.1535  -53.0258 H         1 UNK         0.0600 
    242 H242       -5.9667  -18.4314  -52.7716 H         1 UNK         0.3800 
    243 H243       -6.6249  -16.8396  -52.4783 H         1 UNK         0.3800 
    244 H244       -2.1705  -19.3259  -51.7000 H         1 UNK         0.0800 
    245 H245       -3.7576  -19.1124  -51.0217 H         1 UNK         0.0800 
    246 H246       -0.2023  -16.2627  -50.7669 H         1 UNK         0.0800 
    247 H247       -0.4035  -17.6264  -51.8268 H         1 UNK         0.0800 
@<TRIPOS>BOND
     1    1    2 1    
     2    1  127 1    
     3    1  128 1    
     4    1  129 1    
     5    2    3 2    
     6    2    4 am   BACKBONE|DICT|INTERRES
     7    4    5 1    
     8    4  130 1    
     9    5    6 1    
    10    5   65 1    
    11    5  131 1    
    12    6    7 1    
    13    6  132 1    
    14    6  133 1    
    15    7    8 1    
    16    8    9 1    
    17    8  134 1    
    18    8  135 1    
    19    9   10 ar   
    20    9   14 ar   
    21   10   11 ar   
    22   10  136 1    
    23   11   12 ar   
    24   11  126 1    
    25   12   13 ar   
    26   12  137 1    
    27   13   14 ar   
    28   13   15 1    
    29   14  138 1    
    30   15   16 1    
    31   15  139 1    
    32   15  140 1    
    33   16   17 1    
    34   17   18 1    
    35   17  141 1    
    36   17  142 1    
    37   18   19 1    
    38   18   67 1    
    39   18  143 1    
    40   19   20 am   BACKBONE|DICT|INTERRES
    41   19  144 1    
    42   20   21 2    
    43   20   22 1    
    44   22   23 1    
    45   22   24 1    
    46   22  145 1    
    47   23  146 1    
    48   23  147 1    
    49   23  148 1    
    50   24   25 am   BACKBONE|DICT|INTERRES
    51   24  149 1    
    52   25   26 2    
    53   25   27 1    
    54   27   28 1    
    55   27   29 1    
    56   27  150 1    
    57   28  151 1    
    58   28  152 1    
    59   28  153 1    
    60   29   30 am   BACKBONE|DICT|INTERRES
    61   29  154 1    
    62   30   31 2    
    63   30   32 1    
    64   32   33 1    
    65   32   34 1    
    66   32  155 1    
    67   33  156 1    
    68   33  157 1    
    69   33  158 1    
    70   34   35 am   BACKBONE|DICT|INTERRES
    71   34  159 1    
    72   35   36 2    
    73   35   37 1    
    74   37   38 1    
    75   37   39 1    
    76   37  160 1    
    77   38  161 1    
    78   38  162 1    
    79   38  163 1    
    80   39   40 am   BACKBONE|DICT|INTERRES
    81   39  164 1    
    82   40   41 2    
    83   40   42 1    
    84   42   43 1    
    85   42   44 1    
    86   42  165 1    
    87   43  166 1    
    88   43  167 1    
    89   43  168 1    
    90   44   45 am   BACKBONE|DICT|INTERRES
    91   44  169 1    
    92   45   46 2    
    93   45   47 1    
    94   47   48 1    
    95   47   49 1    
    96   47  170 1    
    97   48  171 1    
    98   48  172 1    
    99   48  173 1    
   100   49   50 am   BACKBONE|DICT|INTERRES
   101   49  174 1    
   102   50   51 2    
   103   50   52 1    
   104   52   53 1    
   105   52   54 1    
   106   52  175 1    
   107   53  176 1    
   108   53  177 1    
   109   53  178 1    
   110   54   55 am   BACKBONE|DICT|INTERRES
   111   54  179 1    
   112   55   56 2    
   113   55   57 1    
   114   57   58 1    
   115   57   59 1    
   116   57  180 1    
   117   58  181 1    
   118   58  182 1    
   119   58  183 1    
   120   59   60 am   BACKBONE|DICT|INTERRES
   121   59  184 1    
   122   60   61 2    
   123   60   62 1    
   124   62   63 1    
   125   62   64 1    
   126   62  185 1    
   127   63  186 1    
   128   63  187 1    
   129   63  188 1    
   130   64   65 am   BACKBONE|DICT|INTERRES
   131   64  189 1    
   132   65   66 2    
   133   67   68 2    
   134   67   69 am   BACKBONE|DICT|INTERRES
   135   69   70 1    
   136   69  190 1    
   137   70   71 1    
   138   70   72 1    
   139   70  191 1    
   140   71  192 1    
   141   71  193 1    
   142   71  194 1    
   143   72   73 2    
   144   72   74 am   BACKBONE|DICT|INTERRES
   145   74   75 1    
   146   74  195 1    
   147   75   76 1    
   148   75   77 1    
   149   75  196 1    
   150   76  197 1    
   151   76  198 1    
   152   76  199 1    
   153   77   78 2    
   154   77   79 am   BACKBONE|DICT|INTERRES
   155   79   80 1    
   156   79  200 1    
   157   80   81 1    
   158   80   82 1    
   159   80  201 1    
   160   81  202 1    
   161   81  203 1    
   162   81  204 1    
   163   82   83 2    
   164   82   84 am   BACKBONE|DICT|INTERRES
   165   84   85 1    
   166   84  205 1    
   167   85   86 1    
   168   85   87 1    
   169   85  206 1    
   170   86  207 1    
   171   86  208 1    
   172   86  209 1    
   173   87   88 2    
   174   87   89 am   BACKBONE|DICT|INTERRES
   175   89   90 1    
   176   89  210 1    
   177   90   91 1    
   178   90   92 1    
   179   90  211 1    
   180   91  212 1    
   181   91  213 1    
   182   91  214 1    
   183   92   93 2    
   184   92   94 am   BACKBONE|DICT|INTERRES
   185   94   95 1    
   186   94  215 1    
   187   95   96 1    
   188   95   97 1    
   189   95  216 1    
   190   96  217 1    
   191   96  218 1    
   192   96  219 1    
   193   97   98 2    
   194   97   99 am   BACKBONE|DICT|INTERRES
   195   99  100 1    
   196   99  220 1    
   197  100  101 1    
   198  100  102 1    
   199  100  221 1    
   200  101  222 1    
   201  101  223 1    
   202  101  224 1    
   203  102  103 2    
   204  102  104 am   BACKBONE|DICT|INTERRES
   205  104  105 1    
   206  104  225 1    
   207  105  106 1    
   208  105  107 1    
   209  105  226 1    
   210  106  227 1    
   211  106  228 1    
   212  106  229 1    
   213  107  108 2    
   214  107  109 am   BACKBONE|DICT|INTERRES
   215  109  110 1    
   216  109  230 1    
   217  110  111 1    
   218  110  112 1    
   219  110  231 1    
   220  111  232 1    
   221  111  233 1    
   222  111  234 1    
   223  112  113 2    
   224  112  114 am   BACKBONE|DICT|INTERRES
   225  114  115 1    
   226  114  235 1    
   227  115  116 1    
   228  115  117 1    
   229  115  236 1    
   230  116  237 1    
   231  116  238 1    
   232  116  239 1    
   233  117  118 2    
   234  117  119 am   BACKBONE|DICT|INTERRES
   235  119  120 1    
   236  119  240 1    
   237  120  121 1    
   238  120  124 1    
   239  120  241 1    
   240  121  122 am   BACKBONE|DICT|INTERRES
   241  121  123 2    
   242  122  242 1    
   243  122  243 1    
   244  124  125 1    
   245  124  244 1    
   246  124  245 1    
   247  125  126 1    
   248  126  246 1    
   249  126  247 1    
@<TRIPOS>SUBSTRUCTURE
     1 UNK         1 GROUP             0       ****    0 ROOT    
