@<TRIPOS>MOLECULE
3R540
247   249    1
SMALL
USER_CHARGES


@<TRIPOS>ATOM
      1 CA         -1.4767  -12.0158  -51.7032 C.3       0 UNK        -0.1800 
      2 C          -1.0874  -12.5322  -50.3250 C.2       0 UNK         0.5000 
      3 O          -0.8413  -11.7362  -49.4182 O.2       0 UNK        -0.5000 
      4 N          -1.0218  -13.8591  -50.1699 N.am      1 UNK        -0.5000 
      5 CA         -0.7602  -14.5517  -48.9053 C.3       1 UNK         0.1400 
      6 C6         -0.2764  -16.0117  -49.1231 C.3       23 UNK        -0.0398 
      7 S7         -1.1953  -16.9683  -50.3890 S.3       23 UNK        -0.2404 
      8 C8         -0.0347  -16.9654  -51.8005 C.3       23 UNK        -0.0205 
      9 C9          0.9213  -18.1534  -51.7782 C.ar      23 UNK        -0.0193 
     10 C10         0.7443  -19.2230  -52.6634 C.ar      23 UNK        -0.1150 
     11 C11         1.6146  -20.3184  -52.6399 C.ar      23 UNK        -0.0193 
     12 C12         2.6670  -20.3419  -51.7196 C.ar      23 UNK        -0.1150 
     13 C13         2.8611  -19.2767  -50.8377 C.ar      23 UNK        -0.0193 
     14 C14         1.9982  -18.1796  -50.8877 C.ar      23 UNK        -0.1150 
     15 C15         4.0065  -19.2994  -49.8346 C.3       23 UNK        -0.0205 
     16 S16         3.7134  -20.4488  -48.4491 S.3       23 UNK        -0.2404 
     17 C17         2.1847  -19.7976  -47.6914 C.3       23 UNK        -0.0398 
     18 CA          1.1561  -20.9304  -47.4225 C.3       11 UNK         0.1400 
     19 N           1.1198  -21.3183  -46.0097 N.am      11 UNK        -0.5000 
     20 C           0.4485  -22.3685  -45.5168 C.2       10 UNK         0.5000 
     21 O          -0.1616  -23.1806  -46.2115 O.2       10 UNK        -0.5000 
     22 CA          0.3967  -22.4972  -43.9833 C.3       10 UNK         0.1400 
     23 CB          1.6745  -23.1518  -43.4383 C.3       10 UNK        -0.1800 
     24 N           0.1764  -21.2088  -43.3237 N.am      10 UNK        -0.5000 
     25 C          -0.9250  -20.4596  -43.4818 C.2       9 UNK         0.5000 
     26 O          -1.8964  -20.8048  -44.1521 O.2       9 UNK        -0.5000 
     27 CA         -0.9251  -19.0733  -42.8187 C.3       9 UNK         0.1400 
     28 CB         -1.2372  -19.2004  -41.3185 C.3       9 UNK        -0.1800 
     29 N           0.3434  -18.3696  -43.0049 N.am      9 UNK        -0.5000 
     30 C           0.8593  -17.9919  -44.1843 C.2       8 UNK         0.5000 
     31 O           0.2886  -18.1447  -45.2636 O.2       8 UNK        -0.5000 
     32 CA          2.2876  -17.4158  -44.1607 C.3       8 UNK         0.1400 
     33 CB          2.2964  -15.9182  -43.8243 C.3       8 UNK        -0.1800 
     34 N           3.1453  -18.1310  -43.2171 N.am      8 UNK        -0.5000 
     35 C           3.5698  -19.3906  -43.3862 C.2       7 UNK         0.5000 
     36 O           3.2974  -20.0770  -44.3708 O.2       7 UNK        -0.5000 
     37 CA          4.4068  -19.9915  -42.2426 C.3       7 UNK         0.1400 
     38 CB          5.8833  -19.5929  -42.3845 C.3       7 UNK        -0.1800 
     39 N           3.9180  -19.5861  -40.9232 N.am      7 UNK        -0.5000 
     40 C           2.7520  -19.9887  -40.3990 C.2       6 UNK         0.5000 
     41 O           1.9857  -20.7711  -40.9616 O.2       6 UNK        -0.5000 
     42 CA          2.3554  -19.3719  -39.0430 C.3       6 UNK         0.1400 
     43 CB          3.0229  -20.1311  -37.8868 C.3       6 UNK        -0.1800 
     44 N           2.6665  -17.9408  -38.9334 N.am      6 UNK        -0.5000 
     45 C           2.1532  -16.9965  -39.7317 C.2       5 UNK         0.5000 
     46 O           1.3941  -17.2439  -40.6725 O.2       5 UNK        -0.5000 
     47 CA          2.5700  -15.5423  -39.4685 C.3       5 UNK         0.1400 
     48 CB          4.0240  -15.2938  -39.9082 C.3       5 UNK        -0.1800 
     49 N           1.6692  -14.6972  -40.2403 N.am      5 UNK        -0.5000 
     50 C           1.3830  -13.4072  -40.0476 C.2       4 UNK         0.5000 
     51 O           1.8963  -12.7146  -39.1683 O.2       4 UNK        -0.5000 
     52 CA          0.3430  -12.7874  -41.0052 C.3       4 UNK         0.1400 
     53 CB          1.0453  -11.9752  -42.1042 C.3       4 UNK        -0.1800 
     54 N          -0.5133  -13.7908  -41.6449 N.am      4 UNK        -0.5000 
     55 C          -1.5239  -14.4398  -41.0550 C.2       3 UNK         0.5000 
     56 O          -1.9002  -14.2015  -39.9063 O.2       3 UNK        -0.5000 
     57 CA         -2.2144  -15.5406  -41.8929 C.3       3 UNK         0.1400 
     58 CB         -3.3807  -16.2167  -41.1498 C.3       3 UNK        -0.1800 
     59 N          -2.6955  -15.0760  -43.1973 N.am      3 UNK        -0.5000 
     60 C          -1.9257  -14.8279  -44.2625 C.2       2 UNK         0.5000 
     61 O          -0.6959  -14.9196  -44.2462 O.2       2 UNK        -0.5000 
     62 CA         -2.6356  -14.3739  -45.5445 C.3       2 UNK         0.1400 
     63 CB         -3.1408  -12.9247  -45.4067 C.3       2 UNK        -0.1800 
     64 N          -1.6800  -14.4733  -46.6420 N.am      2 UNK        -0.5000 
     65 C          -1.9668  -14.4560  -47.9464 C.2       1 UNK         0.5000 
     66 O          -3.1123  -14.3612  -48.3909 O.2       1 UNK        -0.5000 
     67 C          -0.2492  -20.5786  -47.9534 C.2       11 UNK         0.5000 
     68 O          -0.6463  -21.1095  -48.9875 O.2       11 UNK        -0.5000 
     69 N          -0.9981  -19.7437  -47.2179 N.am      12 UNK        -0.5000 
     70 CA         -2.3757  -19.3633  -47.5420 C.3       12 UNK         0.1400 
     71 CB         -2.8557  -18.2730  -46.5729 C.3       12 UNK        -0.1800 
     72 C          -3.3517  -20.5561  -47.5609 C.2       12 UNK         0.5000 
     73 O          -4.2221  -20.6099  -48.4317 O.2       12 UNK        -0.5000 
     74 N          -3.1737  -21.5001  -46.6264 N.am      13 UNK        -0.5000 
     75 CA         -3.9205  -22.7550  -46.5513 C.3       13 UNK         0.1400 
     76 CB         -3.6508  -23.4432  -45.2050 C.3       13 UNK        -0.1800 
     77 C          -3.6055  -23.6970  -47.7268 C.2       13 UNK         0.5000 
     78 O          -4.5351  -24.2143  -48.3472 O.2       13 UNK        -0.5000 
     79 N          -2.3131  -23.8661  -48.0482 N.am      14 UNK        -0.5000 
     80 CA         -1.8320  -24.6276  -49.2086 C.3       14 UNK         0.1400 
     81 CB         -0.2985  -24.7126  -49.1719 C.3       14 UNK        -0.1800 
     82 C          -2.3078  -24.0344  -50.5485 C.2       14 UNK         0.5000 
     83 O          -2.6069  -24.7805  -51.4810 O.2       14 UNK        -0.5000 
     84 N          -2.4255  -22.7028  -50.5850 N.am      15 UNK        -0.5000 
     85 CA         -2.9842  -21.9050  -51.6705 C.3       15 UNK         0.1400 
     86 CB         -2.4615  -20.4676  -51.5200 C.3       15 UNK        -0.1800 
     87 C          -4.5241  -21.9243  -51.7309 C.2       15 UNK         0.5000 
     88 O          -5.0825  -21.1456  -52.5003 O.2       15 UNK        -0.5000 
     89 N          -5.1889  -22.7688  -50.9270 N.am      16 UNK        -0.5000 
     90 CA         -6.6389  -22.9777  -50.8684 C.3       16 UNK         0.1400 
     91 CB         -7.1454  -23.6283  -52.1729 C.3       16 UNK        -0.1800 
     92 C          -7.4026  -21.6925  -50.4930 C.2       16 UNK         0.5000 
     93 O          -8.3276  -21.2880  -51.1992 O.2       16 UNK        -0.5000 
     94 N          -6.9667  -21.0693  -49.3892 N.am      17 UNK        -0.5000 
     95 CA         -7.4157  -19.7773  -48.8624 C.3       17 UNK         0.1400 
     96 CB         -8.9171  -19.7904  -48.5033 C.3       17 UNK        -0.1800 
     97 C          -7.0062  -18.6189  -49.7926 C.2       17 UNK         0.5000 
     98 O          -7.8253  -17.7587  -50.1207 O.2       17 UNK        -0.5000 
     99 N          -5.7243  -18.6339  -50.1869 N.am      18 UNK        -0.5000 
    100 CA        -5.0352  -17.6296  -51.0054 C.3       18 UNK         0.1400 
    101 CB        -4.9453  -16.2906  -50.2497 C.3       18 UNK        -0.1800 
    102 C         -5.5922  -17.4745  -52.4384 C.2       18 UNK         0.5000 
    103 O         -5.5009  -16.3928  -53.0215 O.2       18 UNK        -0.5000 
    104 N         -6.1241  -18.5667  -53.0012 N.am      19 UNK        -0.5000 
    105 CA        -6.5131  -18.6786  -54.4091 C.3       19 UNK         0.1400 
    106 CB        -7.5590  -19.7959  -54.5463 C.3       19 UNK        -0.1800 
    107 C         -5.3025  -18.9510  -55.3287 C.2       19 UNK         0.5000 
    108 O         -5.3940  -18.7052  -56.5321 O.2       19 UNK        -0.5000 
    109 N         -4.2019  -19.4385  -54.7366 N.am      20 UNK        -0.5000 
    110 CA        -2.9376  -19.8542  -55.3499 C.3       20 UNK         0.1400 
    111 CB        -2.3088  -18.7278  -56.2003 C.3       20 UNK        -0.1800 
    112 C         -3.0681  -21.2041  -56.0823 C.2       20 UNK         0.5000 
    113 O         -4.0120  -21.9531  -55.8210 O.2       20 UNK        -0.5000 
    114 N         -2.0837  -21.5125  -56.9406 N.am      21 UNK        -0.5000 
    115 CA        -1.9031  -22.7847  -57.6519 C.3       21 UNK         0.1400 
    116 CB        -3.0303  -23.0095  -58.6825 C.3       21 UNK        -0.1800 
    117 C         -1.7150  -23.9678  -56.6771 C.2       21 UNK         0.5000 
    118 O         -2.4294  -24.9688  -56.7638 O.2       21 UNK        -0.5000 
    119 N         -0.7635  -23.7996  -55.7476 N.am      22 UNK        -0.5000 
    120 CA        -0.3672  -24.7779  -54.7208 C.3       22 UNK         0.1400 
    121 C          0.0338  -26.1627  -55.3061 C.2       22 UNK         0.5000 
    122 N         -0.3827  -27.2538  -54.6779 N.am      22 UNK        -0.7600 
    123 O          0.7591  -26.2529  -56.2946 O.2       22 UNK        -0.5000 
    124 C124        0.7922  -24.2371  -53.8450 C.3       23 UNK        -0.0398 
    125 S125        0.3483  -22.7525  -52.8825 S.3       23 UNK        -0.2404 
    126 C126        1.4279  -21.4801  -53.6033 C.3       23 UNK        -0.0205 
    127 H127       -0.6835  -11.3861  -52.1064 H         1 UNK         0.0600 
    128 H128       -2.3869  -11.4197  -51.6367 H         1 UNK         0.0600 
    129 H129       -1.6547  -12.8304  -52.4059 H         1 UNK         0.0600 
    130 H130       -1.2801  -14.4637  -50.9362 H         1 UNK         0.3000 
    131 H131        0.0603  -14.0194  -48.4179 H         1 UNK         0.0600 
    132 H132       -0.2893  -16.5764  -48.1886 H         1 UNK         0.0800 
    133 H133        0.7716  -15.9667  -49.4082 H         1 UNK         0.0800 
    134 H134        0.5317  -16.0333  -51.8228 H         1 UNK         0.0800 
    135 H135       -0.6211  -16.9802  -52.7205 H         1 UNK         0.0800 
    136 H136       -0.0768  -19.2091  -53.3657 H         1 UNK         0.1150 
    137 H137        3.3343  -21.1917  -51.6861 H         1 UNK         0.1150 
    138 H138        2.1682  -17.3519  -50.2186 H         1 UNK         0.1150 
    139 H139        4.9239  -19.5935  -50.3464 H         1 UNK         0.0800 
    140 H140        4.1903  -18.3011  -49.4345 H         1 UNK         0.0800 
    141 H141        1.7704  -19.0159  -48.3272 H         1 UNK         0.0800 
    142 H142        2.4560  -19.2843  -46.7699 H         1 UNK         0.0800 
    143 H143        1.4586  -21.8220  -47.9764 H         1 UNK         0.0600 
    144 H144        1.6414  -20.7332  -45.3659 H         1 UNK         0.3000 
    145 H145       -0.4463  -23.1448  -43.7339 H         1 UNK         0.0600 
    146 H146        1.6115  -23.3005  -42.3602 H         1 UNK         0.0600 
    147 H147        2.5582  -22.5471  -43.6403 H         1 UNK         0.0600 
    148 H148        1.8353  -24.1298  -43.8934 H         1 UNK         0.0600 
    149 H149        0.9109  -20.8777  -42.7071 H         1 UNK         0.3000 
    150 H150       -1.7086  -18.4738  -43.2862 H         1 UNK         0.0600 
    151 H151       -2.2342  -19.6147  -41.1645 H         1 UNK         0.0600 
    152 H152       -1.2034  -18.2369  -40.8130 H         1 UNK         0.0600 
    153 H153       -0.5299  -19.8570  -40.8124 H         1 UNK         0.0600 
    154 H154        0.8644  -18.1510  -42.1590 H         1 UNK         0.3000 
    155 H155        2.7160  -17.5335  -45.1578 H         1 UNK         0.0600 
    156 H156        1.8350  -15.3434  -44.6271 H         1 UNK         0.0600 
    157 H157        3.3122  -15.5411  -43.7057 H         1 UNK         0.0600 
    158 H158        1.7481  -15.7035  -42.9082 H         1 UNK         0.0600 
    159 H159        3.3727  -17.6558  -42.3575 H         1 UNK         0.3000 
    160 H160        4.3383  -21.0791  -42.3152 H         1 UNK         0.0600 
    161 H161        6.0217  -18.5145  -42.2974 H         1 UNK         0.0600 
    162 H162        6.2774  -19.8974  -43.3550 H         1 UNK         0.0600 
    163 H163        6.4959  -20.0730  -41.6212 H         1 UNK         0.0600 
    164 H164        4.4900  -18.9426  -40.3965 H         1 UNK         0.3000 
    165 H165        1.2738  -19.4824  -38.9402 H         1 UNK         0.0600 
    166 H166        2.6701  -19.7685  -36.9212 H         1 UNK         0.0600 
    167 H167        2.7935  -21.1965  -37.9354 H         1 UNK         0.0600 
    168 H168        4.1084  -20.0275  -37.9087 H         1 UNK         0.0600 
    169 H169        3.2887  -17.6695  -38.1856 H         1 UNK         0.3000 
    170 H170        2.4523  -15.3283  -38.4045 H         1 UNK         0.0600 
    171 H171        4.1647  -15.5056  -40.9689 H         1 UNK         0.0600 
    172 H172        4.3174  -14.2584  -39.7345 H         1 UNK         0.0600 
    173 H173        4.7188  -15.9224  -39.3504 H         1 UNK         0.0600 
    174 H174        1.1531  -15.2099  -40.9438 H         1 UNK         0.3000 
    175 H175       -0.2844  -12.1100  -40.4223 H         1 UNK         0.0600 
    176 H176        1.6798  -12.6073  -42.7271 H         1 UNK         0.0600 
    177 H177        0.3213  -11.4830  -42.7539 H         1 UNK         0.0600 
    178 H178        1.6769  -11.1972  -41.6733 H         1 UNK         0.0600 
    179 H179       -0.2957  -14.0426  -42.6056 H         1 UNK         0.3000 
    180 H180       -1.4521  -16.2995  -42.0701 H         1 UNK         0.0600 
    181 H181       -4.1938  -15.5162  -40.9561 H         1 UNK         0.0600 
    182 H182       -3.0563  -16.6182  -40.1889 H         1 UNK         0.0600 
    183 H183       -3.7838  -17.0500  -41.7257 H         1 UNK         0.0600 
    184 H184       -3.6922  -14.9325  -43.2738 H         1 UNK         0.3000 
    185 H185       -3.4736  -15.0475  -45.7352 H         1 UNK         0.0600 
    186 H186       -2.3195  -12.2311  -45.2219 H         1 UNK         0.0600 
    187 H187       -3.6587  -12.5951  -46.3074 H         1 UNK         0.0600 
    188 H188       -3.8452  -12.8279  -44.5799 H         1 UNK         0.0600 
    189 H189       -0.7254  -14.5908  -46.3224 H         1 UNK         0.3000 
    190 H190       -0.5884  -19.3128  -46.3919 H         1 UNK         0.3000 
    191 H191       -2.3677  -18.9351  -48.5444 H         1 UNK         0.0600 
    192 H192       -2.1956  -17.4065  -46.5990 H         1 UNK         0.0600 
    193 H193       -2.8916  -18.6338  -45.5450 H         1 UNK         0.0600 
    194 H194       -3.8559  -17.9283  -46.8382 H         1 UNK         0.0600 
    195 H195       -2.4829  -21.3378  -45.8986 H         1 UNK         0.3000 
    196 H196       -4.9843  -22.5127  -46.5966 H         1 UNK         0.0600 
    197 H197       -3.9467  -22.8057  -44.3717 H         1 UNK         0.0600 
    198 H198       -2.5960  -23.6873  -45.0792 H         1 UNK         0.0600 
    199 H199       -4.2158  -24.3723  -45.1211 H         1 UNK         0.0600 
    200 H200       -1.6006  -23.4310  -47.4675 H         1 UNK         0.3000 
    201 H201       -2.2336  -25.6399  -49.1325 H         1 UNK         0.0600 
    202 H202        0.0486  -25.1953  -48.2583 H         1 UNK         0.0600 
    203 H203        0.1600  -23.7246  -49.2238 H         1 UNK         0.0600 
    204 H204        0.0808  -25.2935  -50.0136 H         1 UNK         0.0600 
    205 H205       -2.0570  -22.1750  -49.7987 H         1 UNK         0.3000 
    206 H206       -2.6246  -22.3057  -52.6199 H         1 UNK         0.0600 
    207 H207       -1.3735  -20.4512  -51.5181 H         1 UNK         0.0600 
    208 H208       -2.7937  -20.0188  -50.5867 H         1 UNK         0.0600 
    209 H209       -2.7951  -19.8177  -52.3254 H         1 UNK         0.0600 
    210 H210       -4.6499  -23.3275  -50.2761 H         1 UNK         0.3000 
    211 H211       -6.8152  -23.6872  -50.0588 H         1 UNK         0.0600 
    212 H212       -7.0255  -22.9672  -53.0315 H         1 UNK         0.0600 
    213 H213       -8.2043  -23.8784  -52.0985 H         1 UNK         0.0600 
    214 H214       -6.6077  -24.5523  -52.3854 H         1 UNK         0.0600 
    215 H215       -6.1361  -21.4389  -48.9411 H         1 UNK         0.3000 
    216 H216       -6.8659  -19.6252  -47.9324 H         1 UNK         0.0600 
    217 H217       -9.1953  -18.8781  -47.9747 H         1 UNK         0.0600 
    218 H218       -9.1594  -20.6297  -47.8516 H         1 UNK         0.0600 
    219 H219       -9.5515  -19.8566  -49.3873 H         1 UNK         0.0600 
    220 H220       -5.1480  -19.3936  -49.8406 H         1 UNK         0.3000 
    221 H221       -4.0158  -17.9940  -51.1267 H         1 UNK         0.0600 
    222 H222       -4.5517  -16.4383  -49.2442 H         1 UNK         0.0600 
    223 H223       -4.2755  -15.5963  -50.7584 H         1 UNK         0.0600 
    224 H224       -5.9172  -15.8048  -50.1624 H         1 UNK         0.0600 
    225 H225       -6.1088  -19.4380  -52.4806 H         1 UNK         0.3000 
    226 H226       -6.9720  -17.7406  -54.7280 H         1 UNK         0.0600 
    227 H227       -8.4262  -19.6052  -53.9137 H         1 UNK         0.0600 
    228 H228       -7.9143  -19.8743  -55.5744 H         1 UNK         0.0600 
    229 H229       -7.1488  -20.7667  -54.2660 H         1 UNK         0.0600 
    230 H230       -4.3291  -19.7381  -53.7770 H         1 UNK         0.3000 
    231 H231       -2.2544  -20.0427  -54.5224 H         1 UNK         0.0600 
    232 H232       -1.2630  -18.9376  -56.4263 H         1 UNK         0.0600 
    233 H233       -2.3320  -17.7760  -55.6692 H         1 UNK         0.0600 
    234 H234       -2.8290  -18.5938  -57.1492 H         1 UNK         0.0600 
    235 H235       -1.3567  -20.8272  -57.0904 H         1 UNK         0.3000 
    236 H236       -0.9691  -22.6977  -58.2091 H         1 UNK         0.0600 
    237 H237       -4.0001  -23.1511  -58.2049 H         1 UNK         0.0600 
    238 H238       -3.1137  -22.1640  -59.3652 H         1 UNK         0.0600 
    239 H239       -2.8329  -23.8959  -59.2864 H         1 UNK         0.0600 
    240 H240       -0.2386  -22.9393  -55.7527 H         1 UNK         0.3000 
    241 H241       -1.2385  -24.9244  -54.0790 H         1 UNK         0.0600 
    242 H242       -0.1170  -28.1579  -55.0370 H         1 UNK         0.3800 
    243 H243       -0.9739  -27.2007  -53.8624 H         1 UNK         0.3800 
    244 H244        1.6719  -24.0380  -54.4592 H         1 UNK         0.0800 
    245 H245        1.1005  -24.9933  -53.1205 H         1 UNK         0.0800 
    246 H246        2.4020  -21.9091  -53.8428 H         1 UNK         0.0800 
    247 H247        1.0024  -21.1298  -54.5445 H         1 UNK         0.0800 
@<TRIPOS>BOND
     1    1    2 1    
     2    1  127 1    
     3    1  128 1    
     4    1  129 1    
     5    2    3 2    
     6    2    4 am   BACKBONE|DICT|INTERRES
     7    4    5 1    
     8    4  130 1    
     9    5    6 1    
    10    5   65 1    
    11    5  131 1    
    12    6    7 1    
    13    6  132 1    
    14    6  133 1    
    15    7    8 1    
    16    8    9 1    
    17    8  134 1    
    18    8  135 1    
    19    9   10 ar   
    20    9   14 ar   
    21   10   11 ar   
    22   10  136 1    
    23   11   12 ar   
    24   11  126 1    
    25   12   13 ar   
    26   12  137 1    
    27   13   14 ar   
    28   13   15 1    
    29   14  138 1    
    30   15   16 1    
    31   15  139 1    
    32   15  140 1    
    33   16   17 1    
    34   17   18 1    
    35   17  141 1    
    36   17  142 1    
    37   18   19 1    
    38   18   67 1    
    39   18  143 1    
    40   19   20 am   BACKBONE|DICT|INTERRES
    41   19  144 1    
    42   20   21 2    
    43   20   22 1    
    44   22   23 1    
    45   22   24 1    
    46   22  145 1    
    47   23  146 1    
    48   23  147 1    
    49   23  148 1    
    50   24   25 am   BACKBONE|DICT|INTERRES
    51   24  149 1    
    52   25   26 2    
    53   25   27 1    
    54   27   28 1    
    55   27   29 1    
    56   27  150 1    
    57   28  151 1    
    58   28  152 1    
    59   28  153 1    
    60   29   30 am   BACKBONE|DICT|INTERRES
    61   29  154 1    
    62   30   31 2    
    63   30   32 1    
    64   32   33 1    
    65   32   34 1    
    66   32  155 1    
    67   33  156 1    
    68   33  157 1    
    69   33  158 1    
    70   34   35 am   BACKBONE|DICT|INTERRES
    71   34  159 1    
    72   35   36 2    
    73   35   37 1    
    74   37   38 1    
    75   37   39 1    
    76   37  160 1    
    77   38  161 1    
    78   38  162 1    
    79   38  163 1    
    80   39   40 am   BACKBONE|DICT|INTERRES
    81   39  164 1    
    82   40   41 2    
    83   40   42 1    
    84   42   43 1    
    85   42   44 1    
    86   42  165 1    
    87   43  166 1    
    88   43  167 1    
    89   43  168 1    
    90   44   45 am   BACKBONE|DICT|INTERRES
    91   44  169 1    
    92   45   46 2    
    93   45   47 1    
    94   47   48 1    
    95   47   49 1    
    96   47  170 1    
    97   48  171 1    
    98   48  172 1    
    99   48  173 1    
   100   49   50 am   BACKBONE|DICT|INTERRES
   101   49  174 1    
   102   50   51 2    
   103   50   52 1    
   104   52   53 1    
   105   52   54 1    
   106   52  175 1    
   107   53  176 1    
   108   53  177 1    
   109   53  178 1    
   110   54   55 am   BACKBONE|DICT|INTERRES
   111   54  179 1    
   112   55   56 2    
   113   55   57 1    
   114   57   58 1    
   115   57   59 1    
   116   57  180 1    
   117   58  181 1    
   118   58  182 1    
   119   58  183 1    
   120   59   60 am   BACKBONE|DICT|INTERRES
   121   59  184 1    
   122   60   61 2    
   123   60   62 1    
   124   62   63 1    
   125   62   64 1    
   126   62  185 1    
   127   63  186 1    
   128   63  187 1    
   129   63  188 1    
   130   64   65 am   BACKBONE|DICT|INTERRES
   131   64  189 1    
   132   65   66 2    
   133   67   68 2    
   134   67   69 am   BACKBONE|DICT|INTERRES
   135   69   70 1    
   136   69  190 1    
   137   70   71 1    
   138   70   72 1    
   139   70  191 1    
   140   71  192 1    
   141   71  193 1    
   142   71  194 1    
   143   72   73 2    
   144   72   74 am   BACKBONE|DICT|INTERRES
   145   74   75 1    
   146   74  195 1    
   147   75   76 1    
   148   75   77 1    
   149   75  196 1    
   150   76  197 1    
   151   76  198 1    
   152   76  199 1    
   153   77   78 2    
   154   77   79 am   BACKBONE|DICT|INTERRES
   155   79   80 1    
   156   79  200 1    
   157   80   81 1    
   158   80   82 1    
   159   80  201 1    
   160   81  202 1    
   161   81  203 1    
   162   81  204 1    
   163   82   83 2    
   164   82   84 am   BACKBONE|DICT|INTERRES
   165   84   85 1    
   166   84  205 1    
   167   85   86 1    
   168   85   87 1    
   169   85  206 1    
   170   86  207 1    
   171   86  208 1    
   172   86  209 1    
   173   87   88 2    
   174   87   89 am   BACKBONE|DICT|INTERRES
   175   89   90 1    
   176   89  210 1    
   177   90   91 1    
   178   90   92 1    
   179   90  211 1    
   180   91  212 1    
   181   91  213 1    
   182   91  214 1    
   183   92   93 2    
   184   92   94 am   BACKBONE|DICT|INTERRES
   185   94   95 1    
   186   94  215 1    
   187   95   96 1    
   188   95   97 1    
   189   95  216 1    
   190   96  217 1    
   191   96  218 1    
   192   96  219 1    
   193   97   98 2    
   194   97   99 am   BACKBONE|DICT|INTERRES
   195   99  100 1    
   196   99  220 1    
   197  100  101 1    
   198  100  102 1    
   199  100  221 1    
   200  101  222 1    
   201  101  223 1    
   202  101  224 1    
   203  102  103 2    
   204  102  104 am   BACKBONE|DICT|INTERRES
   205  104  105 1    
   206  104  225 1    
   207  105  106 1    
   208  105  107 1    
   209  105  226 1    
   210  106  227 1    
   211  106  228 1    
   212  106  229 1    
   213  107  108 2    
   214  107  109 am   BACKBONE|DICT|INTERRES
   215  109  110 1    
   216  109  230 1    
   217  110  111 1    
   218  110  112 1    
   219  110  231 1    
   220  111  232 1    
   221  111  233 1    
   222  111  234 1    
   223  112  113 2    
   224  112  114 am   BACKBONE|DICT|INTERRES
   225  114  115 1    
   226  114  235 1    
   227  115  116 1    
   228  115  117 1    
   229  115  236 1    
   230  116  237 1    
   231  116  238 1    
   232  116  239 1    
   233  117  118 2    
   234  117  119 am   BACKBONE|DICT|INTERRES
   235  119  120 1    
   236  119  240 1    
   237  120  121 1    
   238  120  124 1    
   239  120  241 1    
   240  121  122 am   BACKBONE|DICT|INTERRES
   241  121  123 2    
   242  122  242 1    
   243  122  243 1    
   244  124  125 1    
   245  124  244 1    
   246  124  245 1    
   247  125  126 1    
   248  126  246 1    
   249  126  247 1    
@<TRIPOS>SUBSTRUCTURE
     1 UNK         1 GROUP             0       ****    0 ROOT    
