@<TRIPOS>MOLECULE
3R540
247   249    1
SMALL
USER_CHARGES


@<TRIPOS>ATOM
      1 CA          4.4259  -10.8239  -49.1768 C.3       0 UNK        -0.1800 
      2 C           3.6243  -11.2624  -47.9610 C.2       0 UNK         0.5000 
      3 O           3.8423  -10.7465  -46.8655 O.2       0 UNK        -0.5000 
      4 N           2.6805  -12.1935  -48.1508 N.am      1 UNK        -0.5000 
      5 CA          1.8184  -12.7826  -47.1131 C.3       1 UNK         0.1400 
      6 C6          1.0068  -13.9868  -47.6561 C.3       23 UNK        -0.0398 
      7 S7         -0.0404  -13.5827  -49.1038 S.3       23 UNK        -0.2404 
      8 C8          0.7700  -14.5097  -50.4469 C.3       23 UNK        -0.0205 
      9 C9          0.3980  -15.9844  -50.4186 C.ar      23 UNK        -0.0193 
     10 C10        -0.7909  -16.4199  -51.0121 C.ar      23 UNK        -0.1150 
     11 C11        -1.1443  -17.7725  -50.9882 C.ar      23 UNK        -0.0193 
     12 C12        -0.3009  -18.6917  -50.3593 C.ar      23 UNK        -0.1150 
     13 C13         0.8848  -18.2662  -49.7533 C.ar      23 UNK        -0.0193 
     14 C14         1.2370  -16.9150  -49.8001 C.ar      23 UNK        -0.1150 
     15 C15         1.7759  -19.2599  -49.0250 C.3       23 UNK        -0.0205 
     16 S16         1.6430  -19.0857  -47.2161 S.3       23 UNK        -0.2404 
     17 C17        -0.0777  -19.6176  -46.9140 C.3       23 UNK        -0.0398 
     18 CA         -0.1708  -21.1205  -46.5694 C.3       11 UNK         0.1400 
     19 N           0.4792  -21.4278  -45.2896 N.am      11 UNK        -0.5000 
     20 C           0.7590  -22.6546  -44.8290 C.2       10 UNK         0.5000 
     21 O           0.4334  -23.6912  -45.4066 O.2       10 UNK        -0.5000 
     22 CA          1.4880  -22.7308  -43.4792 C.3       10 UNK         0.1400 
     23 CB          2.9798  -22.4003  -43.6451 C.3       10 UNK        -0.1800 
     24 N           0.8890  -21.8088  -42.5161 N.am      10 UNK        -0.5000 
     25 C          -0.1185  -22.1226  -41.6904 C.2       9 UNK         0.5000 
     26 O          -0.6110  -23.2482  -41.6096 O.2       9 UNK        -0.5000 
     27 CA         -0.6836  -20.9880  -40.8117 C.3       9 UNK         0.1400 
     28 CB          0.0451  -20.9399  -39.4604 C.3       9 UNK        -0.1800 
     29 N          -0.6030  -19.6695  -41.4415 N.am      9 UNK        -0.5000 
     30 C          -1.2840  -19.3047  -42.5369 C.2       8 UNK         0.5000 
     31 O          -2.0870  -20.0344  -43.1160 O.2       8 UNK        -0.5000 
     32 CA         -0.9842  -17.9077  -43.1132 C.3       8 UNK         0.1400 
     33 CB         -1.9594  -16.8726  -42.5357 C.3       8 UNK        -0.1800 
     34 N           0.3933  -17.4488  -42.9046 N.am      8 UNK        -0.5000 
     35 C           1.5018  -18.1040  -43.2870 C.2       7 UNK         0.5000 
     36 O           1.4829  -19.2128  -43.8202 O.2       7 UNK        -0.5000 
     37 CA          2.8621  -17.4396  -43.0069 C.3       7 UNK         0.1400 
     38 CB          3.4281  -16.8311  -44.2989 C.3       7 UNK        -0.1800 
     39 N           2.8058  -16.4135  -41.9633 N.am      7 UNK        -0.5000 
     40 C           2.5893  -16.6665  -40.6622 C.2       6 UNK         0.5000 
     41 O           2.4414  -17.8028  -40.2101 O.2       6 UNK        -0.5000 
     42 CA          2.4950  -15.4607  -39.7033 C.3       6 UNK         0.1400 
     43 CB          3.8206  -15.2708  -38.9506 C.3       6 UNK        -0.1800 
     44 N           2.1426  -14.2021  -40.3630 N.am      6 UNK        -0.5000 
     45 C           0.9882  -13.9553  -40.9980 C.2       5 UNK         0.5000 
     46 O           0.0551  -14.7560  -41.0465 O.2       5 UNK        -0.5000 
     47 CA          0.8767  -12.6121  -41.7462 C.3       5 UNK         0.1400 
     48 CB          0.1288  -11.5770  -40.8935 C.3       5 UNK        -0.1800 
     49 N           2.1622  -12.0434  -42.1658 N.am      5 UNK        -0.5000 
     50 C           3.0439  -12.6269  -42.9885 C.2       4 UNK         0.5000 
     51 O           2.9052  -13.7670  -43.4330 O.2       4 UNK        -0.5000 
     52 CA          4.2762  -11.7864  -43.3737 C.3       4 UNK         0.1400 
     53 CB          5.2571  -12.5560  -44.2768 C.3       4 UNK        -0.1800 
     54 N           3.8757  -10.5576  -44.0553 N.am      4 UNK        -0.5000 
     55 C           3.4544   -9.4332  -43.4623 C.2       3 UNK         0.5000 
     56 O           3.3688   -9.2981  -42.2408 O.2       3 UNK        -0.5000 
     57 CA          3.0123   -8.2941  -44.3926 C.3       3 UNK         0.1400 
     58 CB          4.2223   -7.6461  -45.0848 C.3       3 UNK        -0.1800 
     59 N           2.0866   -8.8018  -45.4031 N.am      3 UNK        -0.5000 
     60 C           0.7511   -8.7856  -45.2901 C.2       2 UNK         0.5000 
     61 O           0.1489   -8.2631  -44.3514 O.2       2 UNK        -0.5000 
     62 CA         -0.0528   -9.4752  -46.4110 C.3       2 UNK         0.1400 
     63 CB         -0.4129   -8.4687  -47.5142 C.3       2 UNK        -0.1800 
     64 N           0.6617  -10.6030  -47.0092 N.am      2 UNK        -0.5000 
     65 C           0.9065  -11.7651  -46.3870 C.2       1 UNK         0.5000 
     66 O           0.4608  -12.0417  -45.2739 O.2       1 UNK        -0.5000 
     67 C          -1.6289  -21.6206  -46.6676 C.2       11 UNK         0.5000 
     68 O          -2.1432  -21.7389  -47.7801 O.2       11 UNK        -0.5000 
     69 N          -2.2569  -21.9450  -45.5271 N.am      12 UNK        -0.5000 
     70 CA         -3.5445  -22.6372  -45.4404 C.3       12 UNK         0.1400 
     71 CB         -3.9644  -22.7437  -43.9666 C.3       12 UNK        -0.1800 
     72 C          -3.5318  -24.0338  -46.0957 C.2       12 UNK         0.5000 
     73 O          -4.5577  -24.4603  -46.6274 O.2       12 UNK        -0.5000 
     74 N          -2.3691  -24.7030  -46.0987 N.am      13 UNK        -0.5000 
     75 CA         -2.1236  -25.9558  -46.8129 C.3       13 UNK         0.1400 
     76 CB         -1.0454  -26.7596  -46.0641 C.3       13 UNK        -0.1800 
     77 C          -1.7508  -25.6697  -48.2827 C.2       13 UNK         0.5000 
     78 O          -0.6592  -26.0236  -48.7332 O.2       13 UNK        -0.5000 
     79 N          -2.6646  -24.9997  -48.9951 N.am      14 UNK        -0.5000 
     80 CA         -2.5546  -24.6535  -50.4111 C.3       14 UNK         0.1400 
     81 CB         -3.6895  -23.6781  -50.7616 C.3       14 UNK        -0.1800 
     82 C          -2.6139  -25.8956  -51.3193 C.2       14 UNK         0.5000 
     83 O          -3.1396  -26.9351  -50.9093 O.2       14 UNK        -0.5000 
     84 N          -2.1065  -25.7528  -52.5505 N.am      15 UNK        -0.5000 
     85 CA         -2.1208  -26.7731  -53.6020 C.3       15 UNK         0.1400 
     86 CB         -1.4642  -26.2033  -54.8684 C.3       15 UNK        -0.1800 
     87 C          -3.5502  -27.2635  -53.8985 C.2       15 UNK         0.5000 
     88 O          -4.3913  -26.4653  -54.3139 O.2       15 UNK        -0.5000 
     89 N          -3.8131  -28.5449  -53.6017 N.am      16 UNK        -0.5000 
     90 CA         -5.1197  -29.2175  -53.6708 C.3       16 UNK         0.1400 
     91 CB         -5.5635  -29.3763  -55.1403 C.3       16 UNK        -0.1800 
     92 C          -6.2119  -28.5578  -52.7934 C.2       16 UNK         0.5000 
     93 O          -7.3998  -28.7027  -53.0856 O.2       16 UNK        -0.5000 
     94 N          -5.7860  -27.8241  -51.7518 N.am      17 UNK        -0.5000 
     95 CA         -6.5804  -26.9721  -50.8599 C.3       17 UNK         0.1400 
     96 CB         -7.5873  -27.8080  -50.0430 C.3       17 UNK        -0.1800 
     97 C          -7.2439  -25.7656  -51.5638 C.2       17 UNK         0.5000 
     98 O          -8.1333  -25.1414  -50.9821 O.2       17 UNK        -0.5000 
     99 N          -6.8030  -25.4313  -52.7854 N.am      18 UNK        -0.5000 
    100 CA        -7.3084  -24.3134  -53.5750 C.3       18 UNK         0.1400 
    101 CB        -7.1560  -24.6381  -55.0711 C.3       18 UNK        -0.1800 
    102 C         -6.5705  -23.0261  -53.1780 C.2       18 UNK         0.5000 
    103 O         -5.6170  -22.6246  -53.8456 O.2       18 UNK        -0.5000 
    104 N         -7.0195  -22.3956  -52.0860 N.am      19 UNK        -0.5000 
    105 CA        -6.4403  -21.1745  -51.5131 C.3       19 UNK         0.1400 
    106 CB        -7.1661  -20.8475  -50.1998 C.3       19 UNK        -0.1800 
    107 C         -6.4404  -19.9526  -52.4562 C.2       19 UNK         0.5000 
    108 O         -5.6299  -19.0482  -52.2640 O.2       19 UNK        -0.5000 
    109 N         -7.3257  -19.9518  -53.4623 N.am      20 UNK        -0.5000 
    110 CA        -7.3657  -18.9519  -54.5304 C.3       20 UNK         0.1400 
    111 CB        -8.7467  -18.9969  -55.2023 C.3       20 UNK        -0.1800 
    112 C         -6.2513  -19.1454  -55.5801 C.2       20 UNK         0.5000 
    113 O         -5.8268  -18.1645  -56.1921 O.2       20 UNK        -0.5000 
    114 N         -5.8083  -20.3948  -55.7805 N.am      21 UNK        -0.5000 
    115 CA        -4.7294  -20.7599  -56.7019 C.3       21 UNK         0.1400 
    116 CB        -5.0333  -22.1384  -57.3089 C.3       21 UNK        -0.1800 
    117 C         -3.3604  -20.7791  -55.9995 C.2       21 UNK         0.5000 
    118 O         -2.3401  -20.5545  -56.6528 O.2       21 UNK        -0.5000 
    119 N         -3.3656  -21.0571  -54.6897 N.am      22 UNK        -0.5000 
    120 CA        -2.2222  -21.1306  -53.7653 C.3       22 UNK         0.1400 
    121 C         -1.3167  -22.3709  -53.9975 C.2       22 UNK         0.5000 
    122 N         -0.8837  -22.6352  -55.2221 N.am      22 UNK        -0.7600 
    123 O         -1.0205  -23.1089  -53.0625 O.2       22 UNK        -0.5000 
    124 C124       -1.3704  -19.8319  -53.6912 C.3       23 UNK        -0.0398 
    125 S125       -2.3565  -18.3167  -53.4278 S.3       23 UNK        -0.2404 
    126 C126       -2.4524  -18.2324  -51.6132 C.3       23 UNK        -0.0205 
    127 H127        5.4858  -11.0202  -49.0155 H         1 UNK         0.0600 
    128 H128        4.2977   -9.7545  -49.3437 H         1 UNK         0.0600 
    129 H129        4.1150  -11.3502  -50.0795 H         1 UNK         0.0600 
    130 H130        2.5282  -12.5491  -49.0833 H         1 UNK         0.3000 
    131 H131        2.4885  -13.1721  -46.3434 H         1 UNK         0.0600 
    132 H132        0.3693  -14.4051  -46.8749 H         1 UNK         0.0800 
    133 H133        1.6965  -14.7884  -47.9172 H         1 UNK         0.0800 
    134 H134        1.8521  -14.3833  -50.3916 H         1 UNK         0.0800 
    135 H135        0.4645  -14.0792  -51.4018 H         1 UNK         0.0800 
    136 H136       -1.4456  -15.7044  -51.4899 H         1 UNK         0.1150 
    137 H137       -0.5778  -19.7363  -50.3234 H         1 UNK         0.1150 
    138 H138        2.1571  -16.5901  -49.3356 H         1 UNK         0.1150 
    139 H139        1.5329  -20.2845  -49.3105 H         1 UNK         0.0800 
    140 H140        2.8134  -19.0978  -49.3205 H         1 UNK         0.0800 
    141 H141       -0.6893  -19.3737  -47.7818 H         1 UNK         0.0800 
    142 H142       -0.4800  -19.0188  -46.0981 H         1 UNK         0.0800 
    143 H143        0.3756  -21.6703  -47.3388 H         1 UNK         0.0600 
    144 H144        0.8134  -20.6244  -44.7610 H         1 UNK         0.3000 
    145 H145        1.4110  -23.7554  -43.1091 H         1 UNK         0.0600 
    146 H146        3.5094  -22.4898  -42.6966 H         1 UNK         0.0600 
    147 H147        3.4539  -23.0858  -44.3485 H         1 UNK         0.0600 
    148 H148        3.1346  -21.3878  -44.0198 H         1 UNK         0.0600 
    149 H149        1.1891  -20.8431  -42.5743 H         1 UNK         0.3000 
    150 H150       -1.7368  -21.2089  -40.6257 H         1 UNK         0.0600 
    151 H151       -0.0070  -21.9040  -38.9528 H         1 UNK         0.0600 
    152 H152       -0.4025  -20.1996  -38.7970 H         1 UNK         0.0600 
    153 H153        1.0996  -20.6876  -39.5812 H         1 UNK         0.0600 
    154 H154        0.0531  -19.0127  -41.0424 H         1 UNK         0.3000 
    155 H155       -1.1499  -17.9565  -44.1895 H         1 UNK         0.0600 
    156 H156       -1.8344  -16.7616  -41.4578 H         1 UNK         0.0600 
    157 H157       -2.9943  -17.1651  -42.7181 H         1 UNK         0.0600 
    158 H158       -1.8136  -15.8936  -42.9927 H         1 UNK         0.0600 
    159 H159        0.4999  -16.5554  -42.4410 H         1 UNK         0.3000 
    160 H160        3.5462  -18.2225  -42.6733 H         1 UNK         0.0600 
    161 H161        2.7511  -16.0900  -44.7253 H         1 UNK         0.0600 
    162 H162        3.5831  -17.6015  -45.0554 H         1 UNK         0.0600 
    163 H163        4.3895  -16.3479  -44.1239 H         1 UNK         0.0600 
    164 H164        2.8888  -15.4518  -42.2774 H         1 UNK         0.3000 
    165 H165        1.7142  -15.6854  -38.9738 H         1 UNK         0.0600 
    166 H166        3.7437  -14.4752  -38.2092 H         1 UNK         0.0600 
    167 H167        4.1028  -16.1810  -38.4196 H         1 UNK         0.0600 
    168 H168        4.6364  -15.0208  -39.6301 H         1 UNK         0.0600 
    169 H169        2.8534  -13.4860  -40.3810 H         1 UNK         0.3000 
    170 H170        0.2913  -12.7974  -42.6487 H         1 UNK         0.0600 
    171 H171       -0.8468  -11.9552  -40.5850 H         1 UNK         0.0600 
    172 H172        0.6848  -11.3235  -39.9901 H         1 UNK         0.0600 
    173 H173       -0.0426  -10.6568  -41.4527 H         1 UNK         0.0600 
    174 H174        2.3591  -11.0940  -41.8697 H         1 UNK         0.3000 
    175 H175        4.8021  -11.5313  -42.4514 H         1 UNK         0.0600 
    176 H176        4.7926  -12.8513  -45.2183 H         1 UNK         0.0600 
    177 H177        6.1327  -11.9510  -44.5125 H         1 UNK         0.0600 
    178 H178        5.6114  -13.4635  -43.7862 H         1 UNK         0.0600 
    179 H179        3.8860  -10.5957  -45.0729 H         1 UNK         0.3000 
    180 H180        2.5247   -7.5287  -43.7850 H         1 UNK         0.0600 
    181 H181        4.7562   -8.3529  -45.7211 H         1 UNK         0.0600 
    182 H182        4.9323   -7.2635  -44.3505 H         1 UNK         0.0600 
    183 H183        3.9136   -6.8058  -45.7068 H         1 UNK         0.0600 
    184 H184        2.5031   -9.3074  -46.1758 H         1 UNK         0.3000 
    185 H185       -0.9806   -9.8499  -45.9734 H         1 UNK         0.0600 
    186 H186       -0.9698   -7.6245  -47.1054 H         1 UNK         0.0600 
    187 H187        0.4773   -8.0695  -48.0020 H         1 UNK         0.0600 
    188 H188       -1.0382   -8.9291  -48.2795 H         1 UNK         0.0600 
    189 H189        1.0489  -10.4642  -47.9310 H         1 UNK         0.3000 
    190 H190       -1.7966  -21.7394  -44.6501 H         1 UNK         0.3000 
    191 H191       -4.2854  -22.0330  -45.9677 H         1 UNK         0.0600 
    192 H192       -4.1134  -21.7577  -43.5271 H         1 UNK         0.0600 
    193 H193       -3.2148  -23.2671  -43.3713 H         1 UNK         0.0600 
    194 H194       -4.9051  -23.2864  -43.8643 H         1 UNK         0.0600 
    195 H195       -1.5481  -24.2571  -45.7032 H         1 UNK         0.3000 
    196 H196       -3.0352  -26.5572  -46.8184 H         1 UNK         0.0600 
    197 H197       -0.8803  -27.7267  -46.5404 H         1 UNK         0.0600 
    198 H198       -1.3420  -26.9518  -45.0330 H         1 UNK         0.0600 
    199 H199       -0.0890  -26.2364  -46.0453 H         1 UNK         0.0600 
    200 H200       -3.5273  -24.7465  -48.5307 H         1 UNK         0.3000 
    201 H201       -1.5964  -24.1538  -50.5668 H         1 UNK         0.0600 
    202 H202       -3.6128  -22.7628  -50.1742 H         1 UNK         0.0600 
    203 H203       -4.6708  -24.1157  -50.5758 H         1 UNK         0.0600 
    204 H204       -3.6537  -23.3928  -51.8136 H         1 UNK         0.0600 
    205 H205       -1.7114  -24.8504  -52.8050 H         1 UNK         0.3000 
    206 H206       -1.5183  -27.6145  -53.2543 H         1 UNK         0.0600 
    207 H207       -0.4396  -25.8862  -54.6737 H         1 UNK         0.0600 
    208 H208       -1.4294  -26.9521  -55.6605 H         1 UNK         0.0600 
    209 H209       -2.0153  -25.3441  -55.2531 H         1 UNK         0.0600 
    210 H210       -3.0629  -29.1069  -53.2235 H         1 UNK         0.3000 
    211 H211       -4.9704  -30.2173  -53.2610 H         1 UNK         0.0600 
    212 H212       -5.8031  -28.4151  -55.5964 H         1 UNK         0.0600 
    213 H213       -6.4516  -30.0045  -55.2171 H         1 UNK         0.0600 
    214 H214       -4.7838  -29.8467  -55.7392 H         1 UNK         0.0600 
    215 H215       -4.7827  -27.7559  -51.6018 H         1 UNK         0.3000 
    216 H216       -5.8683  -26.5432  -50.1536 H         1 UNK         0.0600 
    217 H217       -8.0517  -27.2060  -49.2611 H         1 UNK         0.0600 
    218 H218       -7.0962  -28.6487  -49.5530 H         1 UNK         0.0600 
    219 H219       -8.3891  -28.2033  -50.6669 H         1 UNK         0.0600 
    220 H220       -6.0322  -25.9489  -53.1959 H         1 UNK         0.3000 
    221 H221       -8.3736  -24.1736  -53.3783 H         1 UNK         0.0600 
    222 H222       -6.1138  -24.7896  -55.3520 H         1 UNK         0.0600 
    223 H223       -7.7051  -25.5421  -55.3348 H         1 UNK         0.0600 
    224 H224       -7.5456  -23.8273  -55.6877 H         1 UNK         0.0600 
    225 H225       -7.7818  -22.8177  -51.5719 H         1 UNK         0.3000 
    226 H226       -5.3962  -21.3867  -51.2781 H         1 UNK         0.0600 
    227 H227       -7.0777  -21.6669  -49.4861 H         1 UNK         0.0600 
    228 H228       -6.7412  -19.9606  -49.7276 H         1 UNK         0.0600 
    229 H229       -8.2271  -20.6564  -50.3645 H         1 UNK         0.0600 
    230 H230       -7.9763  -20.7201  -53.5300 H         1 UNK         0.3000 
    231 H231       -7.2357  -17.9620  -54.0873 H         1 UNK         0.0600 
    232 H232       -9.5417  -18.7953  -54.4841 H         1 UNK         0.0600 
    233 H233       -8.9424  -19.9687  -55.6575 H         1 UNK         0.0600 
    234 H234       -8.8227  -18.2449  -55.9888 H         1 UNK         0.0600 
    235 H235       -6.1600  -21.1397  -55.1924 H         1 UNK         0.3000 
    236 H236       -4.6782  -20.0355  -57.5174 H         1 UNK         0.0600 
    237 H237       -4.2768  -22.4148  -58.0444 H         1 UNK         0.0600 
    238 H238       -5.0488  -22.9192  -56.5482 H         1 UNK         0.0600 
    239 H239       -5.9982  -22.1436  -57.8162 H         1 UNK         0.0600 
    240 H240       -4.2499  -21.3530  -54.2899 H         1 UNK         0.3000 
    241 H241       -2.6737  -21.2668  -52.7818 H         1 UNK         0.0600 
    242 H242       -1.1572  -22.0239  -55.9836 H         1 UNK         0.3800 
    243 H243       -0.2913  -23.4310  -55.3925 H         1 UNK         0.3800 
    244 H244       -0.6219  -19.9137  -52.9026 H         1 UNK         0.0800 
    245 H245       -0.8072  -19.6950  -54.6154 H         1 UNK         0.0800 
    246 H246       -3.2455  -17.5349  -51.3397 H         1 UNK         0.0800 
    247 H247       -2.7574  -19.2025  -51.2174 H         1 UNK         0.0800 
@<TRIPOS>BOND
     1    1    2 1    
     2    1  127 1    
     3    1  128 1    
     4    1  129 1    
     5    2    3 2    
     6    2    4 am   BACKBONE|DICT|INTERRES
     7    4    5 1    
     8    4  130 1    
     9    5    6 1    
    10    5   65 1    
    11    5  131 1    
    12    6    7 1    
    13    6  132 1    
    14    6  133 1    
    15    7    8 1    
    16    8    9 1    
    17    8  134 1    
    18    8  135 1    
    19    9   10 ar   
    20    9   14 ar   
    21   10   11 ar   
    22   10  136 1    
    23   11   12 ar   
    24   11  126 1    
    25   12   13 ar   
    26   12  137 1    
    27   13   14 ar   
    28   13   15 1    
    29   14  138 1    
    30   15   16 1    
    31   15  139 1    
    32   15  140 1    
    33   16   17 1    
    34   17   18 1    
    35   17  141 1    
    36   17  142 1    
    37   18   19 1    
    38   18   67 1    
    39   18  143 1    
    40   19   20 am   BACKBONE|DICT|INTERRES
    41   19  144 1    
    42   20   21 2    
    43   20   22 1    
    44   22   23 1    
    45   22   24 1    
    46   22  145 1    
    47   23  146 1    
    48   23  147 1    
    49   23  148 1    
    50   24   25 am   BACKBONE|DICT|INTERRES
    51   24  149 1    
    52   25   26 2    
    53   25   27 1    
    54   27   28 1    
    55   27   29 1    
    56   27  150 1    
    57   28  151 1    
    58   28  152 1    
    59   28  153 1    
    60   29   30 am   BACKBONE|DICT|INTERRES
    61   29  154 1    
    62   30   31 2    
    63   30   32 1    
    64   32   33 1    
    65   32   34 1    
    66   32  155 1    
    67   33  156 1    
    68   33  157 1    
    69   33  158 1    
    70   34   35 am   BACKBONE|DICT|INTERRES
    71   34  159 1    
    72   35   36 2    
    73   35   37 1    
    74   37   38 1    
    75   37   39 1    
    76   37  160 1    
    77   38  161 1    
    78   38  162 1    
    79   38  163 1    
    80   39   40 am   BACKBONE|DICT|INTERRES
    81   39  164 1    
    82   40   41 2    
    83   40   42 1    
    84   42   43 1    
    85   42   44 1    
    86   42  165 1    
    87   43  166 1    
    88   43  167 1    
    89   43  168 1    
    90   44   45 am   BACKBONE|DICT|INTERRES
    91   44  169 1    
    92   45   46 2    
    93   45   47 1    
    94   47   48 1    
    95   47   49 1    
    96   47  170 1    
    97   48  171 1    
    98   48  172 1    
    99   48  173 1    
   100   49   50 am   BACKBONE|DICT|INTERRES
   101   49  174 1    
   102   50   51 2    
   103   50   52 1    
   104   52   53 1    
   105   52   54 1    
   106   52  175 1    
   107   53  176 1    
   108   53  177 1    
   109   53  178 1    
   110   54   55 am   BACKBONE|DICT|INTERRES
   111   54  179 1    
   112   55   56 2    
   113   55   57 1    
   114   57   58 1    
   115   57   59 1    
   116   57  180 1    
   117   58  181 1    
   118   58  182 1    
   119   58  183 1    
   120   59   60 am   BACKBONE|DICT|INTERRES
   121   59  184 1    
   122   60   61 2    
   123   60   62 1    
   124   62   63 1    
   125   62   64 1    
   126   62  185 1    
   127   63  186 1    
   128   63  187 1    
   129   63  188 1    
   130   64   65 am   BACKBONE|DICT|INTERRES
   131   64  189 1    
   132   65   66 2    
   133   67   68 2    
   134   67   69 am   BACKBONE|DICT|INTERRES
   135   69   70 1    
   136   69  190 1    
   137   70   71 1    
   138   70   72 1    
   139   70  191 1    
   140   71  192 1    
   141   71  193 1    
   142   71  194 1    
   143   72   73 2    
   144   72   74 am   BACKBONE|DICT|INTERRES
   145   74   75 1    
   146   74  195 1    
   147   75   76 1    
   148   75   77 1    
   149   75  196 1    
   150   76  197 1    
   151   76  198 1    
   152   76  199 1    
   153   77   78 2    
   154   77   79 am   BACKBONE|DICT|INTERRES
   155   79   80 1    
   156   79  200 1    
   157   80   81 1    
   158   80   82 1    
   159   80  201 1    
   160   81  202 1    
   161   81  203 1    
   162   81  204 1    
   163   82   83 2    
   164   82   84 am   BACKBONE|DICT|INTERRES
   165   84   85 1    
   166   84  205 1    
   167   85   86 1    
   168   85   87 1    
   169   85  206 1    
   170   86  207 1    
   171   86  208 1    
   172   86  209 1    
   173   87   88 2    
   174   87   89 am   BACKBONE|DICT|INTERRES
   175   89   90 1    
   176   89  210 1    
   177   90   91 1    
   178   90   92 1    
   179   90  211 1    
   180   91  212 1    
   181   91  213 1    
   182   91  214 1    
   183   92   93 2    
   184   92   94 am   BACKBONE|DICT|INTERRES
   185   94   95 1    
   186   94  215 1    
   187   95   96 1    
   188   95   97 1    
   189   95  216 1    
   190   96  217 1    
   191   96  218 1    
   192   96  219 1    
   193   97   98 2    
   194   97   99 am   BACKBONE|DICT|INTERRES
   195   99  100 1    
   196   99  220 1    
   197  100  101 1    
   198  100  102 1    
   199  100  221 1    
   200  101  222 1    
   201  101  223 1    
   202  101  224 1    
   203  102  103 2    
   204  102  104 am   BACKBONE|DICT|INTERRES
   205  104  105 1    
   206  104  225 1    
   207  105  106 1    
   208  105  107 1    
   209  105  226 1    
   210  106  227 1    
   211  106  228 1    
   212  106  229 1    
   213  107  108 2    
   214  107  109 am   BACKBONE|DICT|INTERRES
   215  109  110 1    
   216  109  230 1    
   217  110  111 1    
   218  110  112 1    
   219  110  231 1    
   220  111  232 1    
   221  111  233 1    
   222  111  234 1    
   223  112  113 2    
   224  112  114 am   BACKBONE|DICT|INTERRES
   225  114  115 1    
   226  114  235 1    
   227  115  116 1    
   228  115  117 1    
   229  115  236 1    
   230  116  237 1    
   231  116  238 1    
   232  116  239 1    
   233  117  118 2    
   234  117  119 am   BACKBONE|DICT|INTERRES
   235  119  120 1    
   236  119  240 1    
   237  120  121 1    
   238  120  124 1    
   239  120  241 1    
   240  121  122 am   BACKBONE|DICT|INTERRES
   241  121  123 2    
   242  122  242 1    
   243  122  243 1    
   244  124  125 1    
   245  124  244 1    
   246  124  245 1    
   247  125  126 1    
   248  126  246 1    
   249  126  247 1    
@<TRIPOS>SUBSTRUCTURE
     1 UNK         1 GROUP             0       ****    0 ROOT    
