@<TRIPOS>MOLECULE
3R540
247   249    1
SMALL
USER_CHARGES


@<TRIPOS>ATOM
      1 CA          3.9954   -7.3440  -48.2585 C.3       0 UNK        -0.1800 
      2 C           4.5428   -8.7606  -48.1600 C.2       0 UNK         0.5000 
      3 O           5.7506   -8.9433  -48.0017 O.2       0 UNK        -0.5000 
      4 N           3.6622   -9.7659  -48.2414 N.am      1 UNK        -0.5000 
      5 CA          3.9780  -11.1975  -48.1622 C.3       1 UNK         0.1400 
      6 C6          2.8966  -12.0374  -48.8953 C.3       23 UNK        -0.0398 
      7 S7          3.4957  -13.6731  -49.4398 S.3       23 UNK        -0.2404 
      8 C8          2.5263  -14.7919  -48.3794 C.3       23 UNK        -0.0205 
      9 C9          2.7382  -16.2398  -48.7866 C.ar      23 UNK        -0.0193 
     10 C10         1.8653  -16.8480  -49.6932 C.ar      23 UNK        -0.1150 
     11 C11         2.0608  -18.1753  -50.0835 C.ar      23 UNK        -0.0193 
     12 C12         3.1433  -18.8914  -49.5674 C.ar      23 UNK        -0.1150 
     13 C13         4.0202  -18.2963  -48.6554 C.ar      23 UNK        -0.0193 
     14 C14         3.8099  -16.9706  -48.2646 C.ar      23 UNK        -0.1150 
     15 C15         5.2014  -19.0838  -48.1059 C.3       23 UNK        -0.0205 
     16 S16         4.8198  -19.8774  -46.5123 S.3       23 UNK        -0.2404 
     17 C17         3.4723  -21.0065  -46.9983 C.3       23 UNK        -0.0398 
     18 CA          3.1699  -22.0845  -45.9317 C.3       11 UNK         0.1400 
     19 N           2.6461  -21.4917  -44.6955 N.am      11 UNK        -0.5000 
     20 C           2.6019  -22.0975  -43.5023 C.2       10 UNK         0.5000 
     21 O           3.0595  -23.2205  -43.2884 O.2       10 UNK        -0.5000 
     22 CA          1.8872  -21.3378  -42.3676 C.3       10 UNK         0.1400 
     23 CB          2.8446  -20.3504  -41.6833 C.3       10 UNK        -0.1800 
     24 N           0.6845  -20.6291  -42.8176 N.am      10 UNK        -0.5000 
     25 C          -0.4210  -21.2282  -43.2855 C.2       9 UNK         0.5000 
     26 O          -0.5492  -22.4491  -43.3744 O.2       9 UNK        -0.5000 
     27 CA         -1.5619  -20.3179  -43.7766 C.3       9 UNK         0.1400 
     28 CB         -2.3732  -19.7711  -42.5927 C.3       9 UNK        -0.1800 
     29 N          -1.0851  -19.2126  -44.6077 N.am      9 UNK        -0.5000 
     30 C          -0.4948  -19.3640  -45.8020 C.2       8 UNK         0.5000 
     31 O          -0.3580  -20.4543  -46.3574 O.2       8 UNK        -0.5000 
     32 CA          0.0879  -18.0981  -46.4622 C.3       8 UNK         0.1400 
     33 CB         -0.9970  -17.3175  -47.2179 C.3       8 UNK        -0.1800 
     34 N           0.7468  -17.2090  -45.5043 N.am      8 UNK        -0.5000 
     35 C           1.7895  -17.5589  -44.7387 C.2       7 UNK         0.5000 
     36 O           2.3214  -18.6653  -44.7739 O.2       7 UNK        -0.5000 
     37 CA          2.2635  -16.5324  -43.7001 C.3       7 UNK         0.1400 
     38 CB          3.1129  -15.4283  -44.3467 C.3       7 UNK        -0.1800 
     39 N           1.1324  -15.9543  -42.9741 N.am      7 UNK        -0.5000 
     40 C           0.3956  -16.6327  -42.0817 C.2       6 UNK         0.5000 
     41 O           0.6408  -17.7875  -41.7330 O.2       6 UNK        -0.5000 
     42 CA         -0.8495  -15.9247  -41.5174 C.3       6 UNK         0.1400 
     43 CB         -0.5034  -15.1155  -40.2606 C.3       6 UNK        -0.1800 
     44 N          -1.4910  -15.0522  -42.5007 N.am      6 UNK        -0.5000 
     45 C          -2.1737  -15.5044  -43.5622 C.2       5 UNK         0.5000 
     46 O          -2.3500  -16.6983  -43.8002 O.2       5 UNK        -0.5000 
     47 CA         -2.7082  -14.4514  -44.5500 C.3       5 UNK         0.1400 
     48 CB         -4.0945  -13.9555  -44.1136 C.3       5 UNK        -0.1800 
     49 N          -1.8135  -13.3046  -44.7164 N.am      5 UNK        -0.5000 
     50 C          -0.5537  -13.3756  -45.1656 C.2       4 UNK         0.5000 
     51 O          -0.0071  -14.4306  -45.4894 O.2       4 UNK        -0.5000 
     52 CA          0.2449  -12.0642  -45.2576 C.3       4 UNK         0.1400 
     53 CB         -0.6085  -10.7823  -45.1317 C.3       4 UNK        -0.1800 
     54 N           1.3582  -12.0440  -44.3073 N.am      4 UNK        -0.5000 
     55 C           1.3009  -12.0749  -42.9673 C.2       3 UNK         0.5000 
     56 O           0.2490  -12.2067  -42.3396 O.2       3 UNK        -0.5000 
     57 CA          2.6313  -11.9422  -42.1886 C.3       3 UNK         0.1400 
     58 CB          2.7708  -13.0281  -41.1089 C.3       3 UNK        -0.1800 
     59 N           3.8184  -11.9783  -43.0468 N.am      3 UNK        -0.5000 
     60 C           4.3495  -10.9281  -43.6866 C.2       2 UNK         0.5000 
     61 O           3.9119   -9.7802  -43.5961 O.2       2 UNK        -0.5000 
     62 CA          5.5515  -11.2045  -44.6175 C.3       2 UNK         0.1400 
     63 CB          6.2067  -12.5896  -44.4107 C.3       2 UNK        -0.1800 
     64 N           5.1909  -11.0192  -46.0268 N.am      2 UNK        -0.5000 
     65 C           4.2015  -11.6303  -46.6940 C.2       1 UNK         0.5000 
     66 O           3.4613  -12.4660  -46.1769 O.2       1 UNK        -0.5000 
     67 C           2.2315  -23.1598  -46.5278 C.2       11 UNK         0.5000 
     68 O           2.6643  -23.8949  -47.4162 O.2       11 UNK        -0.5000 
     69 N           0.9804  -23.2282  -46.0473 N.am      12 UNK        -0.5000 
     70 CA         -0.1053  -24.1023  -46.4959 C.3       12 UNK         0.1400 
     71 CB          0.2238  -25.5853  -46.2255 C.3       12 UNK        -0.1800 
     72 C          -0.5084  -23.8161  -47.9564 C.2       12 UNK         0.5000 
     73 O          -0.4962  -24.7148  -48.7989 O.2       12 UNK        -0.5000 
     74 N          -0.8569  -22.5491  -48.2235 N.am      13 UNK        -0.5000 
     75 CA         -1.3042  -22.0403  -49.5244 C.3       13 UNK         0.1400 
     76 CB         -1.4959  -20.5196  -49.4170 C.3       13 UNK        -0.1800 
     77 C          -2.6128  -22.6683  -50.0403 C.2       13 UNK         0.5000 
     78 O          -2.8483  -22.6506  -51.2498 O.2       13 UNK        -0.5000 
     79 N          -3.4478  -23.1527  -49.1100 N.am      14 UNK        -0.5000 
     80 CA         -4.7447  -23.7785  -49.3495 C.3       14 UNK         0.1400 
     81 CB         -5.4260  -24.0390  -47.9965 C.3       14 UNK        -0.1800 
     82 C          -4.6207  -25.0764  -50.1696 C.2       14 UNK         0.5000 
     83 O          -4.0017  -26.0349  -49.7023 O.2       14 UNK        -0.5000 
     84 N          -5.2131  -25.0738  -51.3661 N.am      15 UNK        -0.5000 
     85 CA         -5.2540  -26.1912  -52.3031 C.3       15 UNK         0.1400 
     86 CB         -4.6780  -25.7158  -53.6513 C.3       15 UNK        -0.1800 
     87 C          -6.6963  -26.7277  -52.3933 C.2       15 UNK         0.5000 
     88 O          -7.3378  -26.9178  -51.3564 O.2       15 UNK        -0.5000 
     89 N          -7.1838  -26.9787  -53.6174 N.am      16 UNK        -0.5000 
     90 CA         -8.5318  -27.4651  -53.9200 C.3       16 UNK         0.1400 
     91 CB         -8.6756  -27.6383  -55.4394 C.3       16 UNK        -0.1800 
     92 C          -9.6218  -26.5238  -53.3765 C.2       16 UNK         0.5000 
     93 O          -9.5159  -25.3073  -53.5462 O.2       16 UNK        -0.5000 
     94 N         -10.6180  -27.1037  -52.6913 N.am      17 UNK        -0.5000 
     95 CA        -11.7153  -26.4239  -51.9846 C.3       17 UNK         0.1400 
     96 CB        -12.6660  -25.7436  -52.9921 C.3       17 UNK        -0.1800 
     97 C         -11.2403  -25.4531  -50.8762 C.2       17 UNK         0.5000 
     98 O         -11.9854  -24.5491  -50.4950 O.2       17 UNK        -0.5000 
     99 N         -10.0015  -25.6498  -50.3968 N.am      18 UNK        -0.5000 
    100 CA        -9.2523  -24.8094  -49.4593 C.3       18 UNK         0.1400 
    101 CB        -9.9295  -24.7773  -48.0734 C.3       18 UNK        -0.1800 
    102 C         -8.9286  -23.3985  -50.0009 C.2       18 UNK         0.5000 
    103 O         -8.6148  -22.5076  -49.2096 O.2       18 UNK        -0.5000 
    104 N         -8.9866  -23.2082  -51.3284 N.am      19 UNK        -0.5000 
    105 CA        -8.6346  -21.9556  -51.9962 C.3       19 UNK         0.1400 
    106 CB        -9.1187  -22.0004  -53.4527 C.3       19 UNK        -0.1800 
    107 C         -7.1166  -21.7267  -51.9418 C.2       19 UNK         0.5000 
    108 O         -6.3571  -22.6644  -52.1981 O.2       19 UNK        -0.5000 
    109 N         -6.6993  -20.4986  -51.6121 N.am      20 UNK        -0.5000 
    110 CA        -5.3007  -20.0913  -51.4609 C.3       20 UNK         0.1400 
    111 CB        -5.2399  -18.8216  -50.5935 C.3       20 UNK        -0.1800 
    112 C         -4.5984  -19.9174  -52.8234 C.2       20 UNK         0.5000 
    113 O         -4.2761  -18.7964  -53.2208 O.2       20 UNK        -0.5000 
    114 N         -4.4065  -21.0369  -53.5295 N.am      21 UNK        -0.5000 
    115 CA        -3.7895  -21.1102  -54.8529 C.3       21 UNK         0.1400 
    116 CB        -4.0524  -22.4998  -55.4499 C.3       21 UNK        -0.1800 
    117 C         -2.2800  -20.8067  -54.8441 C.2       21 UNK         0.5000 
    118 O         -1.7658  -20.3214  -55.8531 O.2       21 UNK        -0.5000 
    119 N         -1.6064  -21.0794  -53.7159 N.am      22 UNK        -0.5000 
    120 CA        -0.1581  -20.8917  -53.5241 C.3       22 UNK         0.1400 
    121 C          0.7079  -21.8774  -54.3729 C.2       22 UNK         0.5000 
    122 N          1.9967  -21.6166  -54.5418 N.am      22 UNK        -0.7600 
    123 O          0.2359  -22.9102  -54.8443 O.2       22 UNK        -0.5000 
    124 C124        0.2470  -19.3901  -53.6604 C.3       23 UNK        -0.0398 
    125 S125        1.7462  -18.9053  -52.7363 S.3       23 UNK        -0.2404 
    126 C126        1.0926  -18.8433  -51.0442 C.3       23 UNK        -0.0205 
    127 H127        4.4520   -6.8232  -49.1001 H         1 UNK         0.0600 
    128 H128        4.2242   -6.7898  -47.3482 H         1 UNK         0.0600 
    129 H129        2.9143   -7.3355  -48.3993 H         1 UNK         0.0600 
    130 H130        2.6816   -9.5436  -48.3390 H         1 UNK         0.3000 
    131 H131        4.9248  -11.3546  -48.6839 H         1 UNK         0.0600 
    132 H132        2.5889  -11.5186  -49.8043 H         1 UNK         0.0800 
    133 H133        1.9879  -12.1363  -48.3001 H         1 UNK         0.0800 
    134 H134        2.8166  -14.6591  -47.3380 H         1 UNK         0.0800 
    135 H135        1.4670  -14.5370  -48.4387 H         1 UNK         0.0800 
    136 H136        1.0342  -16.2862  -50.0959 H         1 UNK         0.1150 
    137 H137        3.2999  -19.9154  -49.8758 H         1 UNK         0.1150 
    138 H138        4.4859  -16.5040  -47.5619 H         1 UNK         0.1150 
    139 H139        5.5198  -19.8423  -48.8228 H         1 UNK         0.0800 
    140 H140        6.0550  -18.4179  -47.9714 H         1 UNK         0.0800 
    141 H141        2.5760  -20.4173  -47.2015 H         1 UNK         0.0800 
    142 H142        3.7606  -21.4718  -47.9428 H         1 UNK         0.0800 
    143 H143        4.1066  -22.5914  -45.6900 H         1 UNK         0.0600 
    144 H144        2.3327  -20.5249  -44.7612 H         1 UNK         0.3000 
    145 H145        1.5772  -22.0746  -41.6238 H         1 UNK         0.0600 
    146 H146        2.3686  -19.8675  -40.8298 H         1 UNK         0.0600 
    147 H147        3.1760  -19.5691  -42.3674 H         1 UNK         0.0600 
    148 H148        3.7342  -20.8618  -41.3137 H         1 UNK         0.0600 
    149 H149        0.7061  -19.6171  -42.7530 H         1 UNK         0.3000 
    150 H150       -2.2307  -20.9273  -44.3882 H         1 UNK         0.0600 
    151 H151       -2.7491  -20.5827  -41.9686 H         1 UNK         0.0600 
    152 H152       -3.2358  -19.2004  -42.9369 H         1 UNK         0.0600 
    153 H153       -1.7726  -19.1198  -41.9580 H         1 UNK         0.0600 
    154 H154       -1.2300  -18.2750  -44.2467 H         1 UNK         0.3000 
    155 H155        0.8423  -18.4196  -47.1831 H         1 UNK         0.0600 
    156 H156       -1.4737  -17.9384  -47.9762 H         1 UNK         0.0600 
    157 H157       -0.5746  -16.4505  -47.7262 H         1 UNK         0.0600 
    158 H158       -1.7781  -16.9628  -46.5456 H         1 UNK         0.0600 
    159 H159        0.3850  -16.2610  -45.4321 H         1 UNK         0.3000 
    160 H160        2.8982  -17.0594  -42.9843 H         1 UNK         0.0600 
    161 H161        2.5174  -14.7707  -44.9776 H         1 UNK         0.0600 
    162 H162        3.9001  -15.8541  -44.9703 H         1 UNK         0.0600 
    163 H163        3.5999  -14.8168  -43.5899 H         1 UNK         0.0600 
    164 H164        0.8164  -15.0425  -43.2703 H         1 UNK         0.3000 
    165 H165       -1.5638  -16.6987  -41.2285 H         1 UNK         0.0600 
    166 H166       -1.4018  -14.7115  -39.7939 H         1 UNK         0.0600 
    167 H167       -0.0022  -15.7379  -39.5181 H         1 UNK         0.0600 
    168 H168        0.1558  -14.2807  -40.4913 H         1 UNK         0.0600 
    169 H169       -1.3534  -14.0556  -42.3927 H         1 UNK         0.3000 
    170 H170       -2.8098  -14.9350  -45.5235 H         1 UNK         0.0600 
    171 H171       -4.7892  -14.7890  -44.0009 H         1 UNK         0.0600 
    172 H172       -4.0526  -13.4312  -43.1581 H         1 UNK         0.0600 
    173 H173       -4.5213  -13.2762  -44.8518 H         1 UNK         0.0600 
    174 H174       -2.1779  -12.4017  -44.4493 H         1 UNK         0.3000 
    175 H175        0.6924  -12.0590  -46.2516 H         1 UNK         0.0600 
    176 H176        0.0039   -9.8949  -45.2924 H         1 UNK         0.0600 
    177 H177       -1.4012  -10.7623  -45.8808 H         1 UNK         0.0600 
    178 H178       -1.0738  -10.6845  -44.1505 H         1 UNK         0.0600 
    179 H179        2.2751  -12.0484  -44.7456 H         1 UNK         0.3000 
    180 H180        2.6000  -10.9769  -41.6792 H         1 UNK         0.0600 
    181 H181        3.7347  -12.9621  -40.6038 H         1 UNK         0.0600 
    182 H182        2.6769  -14.0320  -41.5218 H         1 UNK         0.0600 
    183 H183        2.0048  -12.9112  -40.3424 H         1 UNK         0.0600 
    184 H184        4.2274  -12.8862  -43.2101 H         1 UNK         0.3000 
    185 H185        6.3002  -10.4464  -44.3835 H         1 UNK         0.0600 
    186 H186        7.1056  -12.6849  -45.0198 H         1 UNK         0.0600 
    187 H187        6.5095  -12.7321  -43.3725 H         1 UNK         0.0600 
    188 H188        5.5424  -13.4105  -44.6823 H         1 UNK         0.0600 
    189 H189        5.6967  -10.2927  -46.5244 H         1 UNK         0.3000 
    190 H190        0.7243  -22.5644  -45.3280 H         1 UNK         0.3000 
    191 H191       -0.9717  -23.8469  -45.8839 H         1 UNK         0.0600 
    192 H192       -0.6326  -26.2203  -46.4554 H         1 UNK         0.0600 
    193 H193        0.4756  -25.7465  -45.1773 H         1 UNK         0.0600 
    194 H194        1.0604  -25.9373  -46.8294 H         1 UNK         0.0600 
    195 H195       -0.7656  -21.8563  -47.4822 H         1 UNK         0.3000 
    196 H196       -0.5188  -22.2491  -50.2529 H         1 UNK         0.0600 
    197 H197       -1.7199  -20.0804  -50.3901 H         1 UNK         0.0600 
    198 H198       -0.6014  -20.0335  -49.0308 H         1 UNK         0.0600 
    199 H199       -2.3184  -20.2668  -48.7464 H         1 UNK         0.0600 
    200 H200       -3.1400  -23.1218  -48.1503 H         1 UNK         0.3000 
    201 H201       -5.3608  -23.0637  -49.8928 H         1 UNK         0.0600 
    202 H202       -4.8272  -24.6936  -47.3620 H         1 UNK         0.0600 
    203 H203       -6.3971  -24.5145  -48.1317 H         1 UNK         0.0600 
    204 H204       -5.5959  -23.1081  -47.4551 H         1 UNK         0.0600 
    205 H205       -5.6946  -24.2285  -51.6709 H         1 UNK         0.3000 
    206 H206       -4.6346  -27.0152  -51.9442 H         1 UNK         0.0600 
    207 H207       -3.6730  -25.3140  -53.5196 H         1 UNK         0.0600 
    208 H208       -4.5991  -26.5354  -54.3663 H         1 UNK         0.0600 
    209 H209       -5.2920  -24.9320  -54.0971 H         1 UNK         0.0600 
    210 H210       -6.6003  -26.7674  -54.4131 H         1 UNK         0.3000 
    211 H211       -8.6407  -28.4441  -53.4490 H         1 UNK         0.0600 
    212 H212       -8.5423  -26.6922  -55.9659 H         1 UNK         0.0600 
    213 H213       -9.6643  -28.0206  -55.6969 H         1 UNK         0.0600 
    214 H214       -7.9431  -28.3460  -55.8283 H         1 UNK         0.0600 
    215 H215      -10.6059  -28.1099  -52.5936 H         1 UNK         0.3000 
    216 H216      -12.2800  -27.2058  -51.4750 H         1 UNK         0.0600 
    217 H217      -13.5631  -25.3714  -52.4959 H         1 UNK         0.0600 
    218 H218      -12.9909  -26.4431  -53.7622 H         1 UNK         0.0600 
    219 H219      -12.1920  -24.8955  -53.4873 H         1 UNK         0.0600 
    220 H220       -9.4584  -26.4032  -50.8015 H         1 UNK         0.3000 
    221 H221       -8.2887  -25.3039  -49.3363 H         1 UNK         0.0600 
    222 H222       -9.2842  -24.3015  -47.3340 H         1 UNK         0.0600 
    223 H223      -10.8671  -24.2214  -48.0918 H         1 UNK         0.0600 
    224 H224      -10.1421  -25.7843  -47.7145 H         1 UNK         0.0600 
    225 H225       -9.2130  -23.9903  -51.9331 H         1 UNK         0.3000 
    226 H226       -9.1449  -21.1363  -51.4855 H         1 UNK         0.0600 
    227 H227      -10.1905  -22.1922  -53.5076 H         1 UNK         0.0600 
    228 H228       -8.9294  -21.0516  -53.9560 H         1 UNK         0.0600 
    229 H229       -8.6100  -22.7798  -54.0218 H         1 UNK         0.0600 
    230 H230       -7.3883  -19.7793  -51.4464 H         1 UNK         0.3000 
    231 H231       -4.7724  -20.8743  -50.9177 H         1 UNK         0.0600 
    232 H232       -4.2079  -18.5023  -50.4415 H         1 UNK         0.0600 
    233 H233       -5.6714  -18.9976  -49.6079 H         1 UNK         0.0600 
    234 H234       -5.7780  -17.9914  -51.0526 H         1 UNK         0.0600 
    235 H235       -4.7458  -21.9062  -53.1305 H         1 UNK         0.3000 
    236 H236       -4.2739  -20.3677  -55.4905 H         1 UNK         0.0600 
    237 H237       -3.5553  -23.2792  -54.8723 H         1 UNK         0.0600 
    238 H238       -5.1187  -22.7253  -55.4786 H         1 UNK         0.0600 
    239 H239       -3.6776  -22.5620  -56.4723 H         1 UNK         0.0600 
    240 H240       -2.1059  -21.5330  -52.9593 H         1 UNK         0.3000 
    241 H241        0.0117  -21.1952  -52.4920 H         1 UNK         0.0600 
    242 H242        2.5667  -22.2565  -55.0729 H         1 UNK         0.3800 
    243 H243        2.4111  -20.7863  -54.1432 H         1 UNK         0.3800 
    244 H244       -0.5662  -18.7506  -53.3136 H         1 UNK         0.0800 
    245 H245        0.3901  -19.1273  -54.7098 H         1 UNK         0.0800 
    246 H246        0.1319  -18.3261  -51.0320 H         1 UNK         0.0800 
    247 H247        0.9105  -19.8647  -50.7131 H         1 UNK         0.0800 
@<TRIPOS>BOND
     1    1    2 1    
     2    1  127 1    
     3    1  128 1    
     4    1  129 1    
     5    2    3 2    
     6    2    4 am   BACKBONE|DICT|INTERRES
     7    4    5 1    
     8    4  130 1    
     9    5    6 1    
    10    5   65 1    
    11    5  131 1    
    12    6    7 1    
    13    6  132 1    
    14    6  133 1    
    15    7    8 1    
    16    8    9 1    
    17    8  134 1    
    18    8  135 1    
    19    9   10 ar   
    20    9   14 ar   
    21   10   11 ar   
    22   10  136 1    
    23   11   12 ar   
    24   11  126 1    
    25   12   13 ar   
    26   12  137 1    
    27   13   14 ar   
    28   13   15 1    
    29   14  138 1    
    30   15   16 1    
    31   15  139 1    
    32   15  140 1    
    33   16   17 1    
    34   17   18 1    
    35   17  141 1    
    36   17  142 1    
    37   18   19 1    
    38   18   67 1    
    39   18  143 1    
    40   19   20 am   BACKBONE|DICT|INTERRES
    41   19  144 1    
    42   20   21 2    
    43   20   22 1    
    44   22   23 1    
    45   22   24 1    
    46   22  145 1    
    47   23  146 1    
    48   23  147 1    
    49   23  148 1    
    50   24   25 am   BACKBONE|DICT|INTERRES
    51   24  149 1    
    52   25   26 2    
    53   25   27 1    
    54   27   28 1    
    55   27   29 1    
    56   27  150 1    
    57   28  151 1    
    58   28  152 1    
    59   28  153 1    
    60   29   30 am   BACKBONE|DICT|INTERRES
    61   29  154 1    
    62   30   31 2    
    63   30   32 1    
    64   32   33 1    
    65   32   34 1    
    66   32  155 1    
    67   33  156 1    
    68   33  157 1    
    69   33  158 1    
    70   34   35 am   BACKBONE|DICT|INTERRES
    71   34  159 1    
    72   35   36 2    
    73   35   37 1    
    74   37   38 1    
    75   37   39 1    
    76   37  160 1    
    77   38  161 1    
    78   38  162 1    
    79   38  163 1    
    80   39   40 am   BACKBONE|DICT|INTERRES
    81   39  164 1    
    82   40   41 2    
    83   40   42 1    
    84   42   43 1    
    85   42   44 1    
    86   42  165 1    
    87   43  166 1    
    88   43  167 1    
    89   43  168 1    
    90   44   45 am   BACKBONE|DICT|INTERRES
    91   44  169 1    
    92   45   46 2    
    93   45   47 1    
    94   47   48 1    
    95   47   49 1    
    96   47  170 1    
    97   48  171 1    
    98   48  172 1    
    99   48  173 1    
   100   49   50 am   BACKBONE|DICT|INTERRES
   101   49  174 1    
   102   50   51 2    
   103   50   52 1    
   104   52   53 1    
   105   52   54 1    
   106   52  175 1    
   107   53  176 1    
   108   53  177 1    
   109   53  178 1    
   110   54   55 am   BACKBONE|DICT|INTERRES
   111   54  179 1    
   112   55   56 2    
   113   55   57 1    
   114   57   58 1    
   115   57   59 1    
   116   57  180 1    
   117   58  181 1    
   118   58  182 1    
   119   58  183 1    
   120   59   60 am   BACKBONE|DICT|INTERRES
   121   59  184 1    
   122   60   61 2    
   123   60   62 1    
   124   62   63 1    
   125   62   64 1    
   126   62  185 1    
   127   63  186 1    
   128   63  187 1    
   129   63  188 1    
   130   64   65 am   BACKBONE|DICT|INTERRES
   131   64  189 1    
   132   65   66 2    
   133   67   68 2    
   134   67   69 am   BACKBONE|DICT|INTERRES
   135   69   70 1    
   136   69  190 1    
   137   70   71 1    
   138   70   72 1    
   139   70  191 1    
   140   71  192 1    
   141   71  193 1    
   142   71  194 1    
   143   72   73 2    
   144   72   74 am   BACKBONE|DICT|INTERRES
   145   74   75 1    
   146   74  195 1    
   147   75   76 1    
   148   75   77 1    
   149   75  196 1    
   150   76  197 1    
   151   76  198 1    
   152   76  199 1    
   153   77   78 2    
   154   77   79 am   BACKBONE|DICT|INTERRES
   155   79   80 1    
   156   79  200 1    
   157   80   81 1    
   158   80   82 1    
   159   80  201 1    
   160   81  202 1    
   161   81  203 1    
   162   81  204 1    
   163   82   83 2    
   164   82   84 am   BACKBONE|DICT|INTERRES
   165   84   85 1    
   166   84  205 1    
   167   85   86 1    
   168   85   87 1    
   169   85  206 1    
   170   86  207 1    
   171   86  208 1    
   172   86  209 1    
   173   87   88 2    
   174   87   89 am   BACKBONE|DICT|INTERRES
   175   89   90 1    
   176   89  210 1    
   177   90   91 1    
   178   90   92 1    
   179   90  211 1    
   180   91  212 1    
   181   91  213 1    
   182   91  214 1    
   183   92   93 2    
   184   92   94 am   BACKBONE|DICT|INTERRES
   185   94   95 1    
   186   94  215 1    
   187   95   96 1    
   188   95   97 1    
   189   95  216 1    
   190   96  217 1    
   191   96  218 1    
   192   96  219 1    
   193   97   98 2    
   194   97   99 am   BACKBONE|DICT|INTERRES
   195   99  100 1    
   196   99  220 1    
   197  100  101 1    
   198  100  102 1    
   199  100  221 1    
   200  101  222 1    
   201  101  223 1    
   202  101  224 1    
   203  102  103 2    
   204  102  104 am   BACKBONE|DICT|INTERRES
   205  104  105 1    
   206  104  225 1    
   207  105  106 1    
   208  105  107 1    
   209  105  226 1    
   210  106  227 1    
   211  106  228 1    
   212  106  229 1    
   213  107  108 2    
   214  107  109 am   BACKBONE|DICT|INTERRES
   215  109  110 1    
   216  109  230 1    
   217  110  111 1    
   218  110  112 1    
   219  110  231 1    
   220  111  232 1    
   221  111  233 1    
   222  111  234 1    
   223  112  113 2    
   224  112  114 am   BACKBONE|DICT|INTERRES
   225  114  115 1    
   226  114  235 1    
   227  115  116 1    
   228  115  117 1    
   229  115  236 1    
   230  116  237 1    
   231  116  238 1    
   232  116  239 1    
   233  117  118 2    
   234  117  119 am   BACKBONE|DICT|INTERRES
   235  119  120 1    
   236  119  240 1    
   237  120  121 1    
   238  120  124 1    
   239  120  241 1    
   240  121  122 am   BACKBONE|DICT|INTERRES
   241  121  123 2    
   242  122  242 1    
   243  122  243 1    
   244  124  125 1    
   245  124  244 1    
   246  124  245 1    
   247  125  126 1    
   248  126  246 1    
   249  126  247 1    
@<TRIPOS>SUBSTRUCTURE
     1 UNK         1 GROUP             0       ****    0 ROOT    
