@<TRIPOS>MOLECULE
3R540
247   249    1
SMALL
USER_CHARGES


@<TRIPOS>ATOM
      1 CA         -6.9387  -13.9441  -46.0259 C.3       0 UNK        -0.1800 
      2 C          -5.7672  -12.9790  -45.9092 C.2       0 UNK         0.5000 
      3 O          -5.8209  -11.8769  -46.4551 O.2       0 UNK        -0.5000 
      4 N          -4.7084  -13.3914  -45.2091 N.am      1 UNK        -0.5000 
      5 CA         -3.4740  -12.6375  -45.0016 C.3       1 UNK         0.1400 
      6 C6         -2.5304  -12.6319  -46.2388 C.3       23 UNK        -0.0398 
      7 S7         -2.2503  -14.2721  -47.0058 S.3       23 UNK        -0.2404 
      8 C8         -3.2733  -14.0962  -48.5017 C.3       23 UNK        -0.0205 
      9 C9         -3.7351  -15.4299  -49.0682 C.ar      23 UNK        -0.0193 
     10 C10        -3.3952  -15.7938  -50.3737 C.ar      23 UNK        -0.1150 
     11 C11        -3.9086  -16.9624  -50.9435 C.ar      23 UNK        -0.0193 
     12 C12        -4.7538  -17.7793  -50.1824 C.ar      23 UNK        -0.1150 
     13 C13        -5.0741  -17.4473  -48.8614 C.ar      23 UNK        -0.0193 
     14 C14        -4.5660  -16.2652  -48.3148 C.ar      23 UNK        -0.1150 
     15 C15        -6.0131  -18.3266  -48.0401 C.3       23 UNK        -0.0205 
     16 S16        -5.4894  -20.0720  -47.9410 S.3       23 UNK        -0.2404 
     17 C17        -4.0007  -19.9635  -46.8950 C.3       23 UNK        -0.0398 
     18 CA         -3.4839  -21.3650  -46.4736 C.3       11 UNK         0.1400 
     19 N          -2.0223  -21.4306  -46.3723 N.am      11 UNK        -0.5000 
     20 C          -1.3249  -22.5693  -46.2472 C.2       10 UNK         0.5000 
     21 O          -1.8458  -23.6837  -46.2936 O.2       10 UNK        -0.5000 
     22 CA          0.1913  -22.4526  -45.9945 C.3       10 UNK         0.1400 
     23 CB          0.9649  -22.2168  -47.2974 C.3       10 UNK        -0.1800 
     24 N           0.5253  -21.4000  -45.0372 N.am      10 UNK        -0.5000 
     25 C           0.1527  -21.4033  -43.7507 C.2       9 UNK         0.5000 
     26 O          -0.4550  -22.3285  -43.2188 O.2       9 UNK        -0.5000 
     27 CA          0.4552  -20.1386  -42.9345 C.3       9 UNK         0.1400 
     28 CB          1.8414  -20.2169  -42.2773 C.3       9 UNK        -0.1800 
     29 N           0.3453  -18.9277  -43.7469 N.am      9 UNK        -0.5000 
     30 C          -0.8164  -18.4356  -44.1968 C.2       8 UNK         0.5000 
     31 O          -1.9096  -18.9735  -44.0072 O.2       8 UNK        -0.5000 
     32 CA         -0.7323  -17.1293  -45.0017 C.3       8 UNK         0.1400 
     33 CB         -0.2194  -15.9801  -44.1200 C.3       8 UNK        -0.1800 
     34 N           0.1042  -17.2091  -46.1986 N.am      8 UNK        -0.5000 
     35 C          -0.0654  -18.0490  -47.2273 C.2       7 UNK         0.5000 
     36 O          -0.8285  -19.0110  -47.2118 O.2       7 UNK        -0.5000 
     37 CA          0.7748  -17.7752  -48.4820 C.3       7 UNK         0.1400 
     38 CB          0.4943  -16.3760  -49.0568 C.3       7 UNK        -0.1800 
     39 N           2.1883  -17.9057  -48.1583 N.am      7 UNK        -0.5000 
     40 C           2.9467  -18.9615  -48.4827 C.2       6 UNK         0.5000 
     41 O           2.5824  -19.8637  -49.2371 O.2       6 UNK        -0.5000 
     42 CA          4.3473  -19.0429  -47.8400 C.3       6 UNK         0.1400 
     43 CB          5.4185  -18.5476  -48.8235 C.3       6 UNK        -0.1800 
     44 N           4.4732  -18.2936  -46.5868 N.am      6 UNK        -0.5000 
     45 C           3.7541  -18.5105  -45.4765 C.2       5 UNK         0.5000 
     46 O           2.9133  -19.4027  -45.3654 O.2       5 UNK        -0.5000 
     47 CA          3.9559  -17.5145  -44.3181 C.3       5 UNK         0.1400 
     48 CB          5.0321  -18.0276  -43.3507 C.3       5 UNK        -0.1800 
     49 N           4.2956  -16.1503  -44.7426 N.am      5 UNK        -0.5000 
     50 C           3.5529  -15.3798  -45.5489 C.2       4 UNK         0.5000 
     51 O           2.5159  -15.7591  -46.0968 O.2       4 UNK        -0.5000 
     52 CA          4.0695  -13.9539  -45.8013 C.3       4 UNK         0.1400 
     53 CB          5.1134  -13.9705  -46.9282 C.3       4 UNK        -0.1800 
     54 N           2.9838  -13.0489  -46.1883 N.am      4 UNK        -0.5000 
     55 C           2.0219  -12.5296  -45.4118 C.2       3 UNK         0.5000 
     56 O           1.1089  -11.8561  -45.8941 O.2       3 UNK        -0.5000 
     57 CA          2.0613  -12.7256  -43.8821 C.3       3 UNK         0.1400 
     58 CB          2.9950  -11.6972  -43.2144 C.3       3 UNK        -0.1800 
     59 N           0.7064  -12.5505  -43.3725 N.am      3 UNK        -0.5000 
     60 C           0.2340  -12.9912  -42.2010 C.2       2 UNK         0.5000 
     61 O           0.9093  -13.6268  -41.3910 O.2       2 UNK        -0.5000 
     62 CA         -1.2360  -12.6690  -41.8703 C.3       2 UNK         0.1400 
     63 CB         -1.3104  -11.4964  -40.8792 C.3       2 UNK        -0.1800 
     64 N          -2.0146  -12.3248  -43.0642 N.am      2 UNK        -0.5000 
     65 C          -2.7869  -13.1847  -43.7399 C.2       1 UNK         0.5000 
     66 O          -2.9756  -14.3563  -43.4019 O.2       1 UNK        -0.5000 
     67 C          -4.1643  -21.8816  -45.1886 C.2       11 UNK         0.5000 
     68 O          -5.0745  -22.7066  -45.2776 O.2       11 UNK        -0.5000 
     69 N          -3.6636  -21.4501  -44.0203 N.am      12 UNK        -0.5000 
     70 CA         -4.1239  -21.8971  -42.7006 C.3       12 UNK         0.1400 
     71 CB         -3.4441  -21.0559  -41.6104 C.3       12 UNK        -0.1800 
     72 C          -3.9025  -23.4034  -42.4467 C.2       12 UNK         0.5000 
     73 O          -4.7503  -24.0463  -41.8274 O.2       12 UNK        -0.5000 
     74 N          -2.7915  -23.9457  -42.9631 N.am      13 UNK        -0.5000 
     75 CA         -2.4324  -25.3665  -42.9275 C.3       13 UNK         0.1400 
     76 CB         -0.9176  -25.5005  -43.1562 C.3       13 UNK        -0.1800 
     77 C          -3.2096  -26.2375  -43.9380 C.2       13 UNK         0.5000 
     78 O          -2.9939  -27.4498  -43.9671 O.2       13 UNK        -0.5000 
     79 N          -4.0842  -25.6201  -44.7460 N.am      14 UNK        -0.5000 
     80 CA         -4.9338  -26.2292  -45.7727 C.3       14 UNK         0.1400 
     81 CB         -5.8888  -27.2833  -45.1729 C.3       14 UNK        -0.1800 
     82 C          -4.1558  -26.7415  -47.0031 C.2       14 UNK         0.5000 
     83 O          -4.6538  -27.6091  -47.7221 O.2       14 UNK        -0.5000 
     84 N          -2.9829  -26.1483  -47.2727 N.am      15 UNK        -0.5000 
     85 CA         -2.2519  -26.2907  -48.5377 C.3       15 UNK         0.1400 
     86 CB         -0.7432  -26.1499  -48.2750 C.3       15 UNK        -0.1800 
     87 C          -2.7306  -25.2660  -49.5902 C.2       15 UNK         0.5000 
     88 O          -2.2083  -25.2497  -50.7069 O.2       15 UNK        -0.5000 
     89 N          -3.7014  -24.4191  -49.2074 N.am      16 UNK        -0.5000 
     90 CA         -4.3916  -23.4112  -50.0159 C.3       16 UNK         0.1400 
     91 CB         -5.2775  -24.0946  -51.0784 C.3       16 UNK        -0.1800 
     92 C          -3.4301  -22.3725  -50.6199 C.2       16 UNK         0.5000 
     93 O          -3.5957  -21.9927  -51.7779 O.2       16 UNK        -0.5000 
     94 N          -2.4205  -21.9660  -49.8334 N.am      17 UNK        -0.5000 
     95 CA         -1.3307  -21.0621  -50.2169 C.3       17 UNK         0.1400 
     96 CB         -1.8649  -19.6449  -50.4769 C.3       17 UNK        -0.1800 
     97 C          -0.5221  -21.6189  -51.4030 C.2       17 UNK         0.5000 
     98 O          -0.3916  -20.9529  -52.4311 O.2       17 UNK        -0.5000 
     99 N          -0.0523  -22.8655  -51.2423 N.am      18 UNK        -0.5000 
    100 CA         0.6967  -23.6567  -52.2234 C.3       18 UNK         0.1400 
    101 CB         2.1089  -23.0683  -52.4245 C.3       18 UNK        -0.1800 
    102 C         -0.0837  -23.8419  -53.5417 C.2       18 UNK         0.5000 
    103 O          0.4587  -23.6074  -54.6232 O.2       18 UNK        -0.5000 
    104 N         -1.3565  -24.2444  -53.4054 N.am      19 UNK        -0.5000 
    105 CA        -2.3463  -24.4170  -54.4728 C.3       19 UNK         0.1400 
    106 CB        -1.9635  -25.5966  -55.3915 C.3       19 UNK        -0.1800 
    107 C         -2.6238  -23.1063  -55.2417 C.2       19 UNK         0.5000 
    108 O         -2.5118  -23.0649  -56.4686 O.2       19 UNK        -0.5000 
    109 N         -2.9992  -22.0664  -54.4853 N.am      20 UNK        -0.5000 
    110 CA        -3.4097  -20.7327  -54.9236 C.3       20 UNK         0.1400 
    111 CB        -4.7350  -20.7988  -55.7106 C.3       20 UNK        -0.1800 
    112 C         -2.3010  -19.9586  -55.6612 C.2       20 UNK         0.5000 
    113 O         -2.5372  -19.4169  -56.7441 O.2       20 UNK        -0.5000 
    114 N         -1.1137  -19.8734  -55.0420 N.am      21 UNK        -0.5000 
    115 CA         0.0469  -19.1371  -55.5613 C.3       21 UNK         0.1400 
    116 CB         1.2686  -19.4203  -54.6749 C.3       21 UNK        -0.1800 
    117 C         -0.1759  -17.6151  -55.7049 C.2       21 UNK         0.5000 
    118 O          0.5616  -16.9654  -56.4472 O.2       21 UNK        -0.5000 
    119 N         -1.1944  -17.0797  -55.0184 N.am      22 UNK        -0.5000 
    120 CA        -1.6974  -15.7072  -55.1807 C.3       22 UNK         0.1400 
    121 C         -2.4645  -15.4460  -56.5141 C.2       22 UNK         0.5000 
    122 N         -2.8198  -16.4595  -57.2974 N.am      22 UNK        -0.7600 
    123 O         -2.7293  -14.2952  -56.8514 O.2       22 UNK        -0.5000 
    124 C124       -2.5024  -15.2414  -53.9369 C.3       23 UNK        -0.0398 
    125 S125       -4.0455  -16.1819  -53.6355 S.3       23 UNK        -0.2404 
    126 C126       -3.5259  -17.3727  -52.3617 C.3       23 UNK        -0.0205 
    127 H127       -6.7564  -14.8703  -45.4802 H         1 UNK         0.0600 
    128 H128       -7.1127  -14.1960  -47.0722 H         1 UNK         0.0600 
    129 H129       -7.8445  -13.4867  -45.6277 H         1 UNK         0.0600 
    130 H130       -4.7064  -14.2928  -44.7476 H         1 UNK         0.3000 
    131 H131       -3.7513  -11.6041  -44.7812 H         1 UNK         0.0600 
    132 H132       -2.9359  -11.9528  -46.9895 H         1 UNK         0.0800 
    133 H133       -1.5595  -12.2083  -45.9802 H         1 UNK         0.0800 
    134 H134       -2.7093  -13.5296  -49.2441 H         1 UNK         0.0800 
    135 H135       -4.1619  -13.5056  -48.2797 H         1 UNK         0.0800 
    136 H136       -2.7508  -15.1517  -50.9548 H         1 UNK         0.1150 
    137 H137       -5.1535  -18.6875  -50.6113 H         1 UNK         0.1150 
    138 H138       -4.8313  -15.9787  -47.3069 H         1 UNK         0.1150 
    139 H139       -6.1289  -17.9351  -47.0282 H         1 UNK         0.0800 
    140 H140       -7.0032  -18.2885  -48.4958 H         1 UNK         0.0800 
    141 H141       -4.1850  -19.3191  -46.0333 H         1 UNK         0.0800 
    142 H142       -3.2559  -19.4462  -47.4950 H         1 UNK         0.0800 
    143 H143       -3.7516  -22.0688  -47.2631 H         1 UNK         0.0600 
    144 H144       -1.5264  -20.5417  -46.3893 H         1 UNK         0.3000 
    145 H145        0.5225  -23.4052  -45.5763 H         1 UNK         0.0600 
    146 H146        2.0373  -22.3351  -47.1408 H         1 UNK         0.0600 
    147 H147        0.6699  -22.9229  -48.0740 H         1 UNK         0.0600 
    148 H148        0.8025  -21.2094  -47.6769 H         1 UNK         0.0600 
    149 H149        1.0549  -20.6079  -45.3812 H         1 UNK         0.3000 
    150 H150       -0.2858  -20.0722  -42.1355 H         1 UNK         0.0600 
    151 H151        1.8806  -21.0407  -41.5636 H         1 UNK         0.0600 
    152 H152        2.0753  -19.3030  -41.7310 H         1 UNK         0.0600 
    153 H153        2.6322  -20.3876  -43.0064 H         1 UNK         0.0600 
    154 H154        1.2068  -18.4876  -44.0317 H         1 UNK         0.3000 
    155 H155       -1.7451  -16.8817  -45.3260 H         1 UNK         0.0600 
    156 H156        0.8258  -16.1115  -43.8399 H         1 UNK         0.0600 
    157 H157       -0.7964  -15.9053  -43.1977 H         1 UNK         0.0600 
    158 H158       -0.3058  -15.0250  -44.6376 H         1 UNK         0.0600 
    159 H159        0.8295  -16.5011  -46.2748 H         1 UNK         0.3000 
    160 H160        0.4901  -18.5082  -49.2364 H         1 UNK         0.0600 
    161 H161        1.0246  -16.2271  -49.9972 H         1 UNK         0.0600 
    162 H162        0.7983  -15.5814  -48.3742 H         1 UNK         0.0600 
    163 H163       -0.5698  -16.2455  -49.2589 H         1 UNK         0.0600 
    164 H164        2.5569  -17.2258  -47.5029 H         1 UNK         0.3000 
    165 H165        4.5413  -20.0943  -47.6180 H         1 UNK         0.0600 
    166 H166        6.4210  -18.6819  -48.4169 H         1 UNK         0.0600 
    167 H167        5.3734  -19.1016  -49.7622 H         1 UNK         0.0600 
    168 H168        5.2889  -17.4905  -49.0595 H         1 UNK         0.0600 
    169 H169        5.1318  -17.5292  -46.5838 H         1 UNK         0.3000 
    170 H170        3.0127  -17.4577  -43.7722 H         1 UNK         0.0600 
    171 H171        4.7997  -19.0351  -43.0029 H         1 UNK         0.0600 
    172 H172        6.0144  -18.0627  -43.8234 H         1 UNK         0.0600 
    173 H173        5.1056  -17.3914  -42.4685 H         1 UNK         0.0600 
    174 H174        5.1453  -15.7678  -44.3521 H         1 UNK         0.3000 
    175 H175        4.5485  -13.5852  -44.8938 H         1 UNK         0.0600 
    176 H176        4.6934  -14.3467  -47.8623 H         1 UNK         0.0600 
    177 H177        5.5054  -12.9707  -47.1166 H         1 UNK         0.0600 
    178 H178        5.9624  -14.6055  -46.6714 H         1 UNK         0.0600 
    179 H179        2.9004  -12.8971  -47.1818 H         1 UNK         0.3000 
    180 H180        2.3890  -13.7368  -43.6420 H         1 UNK         0.0600 
    181 H181        2.6486  -10.6769  -43.3839 H         1 UNK         0.0600 
    182 H182        4.0111  -11.7624  -43.6022 H         1 UNK         0.0600 
    183 H183        3.0518  -11.8542  -42.1372 H         1 UNK         0.0600 
    184 H184        0.0910  -12.0739  -44.0183 H         1 UNK         0.3000 
    185 H185       -1.6628  -13.5487  -41.3835 H         1 UNK         0.0600 
    186 H186       -0.7622  -11.7228  -39.9636 H         1 UNK         0.0600 
    187 H187       -0.8846  -10.5844  -41.2995 H         1 UNK         0.0600 
    188 H188       -2.3416  -11.2860  -40.5950 H         1 UNK         0.0600 
    189 H189       -1.9434  -11.3687  -43.3827 H         1 UNK         0.3000 
    190 H190       -2.9227  -20.7558  -44.0323 H         1 UNK         0.3000 
    191 H191       -5.1986  -21.7107  -42.6493 H         1 UNK         0.0600 
    192 H192       -3.8235  -21.3189  -40.6223 H         1 UNK         0.0600 
    193 H193       -3.6291  -19.9917  -41.7582 H         1 UNK         0.0600 
    194 H194       -2.3655  -21.2100  -41.5977 H         1 UNK         0.0600 
    195 H195       -2.1018  -23.3253  -43.3773 H         1 UNK         0.3000 
    196 H196       -2.6592  -25.7527  -41.9320 H         1 UNK         0.0600 
    197 H197       -0.5976  -26.5412  -43.0932 H         1 UNK         0.0600 
    198 H198       -0.3549  -24.9462  -42.4050 H         1 UNK         0.0600 
    199 H199       -0.6273  -25.1264  -44.1383 H         1 UNK         0.0600 
    200 H200       -4.1763  -24.6153  -44.6561 H         1 UNK         0.3000 
    201 H201       -5.5576  -25.4157  -46.1453 H         1 UNK         0.0600 
    202 H202       -6.4171  -26.8886  -44.3050 H         1 UNK         0.0600 
    203 H203       -5.3601  -28.1853  -44.8642 H         1 UNK         0.0600 
    204 H204       -6.6437  -27.5844  -45.9002 H         1 UNK         0.0600 
    205 H205       -2.6397  -25.4237  -46.6470 H         1 UNK         0.3000 
    206 H206       -2.4268  -27.2859  -48.9511 H         1 UNK         0.0600 
    207 H207       -0.4091  -26.8540  -47.5129 H         1 UNK         0.0600 
    208 H208       -0.1698  -26.3559  -49.1796 H         1 UNK         0.0600 
    209 H209       -0.4768  -25.1475  -47.9439 H         1 UNK         0.0600 
    210 H210       -4.0262  -24.5108  -48.2567 H         1 UNK         0.3000 
    211 H211       -5.0497  -22.8630  -49.3407 H         1 UNK         0.0600 
    212 H212       -4.6823  -24.6296  -51.8188 H         1 UNK         0.0600 
    213 H213       -5.8847  -23.3629  -51.6128 H         1 UNK         0.0600 
    214 H214       -5.9616  -24.8086  -50.6200 H         1 UNK         0.0600 
    215 H215       -2.3612  -22.3608  -48.9073 H         1 UNK         0.3000 
    216 H216       -0.6460  -20.9995  -49.3739 H         1 UNK         0.0600 
    217 H217       -1.0763  -18.9712  -50.8108 H         1 UNK         0.0600 
    218 H218       -2.3023  -19.2149  -49.5780 H         1 UNK         0.0600 
    219 H219       -2.6277  -19.6562  -51.2506 H         1 UNK         0.0600 
    220 H220       -0.2880  -23.3520  -50.3905 H         1 UNK         0.3000 
    221 H221        0.8127  -24.6533  -51.7948 H         1 UNK         0.0600 
    222 H222        2.0748  -22.0740  -52.8697 H         1 UNK         0.0600 
    223 H223        2.6406  -22.9899  -51.4762 H         1 UNK         0.0600 
    224 H224        2.7069  -23.7013  -53.0810 H         1 UNK         0.0600 
    225 H225       -1.6933  -24.4289  -52.4645 H         1 UNK         0.3000 
    226 H226       -3.2814  -24.6830  -53.9778 H         1 UNK         0.0600 
    227 H227       -2.7530  -25.7960  -56.1169 H         1 UNK         0.0600 
    228 H228       -1.0492  -25.3987  -55.9516 H         1 UNK         0.0600 
    229 H229       -1.8134  -26.5103  -54.8165 H         1 UNK         0.0600 
    230 H230       -3.0572  -22.1993  -53.4763 H         1 UNK         0.3000 
    231 H231       -3.6076  -20.1735  -54.0094 H         1 UNK         0.0600 
    232 H232       -5.5077  -21.3110  -55.1371 H         1 UNK         0.0600 
    233 H233       -4.6186  -21.3219  -56.6602 H         1 UNK         0.0600 
    234 H234       -5.1069  -19.7977  -55.9321 H         1 UNK         0.0600 
    235 H235       -0.9780  -20.3460  -54.1502 H         1 UNK         0.3000 
    236 H236        0.2581  -19.5250  -56.5598 H         1 UNK         0.0600 
    237 H237        1.4751  -20.4893  -54.6231 H         1 UNK         0.0600 
    238 H238        2.1620  -18.9357  -55.0704 H         1 UNK         0.0600 
    239 H239        1.1201  -19.0558  -53.6577 H         1 UNK         0.0600 
    240 H240       -1.7569  -17.6946  -54.4522 H         1 UNK         0.3000 
    241 H241       -0.8189  -15.0613  -55.2332 H         1 UNK         0.0600 
    242 H242       -3.3091  -16.2677  -58.1570 H         1 UNK         0.3800 
    243 H243       -2.6248  -17.4213  -57.0408 H         1 UNK         0.3800 
    244 H244       -1.8630  -15.2915  -53.0557 H         1 UNK         0.0800 
    245 H245       -2.7677  -14.1877  -54.0376 H         1 UNK         0.0800 
    246 H246       -2.4489  -17.5333  -52.4118 H         1 UNK         0.0800 
    247 H247       -3.9907  -18.3277  -52.6067 H         1 UNK         0.0800 
@<TRIPOS>BOND
     1    1    2 1    
     2    1  127 1    
     3    1  128 1    
     4    1  129 1    
     5    2    3 2    
     6    2    4 am   BACKBONE|DICT|INTERRES
     7    4    5 1    
     8    4  130 1    
     9    5    6 1    
    10    5   65 1    
    11    5  131 1    
    12    6    7 1    
    13    6  132 1    
    14    6  133 1    
    15    7    8 1    
    16    8    9 1    
    17    8  134 1    
    18    8  135 1    
    19    9   10 ar   
    20    9   14 ar   
    21   10   11 ar   
    22   10  136 1    
    23   11   12 ar   
    24   11  126 1    
    25   12   13 ar   
    26   12  137 1    
    27   13   14 ar   
    28   13   15 1    
    29   14  138 1    
    30   15   16 1    
    31   15  139 1    
    32   15  140 1    
    33   16   17 1    
    34   17   18 1    
    35   17  141 1    
    36   17  142 1    
    37   18   19 1    
    38   18   67 1    
    39   18  143 1    
    40   19   20 am   BACKBONE|DICT|INTERRES
    41   19  144 1    
    42   20   21 2    
    43   20   22 1    
    44   22   23 1    
    45   22   24 1    
    46   22  145 1    
    47   23  146 1    
    48   23  147 1    
    49   23  148 1    
    50   24   25 am   BACKBONE|DICT|INTERRES
    51   24  149 1    
    52   25   26 2    
    53   25   27 1    
    54   27   28 1    
    55   27   29 1    
    56   27  150 1    
    57   28  151 1    
    58   28  152 1    
    59   28  153 1    
    60   29   30 am   BACKBONE|DICT|INTERRES
    61   29  154 1    
    62   30   31 2    
    63   30   32 1    
    64   32   33 1    
    65   32   34 1    
    66   32  155 1    
    67   33  156 1    
    68   33  157 1    
    69   33  158 1    
    70   34   35 am   BACKBONE|DICT|INTERRES
    71   34  159 1    
    72   35   36 2    
    73   35   37 1    
    74   37   38 1    
    75   37   39 1    
    76   37  160 1    
    77   38  161 1    
    78   38  162 1    
    79   38  163 1    
    80   39   40 am   BACKBONE|DICT|INTERRES
    81   39  164 1    
    82   40   41 2    
    83   40   42 1    
    84   42   43 1    
    85   42   44 1    
    86   42  165 1    
    87   43  166 1    
    88   43  167 1    
    89   43  168 1    
    90   44   45 am   BACKBONE|DICT|INTERRES
    91   44  169 1    
    92   45   46 2    
    93   45   47 1    
    94   47   48 1    
    95   47   49 1    
    96   47  170 1    
    97   48  171 1    
    98   48  172 1    
    99   48  173 1    
   100   49   50 am   BACKBONE|DICT|INTERRES
   101   49  174 1    
   102   50   51 2    
   103   50   52 1    
   104   52   53 1    
   105   52   54 1    
   106   52  175 1    
   107   53  176 1    
   108   53  177 1    
   109   53  178 1    
   110   54   55 am   BACKBONE|DICT|INTERRES
   111   54  179 1    
   112   55   56 2    
   113   55   57 1    
   114   57   58 1    
   115   57   59 1    
   116   57  180 1    
   117   58  181 1    
   118   58  182 1    
   119   58  183 1    
   120   59   60 am   BACKBONE|DICT|INTERRES
   121   59  184 1    
   122   60   61 2    
   123   60   62 1    
   124   62   63 1    
   125   62   64 1    
   126   62  185 1    
   127   63  186 1    
   128   63  187 1    
   129   63  188 1    
   130   64   65 am   BACKBONE|DICT|INTERRES
   131   64  189 1    
   132   65   66 2    
   133   67   68 2    
   134   67   69 am   BACKBONE|DICT|INTERRES
   135   69   70 1    
   136   69  190 1    
   137   70   71 1    
   138   70   72 1    
   139   70  191 1    
   140   71  192 1    
   141   71  193 1    
   142   71  194 1    
   143   72   73 2    
   144   72   74 am   BACKBONE|DICT|INTERRES
   145   74   75 1    
   146   74  195 1    
   147   75   76 1    
   148   75   77 1    
   149   75  196 1    
   150   76  197 1    
   151   76  198 1    
   152   76  199 1    
   153   77   78 2    
   154   77   79 am   BACKBONE|DICT|INTERRES
   155   79   80 1    
   156   79  200 1    
   157   80   81 1    
   158   80   82 1    
   159   80  201 1    
   160   81  202 1    
   161   81  203 1    
   162   81  204 1    
   163   82   83 2    
   164   82   84 am   BACKBONE|DICT|INTERRES
   165   84   85 1    
   166   84  205 1    
   167   85   86 1    
   168   85   87 1    
   169   85  206 1    
   170   86  207 1    
   171   86  208 1    
   172   86  209 1    
   173   87   88 2    
   174   87   89 am   BACKBONE|DICT|INTERRES
   175   89   90 1    
   176   89  210 1    
   177   90   91 1    
   178   90   92 1    
   179   90  211 1    
   180   91  212 1    
   181   91  213 1    
   182   91  214 1    
   183   92   93 2    
   184   92   94 am   BACKBONE|DICT|INTERRES
   185   94   95 1    
   186   94  215 1    
   187   95   96 1    
   188   95   97 1    
   189   95  216 1    
   190   96  217 1    
   191   96  218 1    
   192   96  219 1    
   193   97   98 2    
   194   97   99 am   BACKBONE|DICT|INTERRES
   195   99  100 1    
   196   99  220 1    
   197  100  101 1    
   198  100  102 1    
   199  100  221 1    
   200  101  222 1    
   201  101  223 1    
   202  101  224 1    
   203  102  103 2    
   204  102  104 am   BACKBONE|DICT|INTERRES
   205  104  105 1    
   206  104  225 1    
   207  105  106 1    
   208  105  107 1    
   209  105  226 1    
   210  106  227 1    
   211  106  228 1    
   212  106  229 1    
   213  107  108 2    
   214  107  109 am   BACKBONE|DICT|INTERRES
   215  109  110 1    
   216  109  230 1    
   217  110  111 1    
   218  110  112 1    
   219  110  231 1    
   220  111  232 1    
   221  111  233 1    
   222  111  234 1    
   223  112  113 2    
   224  112  114 am   BACKBONE|DICT|INTERRES
   225  114  115 1    
   226  114  235 1    
   227  115  116 1    
   228  115  117 1    
   229  115  236 1    
   230  116  237 1    
   231  116  238 1    
   232  116  239 1    
   233  117  118 2    
   234  117  119 am   BACKBONE|DICT|INTERRES
   235  119  120 1    
   236  119  240 1    
   237  120  121 1    
   238  120  124 1    
   239  120  241 1    
   240  121  122 am   BACKBONE|DICT|INTERRES
   241  121  123 2    
   242  122  242 1    
   243  122  243 1    
   244  124  125 1    
   245  124  244 1    
   246  124  245 1    
   247  125  126 1    
   248  126  246 1    
   249  126  247 1    
@<TRIPOS>SUBSTRUCTURE
     1 UNK         1 GROUP             0       ****    0 ROOT    
