@<TRIPOS>MOLECULE
3R540
247   249    1
SMALL
USER_CHARGES


@<TRIPOS>ATOM
      1 CA         -4.9080   -8.6144  -46.3362 C.3       0 UNK        -0.1800 
      2 C          -3.7706   -9.4994  -46.8260 C.2       0 UNK         0.5000 
      3 O          -2.8495   -9.0094  -47.4790 O.2       0 UNK        -0.5000 
      4 N          -3.8277  -10.7964  -46.5093 N.am      1 UNK        -0.5000 
      5 CA         -2.8311  -11.7999  -46.8738 C.3       1 UNK         0.1400 
      6 C6         -2.9950  -12.2388  -48.3553 C.3       23 UNK        -0.0398 
      7 S7         -1.6551  -13.3173  -48.9650 S.3       23 UNK        -0.2404 
      8 C8         -2.5661  -14.8685  -49.2502 C.3       23 UNK        -0.0205 
      9 C9         -1.6888  -15.9303  -49.8971 C.ar      23 UNK        -0.0193 
     10 C10        -1.8865  -16.3017  -51.2289 C.ar      23 UNK        -0.1150 
     11 C11        -1.1024  -17.3012  -51.8147 C.ar      23 UNK        -0.0193 
     12 C12        -0.0950  -17.9116  -51.0598 C.ar      23 UNK        -0.1150 
     13 C13         0.1084  -17.5564  -49.7231 C.ar      23 UNK        -0.0193 
     14 C14        -0.6950  -16.5675  -49.1535 C.ar      23 UNK        -0.1150 
     15 C15         1.1961  -18.2149  -48.8809 C.3       23 UNK        -0.0205 
     16 S16         1.2326  -20.0338  -49.0014 S.3       23 UNK        -0.2404 
     17 C17        -0.4592  -20.4823  -48.4945 C.3       23 UNK        -0.0398 
     18 CA         -0.4931  -21.8051  -47.6951 C.3       11 UNK         0.1400 
     19 N           0.1287  -21.6856  -46.3719 N.am      11 UNK        -0.5000 
     20 C           0.4938  -22.7292  -45.6133 C.2       10 UNK         0.5000 
     21 O           0.3774  -23.9017  -45.9652 O.2       10 UNK        -0.5000 
     22 CA          1.0233  -22.4127  -44.2028 C.3       10 UNK         0.1400 
     23 CB          2.5101  -22.0384  -44.2426 C.3       10 UNK        -0.1800 
     24 N           0.2601  -21.3440  -43.5579 N.am      10 UNK        -0.5000 
     25 C          -1.0142  -21.4818  -43.1619 C.2       9 UNK         0.5000 
     26 O          -1.6472  -22.5315  -43.2630 O.2       9 UNK        -0.5000 
     27 CA         -1.7236  -20.2353  -42.6067 C.3       9 UNK         0.1400 
     28 CB         -1.6139  -20.1957  -41.0764 C.3       9 UNK        -0.1800 
     29 N          -1.2292  -18.9849  -43.1892 N.am      9 UNK        -0.5000 
     30 C          -1.3762  -18.6592  -44.4834 C.2       8 UNK         0.5000 
     31 O          -1.9069  -19.4100  -45.3045 O.2       8 UNK        -0.5000 
     32 CA         -0.8078  -17.3158  -44.9770 C.3       8 UNK         0.1400 
     33 CB         -1.8572  -16.5190  -45.7761 C.3       8 UNK        -0.1800 
     34 N          -0.1576  -16.5166  -43.9318 N.am      8 UNK        -0.5000 
     35 C          -0.7100  -15.7324  -42.9932 C.2       7 UNK         0.5000 
     36 O          -1.9038  -15.4349  -42.9543 O.2       7 UNK        -0.5000 
     37 CA          0.2527  -15.1691  -41.9230 C.3       7 UNK         0.1400 
     38 CB         -0.4499  -14.8874  -40.5780 C.3       7 UNK        -0.1800 
     39 N           1.4561  -15.9951  -41.7365 N.am      7 UNK        -0.5000 
     40 C           1.4865  -17.2571  -41.2840 C.2       6 UNK         0.5000 
     41 O           0.4769  -17.8724  -40.9457 O.2       6 UNK        -0.5000 
     42 CA          2.8608  -17.9569  -41.2619 C.3       6 UNK         0.1400 
     43 CB          2.7586  -19.4538  -40.8984 C.3       6 UNK        -0.1800 
     44 N           3.6138  -17.7923  -42.5102 N.am      6 UNK        -0.5000 
     45 C           3.2432  -18.1544  -43.7462 C.2       5 UNK         0.5000 
     46 O           2.1317  -18.6129  -44.0237 O.2       5 UNK        -0.5000 
     47 CA          4.2978  -17.9306  -44.8530 C.3       5 UNK         0.1400 
     48 CB          3.9043  -18.5787  -46.1909 C.3       5 UNK        -0.1800 
     49 N           4.5304  -16.5079  -45.0908 N.am      5 UNK        -0.5000 
     50 C           5.2200  -15.6703  -44.3046 C.2       4 UNK         0.5000 
     51 O           5.8162  -16.0276  -43.2873 O.2       4 UNK        -0.5000 
     52 CA          5.2148  -14.1788  -44.7052 C.3       4 UNK         0.1400 
     53 CB          6.5106  -13.8180  -45.4470 C.3       4 UNK        -0.1800 
     54 N           4.0650  -13.7922  -45.5338 N.am      4 UNK        -0.5000 
     55 C           2.7882  -13.8467  -45.1322 C.2       3 UNK         0.5000 
     56 O           2.4492  -14.2139  -44.0061 O.2       3 UNK        -0.5000 
     57 CA          1.7205  -13.5141  -46.1908 C.3       3 UNK         0.1400 
     58 CB          1.5900  -14.6816  -47.1795 C.3       3 UNK        -0.1800 
     59 N           0.4121  -13.2605  -45.5825 N.am      3 UNK        -0.5000 
     60 C           0.0944  -12.1395  -44.9236 C.2       2 UNK         0.5000 
     61 O           0.8258  -11.1496  -44.8785 O.2       2 UNK        -0.5000 
     62 CA         -1.2559  -12.1288  -44.1778 C.3       2 UNK         0.1400 
     63 CB         -1.7976  -10.7107  -43.9066 C.3       2 UNK        -0.1800 
     64 N          -2.2787  -13.0253  -44.7388 N.am      2 UNK        -0.5000 
     65 C          -3.0015  -12.9597  -45.8703 C.2       1 UNK         0.5000 
     66 O          -3.8669  -13.8021  -46.1016 O.2       1 UNK        -0.5000 
     67 C          -1.9310  -22.3526  -47.6004 C.2       11 UNK         0.5000 
     68 O          -2.3496  -23.0997  -48.4836 O.2       11 UNK        -0.5000 
     69 N          -2.6617  -21.9962  -46.5349 N.am      12 UNK        -0.5000 
     70 CA         -3.9830  -22.5476  -46.2350 C.3       12 UNK         0.1400 
     71 CB         -4.6445  -21.7364  -45.1119 C.3       12 UNK        -0.1800 
     72 C          -3.9136  -24.0455  -45.8793 C.2       12 UNK         0.5000 
     73 O          -4.6865  -24.8355  -46.4233 O.2       12 UNK        -0.5000 
     74 N          -2.9620  -24.4122  -45.0077 N.am      13 UNK        -0.5000 
     75 CA         -2.6969  -25.7887  -44.5826 C.3       13 UNK         0.1400 
     76 CB         -1.6717  -25.7849  -43.4392 C.3       13 UNK        -0.1800 
     77 C          -2.2230  -26.7034  -45.7266 C.2       13 UNK         0.5000 
     78 O          -2.5754  -27.8839  -45.7418 O.2       13 UNK        -0.5000 
     79 N          -1.4691  -26.1448  -46.6831 N.am      14 UNK        -0.5000 
     80 CA         -0.9879  -26.8046  -47.8987 C.3       14 UNK         0.1400 
     81 CB          0.1985  -26.0019  -48.4623 C.3       14 UNK        -0.1800 
     82 C          -2.1057  -27.0144  -48.9446 C.2       14 UNK         0.5000 
     83 O          -1.9801  -26.5614  -50.0821 O.2       14 UNK        -0.5000 
     84 N          -3.1850  -27.6957  -48.5359 N.am      15 UNK        -0.5000 
     85 CA         -4.3555  -28.0823  -49.3319 C.3       15 UNK         0.1400 
     86 CB         -3.9699  -29.1816  -50.3437 C.3       15 UNK        -0.1800 
     87 C          -5.0798  -26.8875  -49.9907 C.2       15 UNK         0.5000 
     88 O          -5.5361  -26.9965  -51.1305 O.2       15 UNK        -0.5000 
     89 N          -5.1694  -25.7692  -49.2546 N.am      16 UNK        -0.5000 
     90 CA         -5.7851  -24.5006  -49.6542 C.3       16 UNK         0.1400 
     91 CB         -7.3111  -24.6548  -49.8236 C.3       16 UNK        -0.1800 
     92 C          -5.1059  -23.8342  -50.8697 C.2       16 UNK         0.5000 
     93 O          -5.7786  -23.1739  -51.6635 O.2       16 UNK        -0.5000 
     94 N          -3.7735  -23.9628  -50.9704 N.am      17 UNK        -0.5000 
     95 CA         -2.9350  -23.3130  -51.9852 C.3       17 UNK         0.1400 
     96 CB         -1.4784  -23.7759  -51.8359 C.3       17 UNK        -0.1800 
     97 C          -3.0059  -21.7743  -51.9612 C.2       17 UNK         0.5000 
     98 O          -2.7468  -21.1460  -52.9869 O.2       17 UNK        -0.5000 
     99 N          -3.4066  -21.2000  -50.8170 N.am      18 UNK        -0.5000 
    100 CA        -3.7084  -19.7793  -50.6215 C.3       18 UNK         0.1400 
    101 CB        -4.1418  -19.5512  -49.1647 C.3       18 UNK        -0.1800 
    102 C         -4.7685  -19.2106  -51.5902 C.2       18 UNK         0.5000 
    103 O         -4.7735  -18.0032  -51.8324 O.2       18 UNK        -0.5000 
    104 N         -5.6222  -20.0748  -52.1607 N.am      19 UNK        -0.5000 
    105 CA        -6.6084  -19.7492  -53.1926 C.3       19 UNK         0.1400 
    106 CB        -7.6793  -20.8542  -53.2198 C.3       19 UNK        -0.1800 
    107 C         -5.9585  -19.5156  -54.5771 C.2       19 UNK         0.5000 
    108 O         -6.2737  -20.2170  -55.5392 O.2       19 UNK        -0.5000 
    109 N         -5.0555  -18.5279  -54.6417 N.am      20 UNK        -0.5000 
    110 CA        -4.3758  -17.9709  -55.8196 C.3       20 UNK         0.1400 
    111 CB        -5.4040  -17.3901  -56.8124 C.3       20 UNK        -0.1800 
    112 C         -3.3634  -18.8960  -56.5319 C.2       20 UNK         0.5000 
    113 O         -2.7402  -18.4501  -57.4968 O.2       20 UNK        -0.5000 
    114 N         -3.1894  -20.1408  -56.0685 N.am      21 UNK        -0.5000 
    115 CA        -2.2195  -21.0888  -56.6231 C.3       21 UNK         0.1400 
    116 CB        -2.6514  -22.5249  -56.2846 C.3       21 UNK        -0.1800 
    117 C         -0.7996  -20.7986  -56.1072 C.2       21 UNK         0.5000 
    118 O          0.1431  -20.7277  -56.8959 O.2       21 UNK        -0.5000 
    119 N         -0.6976  -20.6223  -54.7858 N.am      22 UNK        -0.5000 
    120 CA         0.4985  -20.2640  -54.0077 C.3       22 UNK         0.1400 
    121 C          1.6114  -21.3562  -53.9603 C.2       22 UNK         0.5000 
    122 N          1.3554  -22.5877  -54.3844 N.am      22 UNK        -0.7600 
    123 O          2.7198  -21.0951  -53.5013 O.2       22 UNK        -0.5000 
    124 C124        1.0711  -18.8559  -54.3558 C.3       23 UNK        -0.0398 
    125 S125       -0.0879  -17.4326  -54.4315 S.3       23 UNK        -0.2404 
    126 C126       -1.4160  -17.7701  -53.2285 C.3       23 UNK        -0.0205 
    127 H127       -5.4089   -8.1442  -47.1824 H         1 UNK         0.0600 
    128 H128       -4.5192   -7.8286  -45.6886 H         1 UNK         0.0600 
    129 H129       -5.6503   -9.1817  -45.7740 H         1 UNK         0.0600 
    130 H130       -4.6014  -11.1483  -45.9608 H         1 UNK         0.3000 
    131 H131       -1.8363  -11.3691  -46.7668 H         1 UNK         0.0600 
    132 H132       -2.9944  -11.3580  -48.9983 H         1 UNK         0.0800 
    133 H133       -3.9655  -12.7112  -48.5161 H         1 UNK         0.0800 
    134 H134       -3.4350  -14.6656  -49.8781 H         1 UNK         0.0800 
    135 H135       -2.9531  -15.2444  -48.3024 H         1 UNK         0.0800 
    136 H136       -2.6745  -15.8322  -51.8009 H         1 UNK         0.1150 
    137 H137        0.5247  -18.6768  -51.4981 H         1 UNK         0.1150 
    138 H138       -0.5415  -16.2820  -48.1269 H         1 UNK         0.1150 
    139 H139        1.0718  -17.9477  -47.8320 H         1 UNK         0.0800 
    140 H140        2.1652  -17.8210  -49.1893 H         1 UNK         0.0800 
    141 H141       -1.0440  -20.5676  -49.4111 H         1 UNK         0.0800 
    142 H142       -0.9048  -19.6710  -47.9163 H         1 UNK         0.0800 
    143 H143        0.0773  -22.5455  -48.2606 H         1 UNK         0.0600 
    144 H144        0.2274  -20.7535  -45.9987 H         1 UNK         0.3000 
    145 H145        0.9209  -23.3162  -43.5979 H         1 UNK         0.0600 
    146 H146        2.9008  -21.8564  -43.2415 H         1 UNK         0.0600 
    147 H147        2.6762  -21.1419  -44.8361 H         1 UNK         0.0600 
    148 H148        3.1030  -22.8400  -44.6846 H         1 UNK         0.0600 
    149 H149        0.7087  -20.4404  -43.4724 H         1 UNK         0.3000 
    150 H150       -2.7820  -20.3148  -42.8609 H         1 UNK         0.0600 
    151 H151       -2.1238  -21.0506  -40.6307 H         1 UNK         0.0600 
    152 H152       -0.5757  -20.2313  -40.7452 H         1 UNK         0.0600 
    153 H153       -2.0699  -19.2941  -40.6669 H         1 UNK         0.0600 
    154 H154       -0.7371  -18.3574  -42.5630 H         1 UNK         0.3000 
    155 H155       -0.0087  -17.5801  -45.6698 H         1 UNK         0.0600 
    156 H156       -2.7497  -16.3089  -45.1871 H         1 UNK         0.0600 
    157 H157       -2.1902  -17.0827  -46.6481 H         1 UNK         0.0600 
    158 H158       -1.4553  -15.5719  -46.1309 H         1 UNK         0.0600 
    159 H159        0.8323  -16.7030  -43.8314 H         1 UNK         0.3000 
    160 H160        0.5948  -14.2067  -42.3008 H         1 UNK         0.0600 
    161 H161       -0.9210  -15.7806  -40.1672 H         1 UNK         0.0600 
    162 H162       -1.2309  -14.1354  -40.6961 H         1 UNK         0.0600 
    163 H163        0.2538  -14.5074  -39.8374 H         1 UNK         0.0600 
    164 H164        2.3171  -15.5743  -42.0627 H         1 UNK         0.3000 
    165 H165        3.4420  -17.4652  -40.4807 H         1 UNK         0.0600 
    166 H166        2.3036  -19.5877  -39.9163 H         1 UNK         0.0600 
    167 H167        2.1511  -20.0050  -41.6164 H         1 UNK         0.0600 
    168 H168        3.7431  -19.9203  -40.8652 H         1 UNK         0.0600 
    169 H169        4.5213  -17.3459  -42.4213 H         1 UNK         0.3000 
    170 H170        5.2313  -18.3892  -44.5204 H         1 UNK         0.0600 
    171 H171        4.6576  -18.3943  -46.9569 H         1 UNK         0.0600 
    172 H172        3.8068  -19.6589  -46.0950 H         1 UNK         0.0600 
    173 H173        2.9550  -18.1916  -46.5565 H         1 UNK         0.0600 
    174 H174        4.0676  -16.1128  -45.8947 H         1 UNK         0.3000 
    175 H175        5.1739  -13.5955  -43.7829 H         1 UNK         0.0600 
    176 H176        7.3870  -14.0667  -44.8468 H         1 UNK         0.0600 
    177 H177        6.5966  -14.3558  -46.3920 H         1 UNK         0.0600 
    178 H178        6.5589  -12.7502  -45.6614 H         1 UNK         0.0600 
    179 H179        4.2727  -13.4887  -46.4746 H         1 UNK         0.3000 
    180 H180        2.0384  -12.6236  -46.7373 H         1 UNK         0.0600 
    181 H181        1.2492  -15.5914  -46.6850 H         1 UNK         0.0600 
    182 H182        2.5419  -14.9072  -47.6614 H         1 UNK         0.0600 
    183 H183        0.8877  -14.4374  -47.9744 H         1 UNK         0.0600 
    184 H184       -0.2296  -14.0374  -45.5496 H         1 UNK         0.3000 
    185 H185       -1.0370  -12.5554  -43.1985 H         1 UNK         0.0600 
    186 H186       -1.1842  -10.2068  -43.1590 H         1 UNK         0.0600 
    187 H187       -1.7786  -10.0828  -44.7956 H         1 UNK         0.0600 
    188 H188       -2.8177  -10.7341  -43.5231 H         1 UNK         0.0600 
    189 H189       -2.4593  -13.8307  -44.1481 H         1 UNK         0.3000 
    190 H190       -2.2877  -21.3099  -45.8878 H         1 UNK         0.3000 
    191 H191       -4.6000  -22.4407  -47.1289 H         1 UNK         0.0600 
    192 H192       -4.6906  -20.6768  -45.3646 H         1 UNK         0.0600 
    193 H193       -5.6663  -22.0760  -44.9391 H         1 UNK         0.0600 
    194 H194       -4.1058  -21.8333  -44.1701 H         1 UNK         0.0600 
    195 H195       -2.3964  -23.6915  -44.5667 H         1 UNK         0.3000 
    196 H196       -3.6319  -26.2019  -44.1991 H         1 UNK         0.0600 
    197 H197       -0.7251  -25.3420  -43.7506 H         1 UNK         0.0600 
    198 H198       -1.4638  -26.7989  -43.0952 H         1 UNK         0.0600 
    199 H199       -2.0395  -25.2207  -42.5821 H         1 UNK         0.0600 
    200 H200       -1.1833  -25.1800  -46.5606 H         1 UNK         0.3000 
    201 H201       -0.6162  -27.7949  -47.6281 H         1 UNK         0.0600 
    202 H202       -0.0995  -24.9908  -48.7412 H         1 UNK         0.0600 
    203 H203        1.0050  -25.9252  -47.7331 H         1 UNK         0.0600 
    204 H204        0.6121  -26.4807  -49.3507 H         1 UNK         0.0600 
    205 H205       -3.1933  -27.9882  -47.5624 H         1 UNK         0.3000 
    206 H206       -5.0698  -28.5167  -48.6312 H         1 UNK         0.0600 
    207 H207       -3.4857  -30.0224  -49.8470 H         1 UNK         0.0600 
    208 H208       -4.8509  -29.5726  -50.8541 H         1 UNK         0.0600 
    209 H209       -3.2883  -28.8056  -51.1075 H         1 UNK         0.0600 
    210 H210       -4.7694  -25.7713  -48.3222 H         1 UNK         0.3000 
    211 H211       -5.6242  -23.8167  -48.8212 H         1 UNK         0.0600 
    212 H212       -7.7618  -25.1062  -48.9397 H         1 UNK         0.0600 
    213 H213       -7.7885  -23.6851  -49.9695 H         1 UNK         0.0600 
    214 H214       -7.5640  -25.2745  -50.6842 H         1 UNK         0.0600 
    215 H215       -3.2829  -24.5053  -50.2699 H         1 UNK         0.3000 
    216 H216       -3.2970  -23.6348  -52.9632 H         1 UNK         0.0600 
    217 H217       -1.0883  -23.5713  -50.8386 H         1 UNK         0.0600 
    218 H218       -0.8293  -23.2705  -52.5516 H         1 UNK         0.0600 
    219 H219       -1.3857  -24.8456  -52.0206 H         1 UNK         0.0600 
    220 H220       -3.5578  -21.8129  -50.0274 H         1 UNK         0.3000 
    221 H221       -2.7851  -19.2268  -50.7915 H         1 UNK         0.0600 
    222 H222       -5.0324  -20.1289  -48.9147 H         1 UNK         0.0600 
    223 H223       -3.3557  -19.8268  -48.4637 H         1 UNK         0.0600 
    224 H224       -4.3703  -18.4995  -48.9860 H         1 UNK         0.0600 
    225 H225       -5.5377  -21.0589  -51.9316 H         1 UNK         0.3000 
    226 H226       -7.1058  -18.8185  -52.9117 H         1 UNK         0.0600 
    227 H227       -8.1427  -20.9801  -52.2411 H         1 UNK         0.0600 
    228 H228       -8.4739  -20.6119  -53.9265 H         1 UNK         0.0600 
    229 H229       -7.2580  -21.8156  -53.5160 H         1 UNK         0.0600 
    230 H230       -4.8485  -18.0634  -53.7613 H         1 UNK         0.3000 
    231 H231       -3.7883  -17.1321  -55.4454 H         1 UNK         0.0600 
    232 H232       -6.0027  -18.1718  -57.2806 H         1 UNK         0.0600 
    233 H233       -4.9093  -16.8381  -57.6125 H         1 UNK         0.0600 
    234 H234       -6.0838  -16.6969  -56.3168 H         1 UNK         0.0600 
    235 H235       -3.7224  -20.4395  -55.2639 H         1 UNK         0.3000 
    236 H236       -2.2093  -20.9933  -57.7111 H         1 UNK         0.0600 
    237 H237       -2.6949  -22.6966  -55.2095 H         1 UNK         0.0600 
    238 H238       -3.6364  -22.7450  -56.6966 H         1 UNK         0.0600 
    239 H239       -1.9539  -23.2504  -56.7050 H         1 UNK         0.0600 
    240 H240       -1.5387  -20.7514  -54.2261 H         1 UNK         0.3000 
    241 H241        0.1444  -20.2327  -52.9794 H         1 UNK         0.0600 
    242 H242        2.0799  -23.2868  -54.3406 H         1 UNK         0.3800 
    243 H243        0.4573  -22.8183  -54.7756 H         1 UNK         0.3800 
    244 H244        1.5777  -18.9014  -55.3209 H         1 UNK         0.0800 
    245 H245        1.8449  -18.5871  -53.6350 H         1 UNK         0.0800 
    246 H246       -1.6889  -18.8198  -53.2054 H         1 UNK         0.0800 
    247 H247       -2.3081  -17.2575  -53.5874 H         1 UNK         0.0800 
@<TRIPOS>BOND
     1    1    2 1    
     2    1  127 1    
     3    1  128 1    
     4    1  129 1    
     5    2    3 2    
     6    2    4 am   BACKBONE|DICT|INTERRES
     7    4    5 1    
     8    4  130 1    
     9    5    6 1    
    10    5   65 1    
    11    5  131 1    
    12    6    7 1    
    13    6  132 1    
    14    6  133 1    
    15    7    8 1    
    16    8    9 1    
    17    8  134 1    
    18    8  135 1    
    19    9   10 ar   
    20    9   14 ar   
    21   10   11 ar   
    22   10  136 1    
    23   11   12 ar   
    24   11  126 1    
    25   12   13 ar   
    26   12  137 1    
    27   13   14 ar   
    28   13   15 1    
    29   14  138 1    
    30   15   16 1    
    31   15  139 1    
    32   15  140 1    
    33   16   17 1    
    34   17   18 1    
    35   17  141 1    
    36   17  142 1    
    37   18   19 1    
    38   18   67 1    
    39   18  143 1    
    40   19   20 am   BACKBONE|DICT|INTERRES
    41   19  144 1    
    42   20   21 2    
    43   20   22 1    
    44   22   23 1    
    45   22   24 1    
    46   22  145 1    
    47   23  146 1    
    48   23  147 1    
    49   23  148 1    
    50   24   25 am   BACKBONE|DICT|INTERRES
    51   24  149 1    
    52   25   26 2    
    53   25   27 1    
    54   27   28 1    
    55   27   29 1    
    56   27  150 1    
    57   28  151 1    
    58   28  152 1    
    59   28  153 1    
    60   29   30 am   BACKBONE|DICT|INTERRES
    61   29  154 1    
    62   30   31 2    
    63   30   32 1    
    64   32   33 1    
    65   32   34 1    
    66   32  155 1    
    67   33  156 1    
    68   33  157 1    
    69   33  158 1    
    70   34   35 am   BACKBONE|DICT|INTERRES
    71   34  159 1    
    72   35   36 2    
    73   35   37 1    
    74   37   38 1    
    75   37   39 1    
    76   37  160 1    
    77   38  161 1    
    78   38  162 1    
    79   38  163 1    
    80   39   40 am   BACKBONE|DICT|INTERRES
    81   39  164 1    
    82   40   41 2    
    83   40   42 1    
    84   42   43 1    
    85   42   44 1    
    86   42  165 1    
    87   43  166 1    
    88   43  167 1    
    89   43  168 1    
    90   44   45 am   BACKBONE|DICT|INTERRES
    91   44  169 1    
    92   45   46 2    
    93   45   47 1    
    94   47   48 1    
    95   47   49 1    
    96   47  170 1    
    97   48  171 1    
    98   48  172 1    
    99   48  173 1    
   100   49   50 am   BACKBONE|DICT|INTERRES
   101   49  174 1    
   102   50   51 2    
   103   50   52 1    
   104   52   53 1    
   105   52   54 1    
   106   52  175 1    
   107   53  176 1    
   108   53  177 1    
   109   53  178 1    
   110   54   55 am   BACKBONE|DICT|INTERRES
   111   54  179 1    
   112   55   56 2    
   113   55   57 1    
   114   57   58 1    
   115   57   59 1    
   116   57  180 1    
   117   58  181 1    
   118   58  182 1    
   119   58  183 1    
   120   59   60 am   BACKBONE|DICT|INTERRES
   121   59  184 1    
   122   60   61 2    
   123   60   62 1    
   124   62   63 1    
   125   62   64 1    
   126   62  185 1    
   127   63  186 1    
   128   63  187 1    
   129   63  188 1    
   130   64   65 am   BACKBONE|DICT|INTERRES
   131   64  189 1    
   132   65   66 2    
   133   67   68 2    
   134   67   69 am   BACKBONE|DICT|INTERRES
   135   69   70 1    
   136   69  190 1    
   137   70   71 1    
   138   70   72 1    
   139   70  191 1    
   140   71  192 1    
   141   71  193 1    
   142   71  194 1    
   143   72   73 2    
   144   72   74 am   BACKBONE|DICT|INTERRES
   145   74   75 1    
   146   74  195 1    
   147   75   76 1    
   148   75   77 1    
   149   75  196 1    
   150   76  197 1    
   151   76  198 1    
   152   76  199 1    
   153   77   78 2    
   154   77   79 am   BACKBONE|DICT|INTERRES
   155   79   80 1    
   156   79  200 1    
   157   80   81 1    
   158   80   82 1    
   159   80  201 1    
   160   81  202 1    
   161   81  203 1    
   162   81  204 1    
   163   82   83 2    
   164   82   84 am   BACKBONE|DICT|INTERRES
   165   84   85 1    
   166   84  205 1    
   167   85   86 1    
   168   85   87 1    
   169   85  206 1    
   170   86  207 1    
   171   86  208 1    
   172   86  209 1    
   173   87   88 2    
   174   87   89 am   BACKBONE|DICT|INTERRES
   175   89   90 1    
   176   89  210 1    
   177   90   91 1    
   178   90   92 1    
   179   90  211 1    
   180   91  212 1    
   181   91  213 1    
   182   91  214 1    
   183   92   93 2    
   184   92   94 am   BACKBONE|DICT|INTERRES
   185   94   95 1    
   186   94  215 1    
   187   95   96 1    
   188   95   97 1    
   189   95  216 1    
   190   96  217 1    
   191   96  218 1    
   192   96  219 1    
   193   97   98 2    
   194   97   99 am   BACKBONE|DICT|INTERRES
   195   99  100 1    
   196   99  220 1    
   197  100  101 1    
   198  100  102 1    
   199  100  221 1    
   200  101  222 1    
   201  101  223 1    
   202  101  224 1    
   203  102  103 2    
   204  102  104 am   BACKBONE|DICT|INTERRES
   205  104  105 1    
   206  104  225 1    
   207  105  106 1    
   208  105  107 1    
   209  105  226 1    
   210  106  227 1    
   211  106  228 1    
   212  106  229 1    
   213  107  108 2    
   214  107  109 am   BACKBONE|DICT|INTERRES
   215  109  110 1    
   216  109  230 1    
   217  110  111 1    
   218  110  112 1    
   219  110  231 1    
   220  111  232 1    
   221  111  233 1    
   222  111  234 1    
   223  112  113 2    
   224  112  114 am   BACKBONE|DICT|INTERRES
   225  114  115 1    
   226  114  235 1    
   227  115  116 1    
   228  115  117 1    
   229  115  236 1    
   230  116  237 1    
   231  116  238 1    
   232  116  239 1    
   233  117  118 2    
   234  117  119 am   BACKBONE|DICT|INTERRES
   235  119  120 1    
   236  119  240 1    
   237  120  121 1    
   238  120  124 1    
   239  120  241 1    
   240  121  122 am   BACKBONE|DICT|INTERRES
   241  121  123 2    
   242  122  242 1    
   243  122  243 1    
   244  124  125 1    
   245  124  244 1    
   246  124  245 1    
   247  125  126 1    
   248  126  246 1    
   249  126  247 1    
@<TRIPOS>SUBSTRUCTURE
     1 UNK         1 GROUP             0       ****    0 ROOT    
