@<TRIPOS>MOLECULE
3R540
247   249    1
SMALL
USER_CHARGES


@<TRIPOS>ATOM
      1 CA          2.3706  -11.5798  -49.5308 C.3       0 UNK        -0.1800 
      2 C           1.3248  -12.5565  -49.0113 C.2       0 UNK         0.5000 
      3 O           1.6628  -13.4642  -48.2510 O.2       0 UNK        -0.5000 
      4 N           0.0650  -12.3700  -49.4271 N.am      1 UNK        -0.5000 
      5 CA         -1.1046  -13.1985  -49.1091 C.3       1 UNK         0.1400 
      6 C6         -2.3769  -12.6994  -49.8423 C.3       23 UNK        -0.0398 
      7 S7         -2.1795  -12.5950  -51.6539 S.3       23 UNK        -0.2404 
      8 C8         -3.0794  -14.0744  -52.2094 C.3       23 UNK        -0.0205 
      9 C9         -2.2880  -15.3458  -51.9489 C.ar      23 UNK        -0.0193 
     10 C10        -1.2571  -15.7120  -52.8168 C.ar      23 UNK        -0.1150 
     11 C11        -0.5420  -16.8959  -52.6157 C.ar      23 UNK        -0.0193 
     12 C12        -0.8563  -17.7101  -51.5226 C.ar      23 UNK        -0.1150 
     13 C13        -1.8903  -17.3558  -50.6499 C.ar      23 UNK        -0.0193 
     14 C14        -2.5997  -16.1704  -50.8649 C.ar      23 UNK        -0.1150 
     15 C15        -2.2827  -18.2765  -49.5077 C.3       23 UNK        -0.0205 
     16 S16        -1.2921  -17.9833  -48.0108 S.3       23 UNK        -0.2404 
     17 C17        -2.1934  -19.0527  -46.8393 C.3       23 UNK        -0.0398 
     18 CA         -1.7276  -20.5284  -46.9005 C.3       11 UNK         0.1400 
     19 N          -0.4264  -20.7417  -46.2615 N.am      11 UNK        -0.5000 
     20 C           0.2683  -21.8876  -46.3013 C.2       10 UNK         0.5000 
     21 O          -0.0940  -22.8834  -46.9242 O.2       10 UNK        -0.5000 
     22 CA          1.5525  -21.9599  -45.4562 C.3       10 UNK         0.1400 
     23 CB          2.7150  -21.2309  -46.1458 C.3       10 UNK        -0.1800 
     24 N           1.3581  -21.4364  -44.1035 N.am      10 UNK        -0.5000 
     25 C           0.5254  -21.9770  -43.2011 C.2       9 UNK         0.5000 
     26 O          -0.1270  -23.0023  -43.3997 O.2       9 UNK        -0.5000 
     27 CA          0.3575  -21.2247  -41.8694 C.3       9 UNK         0.1400 
     28 CB          1.5116  -21.5539  -40.9113 C.3       9 UNK        -0.1800 
     29 N           0.2617  -19.7759  -42.0496 N.am      9 UNK        -0.5000 
     30 C          -0.7258  -19.1557  -42.7116 C.2       8 UNK         0.5000 
     31 O          -1.6957  -19.7371  -43.1965 O.2       8 UNK        -0.5000 
     32 CA         -0.5727  -17.6403  -42.9314 C.3       8 UNK         0.1400 
     33 CB         -0.9725  -16.8513  -41.6776 C.3       8 UNK        -0.1800 
     34 N           0.7813  -17.2698  -43.3434 N.am      8 UNK        -0.5000 
     35 C           1.3631  -17.6932  -44.4748 C.2       7 UNK         0.5000 
     36 O           0.7972  -18.3985  -45.3056 O.2       7 UNK        -0.5000 
     37 CA          2.8246  -17.2889  -44.7096 C.3       7 UNK         0.1400 
     38 CB          2.8981  -15.9004  -45.3519 C.3       7 UNK        -0.1800 
     39 N           3.5961  -17.3082  -43.4689 N.am      7 UNK        -0.5000 
     40 C           3.9747  -18.4339  -42.8484 C.2       6 UNK         0.5000 
     41 O           3.7345  -19.5644  -43.2746 O.2       6 UNK        -0.5000 
     42 CA          4.7067  -18.2638  -41.5053 C.3       6 UNK         0.1400 
     43 CB          6.1733  -17.8642  -41.7276 C.3       6 UNK        -0.1800 
     44 N           4.0607  -17.2828  -40.6315 N.am      6 UNK        -0.5000 
     45 C           2.8341  -17.4291  -40.1124 C.2       5 UNK         0.5000 
     46 O           2.1168  -18.4071  -40.3170 O.2       5 UNK        -0.5000 
     47 CA          2.3020  -16.2800  -39.2386 C.3       5 UNK         0.1400 
     48 CB          2.7552  -16.4629  -37.7823 C.3       5 UNK        -0.1800 
     49 N           2.6691  -14.9355  -39.6923 N.am      5 UNK        -0.5000 
     50 C           2.4175  -14.4165  -40.9022 C.2       4 UNK         0.5000 
     51 O           1.9568  -15.0676  -41.8438 O.2       4 UNK        -0.5000 
     52 CA          2.7055  -12.9082  -41.0433 C.3       4 UNK         0.1400 
     53 CB          4.2034  -12.5812  -40.8606 C.3       4 UNK        -0.1800 
     54 N           2.1591  -12.3393  -42.2809 N.am      4 UNK        -0.5000 
     55 C           2.6189  -12.4735  -43.5316 C.2       3 UNK         0.5000 
     56 O           3.6735  -13.0347  -43.8341 O.2       3 UNK        -0.5000 
     57 CA          1.7251  -11.8830  -44.6386 C.3       3 UNK         0.1400 
     58 CB          2.5530  -11.1833  -45.7279 C.3       3 UNK        -0.1800 
     59 N           0.8975  -12.9174  -45.2572 N.am      3 UNK        -0.5000 
     60 C          -0.1639  -13.5015  -44.6809 C.2       2 UNK         0.5000 
     61 O          -0.5793  -13.1957  -43.5617 O.2       2 UNK        -0.5000 
     62 CA         -0.8889  -14.5924  -45.5053 C.3       2 UNK         0.1400 
     63 CB         -2.3269  -14.8676  -45.0187 C.3       2 UNK        -0.1800 
     64 N          -0.8731  -14.3428  -46.9511 N.am      2 UNK        -0.5000 
     65 C          -1.3515  -13.2632  -47.5870 C.2       1 UNK         0.5000 
     66 O          -1.9282  -12.3290  -47.0262 O.2       1 UNK        -0.5000 
     67 C          -2.8125  -21.4665  -46.3359 C.2       11 UNK         0.5000 
     68 O          -3.5783  -22.0295  -47.1176 O.2       11 UNK        -0.5000 
     69 N          -2.8515  -21.6446  -45.0074 N.am      12 UNK        -0.5000 
     70 CA         -3.7651  -22.5647  -44.3275 C.3       12 UNK         0.1400 
     71 CB         -3.6369  -22.4069  -42.8051 C.3       12 UNK        -0.1800 
     72 C          -3.5513  -24.0281  -44.7543 C.2       12 UNK         0.5000 
     73 O          -4.5218  -24.7082  -45.0924 O.2       12 UNK        -0.5000 
     74 N          -2.2823  -24.4619  -44.7793 N.am      13 UNK        -0.5000 
     75 CA         -1.8595  -25.7834  -45.2459 C.3       13 UNK         0.1400 
     76 CB         -0.3635  -25.9746  -44.9553 C.3       13 UNK        -0.1800 
     77 C          -2.1599  -26.0191  -46.7380 C.2       13 UNK         0.5000 
     78 O          -2.5699  -27.1203  -47.1089 O.2       13 UNK        -0.5000 
     79 N          -1.9978  -24.9756  -47.5618 N.am      14 UNK        -0.5000 
     80 CA         -2.3108  -24.9477  -48.9906 C.3       14 UNK         0.1400 
     81 CB         -1.5024  -23.8232  -49.6549 C.3       14 UNK        -0.1800 
     82 C          -3.8271  -24.8303  -49.2590 C.2       14 UNK         0.5000 
     83 O          -4.2780  -23.8893  -49.9178 O.2       14 UNK        -0.5000 
     84 N          -4.5796  -25.8091  -48.7375 N.am      15 UNK        -0.5000 
     85 CA         -6.0132  -26.0431  -48.9273 C.3       15 UNK         0.1400 
     86 CB         -6.2706  -26.5555  -50.3597 C.3       15 UNK        -0.1800 
     87 C          -6.9047  -24.8450  -48.5360 C.2       15 UNK         0.5000 
     88 O          -7.8989  -24.5764  -49.2119 O.2       15 UNK        -0.5000 
     89 N          -6.5339  -24.1591  -47.4431 N.am      16 UNK        -0.5000 
     90 CA         -7.1868  -22.9678  -46.8909 C.3       16 UNK         0.1400 
     91 CB         -8.5787  -23.3163  -46.3232 C.3       16 UNK        -0.1800 
     92 C          -7.2107  -21.7974  -47.8961 C.2       16 UNK         0.5000 
     93 O          -8.2807  -21.3076  -48.2628 O.2       16 UNK        -0.5000 
     94 N          -6.0078  -21.3839  -48.3158 N.am      17 UNK        -0.5000 
     95 CA         -5.7089  -20.3062  -49.2597 C.3       17 UNK         0.1400 
     96 CB         -6.1507  -18.9371  -48.6999 C.3       17 UNK        -0.1800 
     97 C          -6.2319  -20.5888  -50.6819 C.2       17 UNK         0.5000 
     98 O          -6.8000  -19.7032  -51.3233 O.2       17 UNK        -0.5000 
     99 N          -5.9978  -21.8157  -51.1594 N.am      18 UNK        -0.5000 
    100 CA        -6.2782  -22.2595  -52.5236 C.3       18 UNK         0.1400 
    101 CB        -7.4661  -23.2367  -52.5150 C.3       18 UNK        -0.1800 
    102 C         -4.9884  -22.8616  -53.1041 C.2       18 UNK         0.5000 
    103 O         -4.9789  -23.9946  -53.5892 O.2       18 UNK        -0.5000 
    104 N         -3.9019  -22.0849  -53.0053 N.am      19 UNK        -0.5000 
    105 CA        -2.5193  -22.4668  -53.2911 C.3       19 UNK         0.1400 
    106 CB        -1.5927  -21.5026  -52.5261 C.3       19 UNK        -0.1800 
    107 C         -2.1816  -22.5637  -54.7958 C.2       19 UNK         0.5000 
    108 O         -1.1844  -21.9919  -55.2383 O.2       19 UNK        -0.5000 
    109 N         -3.0073  -23.3084  -55.5449 N.am      20 UNK        -0.5000 
    110 CA        -2.8495  -23.7216  -56.9441 C.3       20 UNK         0.1400 
    111 CB        -1.8589  -24.9038  -57.0210 C.3       20 UNK        -0.1800 
    112 C         -2.4891  -22.5600  -57.8949 C.2       20 UNK         0.5000 
    113 O         -3.3736  -21.7907  -58.2756 O.2       20 UNK        -0.5000 
    114 N         -1.1970  -22.4404  -58.2340 N.am      21 UNK        -0.5000 
    115 CA        -0.6066  -21.4152  -59.0984 C.3       21 UNK         0.1400 
    116 CB         0.8919  -21.7124  -59.2627 C.3       21 UNK        -0.1800 
    117 C         -0.8185  -19.9637  -58.6210 C.2       21 UNK         0.5000 
    118 O         -0.7504  -19.0503  -59.4451 O.2       21 UNK        -0.5000 
    119 N         -1.0970  -19.7708  -57.3245 N.am      22 UNK        -0.5000 
    120 CA        -1.5439  -18.4882  -56.7570 C.3       22 UNK         0.1400 
    121 C         -2.9554  -18.0308  -57.2393 C.2       22 UNK         0.5000 
    122 N         -3.7889  -18.8968  -57.8066 N.am      22 UNK        -0.7600 
    123 O         -3.2996  -16.8608  -57.0975 O.2       22 UNK        -0.5000 
    124 C124       -1.4986  -18.4899  -55.2102 C.3       23 UNK        -0.0398 
    125 S125        0.1598  -18.8275  -54.5158 S.3       23 UNK        -0.2404 
    126 C126        0.5494  -17.2967  -53.6012 C.3       23 UNK        -0.0205 
    127 H127        1.9257  -10.7990  -50.1482 H         1 UNK         0.0600 
    128 H128        3.1084  -12.1099  -50.1330 H         1 UNK         0.0600 
    129 H129        2.8900  -11.1010  -48.7017 H         1 UNK         0.0600 
    130 H130       -0.1283  -11.5983  -50.0492 H         1 UNK         0.3000 
    131 H131       -0.8894  -14.2089  -49.4628 H         1 UNK         0.0600 
    132 H132       -3.2277  -13.3412  -49.6079 H         1 UNK         0.0800 
    133 H133       -2.6520  -11.7023  -49.4933 H         1 UNK         0.0800 
    134 H134       -4.0592  -14.1181  -51.7313 H         1 UNK         0.0800 
    135 H135       -3.2717  -13.9846  -53.2797 H         1 UNK         0.0800 
    136 H136       -1.0235  -15.0777  -53.6606 H         1 UNK         0.1150 
    137 H137       -0.3130  -18.6320  -51.3679 H         1 UNK         0.1150 
    138 H138       -3.4053  -15.8986  -50.1973 H         1 UNK         0.1150 
    139 H139       -3.3377  -18.1325  -49.2749 H         1 UNK         0.0800 
    140 H140       -2.1737  -19.3162  -49.8195 H         1 UNK         0.0800 
    141 H141       -3.2600  -18.9618  -47.0528 H         1 UNK         0.0800 
    142 H142       -2.0605  -18.6534  -45.8327 H         1 UNK         0.0800 
    143 H143       -1.6103  -20.8025  -47.9506 H         1 UNK         0.0600 
    144 H144       -0.0266  -19.9413  -45.7745 H         1 UNK         0.3000 
    145 H145        1.8274  -23.0127  -45.3638 H         1 UNK         0.0600 
    146 H146        3.6340  -21.3158  -45.5656 H         1 UNK         0.0600 
    147 H147        2.9104  -21.6578  -47.1301 H         1 UNK         0.0600 
    148 H148        2.5047  -20.1715  -46.2868 H         1 UNK         0.0600 
    149 H149        1.8827  -20.6069  -43.8536 H         1 UNK         0.3000 
    150 H150       -0.5723  -21.5658  -41.4101 H         1 UNK         0.0600 
    151 H151        1.6027  -22.6306  -40.7628 H         1 UNK         0.0600 
    152 H152        1.3500  -21.1032  -39.9320 H         1 UNK         0.0600 
    153 H153        2.4671  -21.1910  -41.2921 H         1 UNK         0.0600 
    154 H154        1.0059  -19.2194  -41.6368 H         1 UNK         0.3000 
    155 H155       -1.2504  -17.3577  -43.7386 H         1 UNK         0.0600 
    156 H156       -0.3517  -17.1158  -40.8227 H         1 UNK         0.0600 
    157 H157       -0.8809  -15.7769  -41.8404 H         1 UNK         0.0600 
    158 H158       -2.0089  -17.0537  -41.4052 H         1 UNK         0.0600 
    159 H159        1.2960  -16.6445  -42.7285 H         1 UNK         0.3000 
    160 H160        3.2682  -18.0049  -45.4043 H         1 UNK         0.0600 
    161 H161        2.4342  -15.1552  -44.7100 H         1 UNK         0.0600 
    162 H162        2.3763  -15.8805  -46.3097 H         1 UNK         0.0600 
    163 H163        3.9290  -15.5960  -45.5324 H         1 UNK         0.0600 
    164 H164        3.7710  -16.4174  -43.0252 H         1 UNK         0.3000 
    165 H165        4.6910  -19.2297  -40.9957 H         1 UNK         0.0600 
    166 H166        6.7192  -17.8291  -40.7846 H         1 UNK         0.0600 
    167 H167        6.6809  -18.5859  -42.3690 H         1 UNK         0.0600 
    168 H168        6.2590  -16.8857  -42.2018 H         1 UNK         0.0600 
    169 H169        4.5760  -16.4407  -40.4217 H         1 UNK         0.3000 
    170 H170        1.2126  -16.3365  -39.2574 H         1 UNK         0.0600 
    171 H171        3.8370  -16.3663  -37.6820 H         1 UNK         0.0600 
    172 H172        2.2895  -15.7260  -37.1277 H         1 UNK         0.0600 
    173 H173        2.4774  -17.4489  -37.4070 H         1 UNK         0.0600 
    174 H174        3.0574  -14.3286  -38.9850 H         1 UNK         0.3000 
    175 H175        2.1608  -12.4128  -40.2383 H         1 UNK         0.0600 
    176 H176        4.4037  -11.5262  -41.0476 H         1 UNK         0.0600 
    177 H177        4.8358  -13.1672  -41.5279 H         1 UNK         0.0600 
    178 H178        4.5303  -12.7935  -39.8424 H         1 UNK         0.0600 
    179 H179        1.2410  -11.9284  -42.1789 H         1 UNK         0.3000 
    180 H180        1.0680  -11.1322  -44.1943 H         1 UNK         0.0600 
    181 H181        3.1849  -11.8880  -46.2701 H         1 UNK         0.0600 
    182 H182        3.2039  -10.4224  -45.2958 H         1 UNK         0.0600 
    183 H183        1.9060  -10.6851  -46.4499 H         1 UNK         0.0600 
    184 H184        1.1758  -13.2220  -46.1836 H         1 UNK         0.3000 
    185 H185       -0.3163  -15.5064  -45.3571 H         1 UNK         0.0600 
    186 H186       -2.3401  -15.1514  -43.9662 H         1 UNK         0.0600 
    187 H187       -2.9652  -13.9904  -45.1257 H         1 UNK         0.0600 
    188 H188       -2.7807  -15.6848  -45.5796 H         1 UNK         0.0600 
    189 H189       -0.3729  -15.0287  -47.5007 H         1 UNK         0.3000 
    190 H190       -2.2283  -21.1020  -44.4148 H         1 UNK         0.3000 
    191 H191       -4.7814  -22.2817  -44.6044 H         1 UNK         0.0600 
    192 H192       -3.8699  -21.3885  -42.4941 H         1 UNK         0.0600 
    193 H193       -4.3275  -23.0716  -42.2847 H         1 UNK         0.0600 
    194 H194       -2.6314  -22.6405  -42.4562 H         1 UNK         0.0600 
    195 H195       -1.5461  -23.8389  -44.4583 H         1 UNK         0.3000 
    196 H196       -2.4152  -26.5301  -44.6752 H         1 UNK         0.0600 
    197 H197       -0.0253  -26.9610  -45.2750 H         1 UNK         0.0600 
    198 H198       -0.1556  -25.8887  -43.8886 H         1 UNK         0.0600 
    199 H199        0.2452  -25.2333  -45.4740 H         1 UNK         0.0600 
    200 H200       -1.6128  -24.1174  -47.1789 H         1 UNK         0.3000 
    201 H201       -1.9803  -25.8899  -49.4325 H         1 UNK         0.0600 
    202 H202       -0.4353  -23.9341  -49.4623 H         1 UNK         0.0600 
    203 H203       -1.8093  -22.8408  -49.2954 H         1 UNK         0.0600 
    204 H204       -1.6365  -23.8429  -50.7344 H         1 UNK         0.0600 
    205 H205       -4.0921  -26.4984  -48.1723 H         1 UNK         0.3000 
    206 H206       -6.2844  -26.8460  -48.2406 H         1 UNK         0.0600 
    207 H207       -5.7180  -27.4755  -50.5495 H         1 UNK         0.0600 
    208 H208       -7.3261  -26.7764  -50.5224 H         1 UNK         0.0600 
    209 H209       -5.9636  -25.8271  -51.1099 H         1 UNK         0.0600 
    210 H210       -5.6978  -24.4585  -46.9544 H         1 UNK         0.3000 
    211 H211       -6.5708  -22.6406  -46.0537 H         1 UNK         0.0600 
    212 H212       -9.2714  -23.6349  -47.1026 H         1 UNK         0.0600 
    213 H213       -9.0225  -22.4526  -45.8268 H         1 UNK         0.0600 
    214 H214       -8.5132  -24.1161  -45.5856 H         1 UNK         0.0600 
    215 H215       -5.1849  -21.8592  -47.9473 H         1 UNK         0.3000 
    216 H216       -4.6218  -20.2865  -49.3441 H         1 UNK         0.0600 
    217 H217       -5.8174  -18.1239  -49.3455 H         1 UNK         0.0600 
    218 H218       -5.7288  -18.7601  -47.7108 H         1 UNK         0.0600 
    219 H219       -7.2353  -18.8615  -48.6198 H         1 UNK         0.0600 
    220 H220       -5.4888  -22.4835  -50.5831 H         1 UNK         0.3000 
    221 H221       -6.5404  -21.4136  -53.1621 H         1 UNK         0.0600 
    222 H222       -7.2621  -24.1123  -51.9009 H         1 UNK         0.0600 
    223 H223       -8.3625  -22.7585  -52.1201 H         1 UNK         0.0600 
    224 H224       -7.6974  -23.5840  -53.5225 H         1 UNK         0.0600 
    225 H225       -4.0259  -21.1625  -52.6161 H         1 UNK         0.3000 
    226 H226       -2.3608  -23.4676  -52.8866 H         1 UNK         0.0600 
    227 H227       -1.7972  -21.5201  -51.4562 H         1 UNK         0.0600 
    228 H228       -0.5436  -21.7695  -52.6591 H         1 UNK         0.0600 
    229 H229       -1.7174  -20.4745  -52.8624 H         1 UNK         0.0600 
    230 H230       -3.8118  -23.7003  -55.0623 H         1 UNK         0.3000 
    231 H231       -3.8238  -24.0888  -57.2700 H         1 UNK         0.0600 
    232 H232       -0.8810  -24.6511  -56.6094 H         1 UNK         0.0600 
    233 H233       -1.7146  -25.2328  -58.0511 H         1 UNK         0.0600 
    234 H234       -2.2358  -25.7606  -56.4623 H         1 UNK         0.0600 
    235 H235       -0.5478  -23.0943  -57.8218 H         1 UNK         0.3000 
    236 H236       -1.0827  -21.5030  -60.0769 H         1 UNK         0.0600 
    237 H237        1.0546  -22.7010  -59.6926 H         1 UNK         0.0600 
    238 H238        1.3644  -20.9889  -59.9283 H         1 UNK         0.0600 
    239 H239        1.4153  -21.6698  -58.3066 H         1 UNK         0.0600 
    240 H240       -1.1032  -20.5685  -56.6962 H         1 UNK         0.3000 
    241 H241       -0.8454  -17.7234  -57.1020 H         1 UNK         0.0600 
    242 H242       -3.5332  -19.8708  -57.9388 H         1 UNK         0.3800 
    243 H243       -4.6936  -18.5781  -58.1149 H         1 UNK         0.3800 
    244 H244       -1.8605  -17.5342  -54.8323 H         1 UNK         0.0800 
    245 H245       -2.1866  -19.2409  -54.8202 H         1 UNK         0.0800 
    246 H246        1.4840  -17.4391  -53.0574 H         1 UNK         0.0800 
    247 H247        0.7336  -16.4978  -54.3211 H         1 UNK         0.0800 
@<TRIPOS>BOND
     1    1    2 1    
     2    1  127 1    
     3    1  128 1    
     4    1  129 1    
     5    2    3 2    
     6    2    4 am   BACKBONE|DICT|INTERRES
     7    4    5 1    
     8    4  130 1    
     9    5    6 1    
    10    5   65 1    
    11    5  131 1    
    12    6    7 1    
    13    6  132 1    
    14    6  133 1    
    15    7    8 1    
    16    8    9 1    
    17    8  134 1    
    18    8  135 1    
    19    9   10 ar   
    20    9   14 ar   
    21   10   11 ar   
    22   10  136 1    
    23   11   12 ar   
    24   11  126 1    
    25   12   13 ar   
    26   12  137 1    
    27   13   14 ar   
    28   13   15 1    
    29   14  138 1    
    30   15   16 1    
    31   15  139 1    
    32   15  140 1    
    33   16   17 1    
    34   17   18 1    
    35   17  141 1    
    36   17  142 1    
    37   18   19 1    
    38   18   67 1    
    39   18  143 1    
    40   19   20 am   BACKBONE|DICT|INTERRES
    41   19  144 1    
    42   20   21 2    
    43   20   22 1    
    44   22   23 1    
    45   22   24 1    
    46   22  145 1    
    47   23  146 1    
    48   23  147 1    
    49   23  148 1    
    50   24   25 am   BACKBONE|DICT|INTERRES
    51   24  149 1    
    52   25   26 2    
    53   25   27 1    
    54   27   28 1    
    55   27   29 1    
    56   27  150 1    
    57   28  151 1    
    58   28  152 1    
    59   28  153 1    
    60   29   30 am   BACKBONE|DICT|INTERRES
    61   29  154 1    
    62   30   31 2    
    63   30   32 1    
    64   32   33 1    
    65   32   34 1    
    66   32  155 1    
    67   33  156 1    
    68   33  157 1    
    69   33  158 1    
    70   34   35 am   BACKBONE|DICT|INTERRES
    71   34  159 1    
    72   35   36 2    
    73   35   37 1    
    74   37   38 1    
    75   37   39 1    
    76   37  160 1    
    77   38  161 1    
    78   38  162 1    
    79   38  163 1    
    80   39   40 am   BACKBONE|DICT|INTERRES
    81   39  164 1    
    82   40   41 2    
    83   40   42 1    
    84   42   43 1    
    85   42   44 1    
    86   42  165 1    
    87   43  166 1    
    88   43  167 1    
    89   43  168 1    
    90   44   45 am   BACKBONE|DICT|INTERRES
    91   44  169 1    
    92   45   46 2    
    93   45   47 1    
    94   47   48 1    
    95   47   49 1    
    96   47  170 1    
    97   48  171 1    
    98   48  172 1    
    99   48  173 1    
   100   49   50 am   BACKBONE|DICT|INTERRES
   101   49  174 1    
   102   50   51 2    
   103   50   52 1    
   104   52   53 1    
   105   52   54 1    
   106   52  175 1    
   107   53  176 1    
   108   53  177 1    
   109   53  178 1    
   110   54   55 am   BACKBONE|DICT|INTERRES
   111   54  179 1    
   112   55   56 2    
   113   55   57 1    
   114   57   58 1    
   115   57   59 1    
   116   57  180 1    
   117   58  181 1    
   118   58  182 1    
   119   58  183 1    
   120   59   60 am   BACKBONE|DICT|INTERRES
   121   59  184 1    
   122   60   61 2    
   123   60   62 1    
   124   62   63 1    
   125   62   64 1    
   126   62  185 1    
   127   63  186 1    
   128   63  187 1    
   129   63  188 1    
   130   64   65 am   BACKBONE|DICT|INTERRES
   131   64  189 1    
   132   65   66 2    
   133   67   68 2    
   134   67   69 am   BACKBONE|DICT|INTERRES
   135   69   70 1    
   136   69  190 1    
   137   70   71 1    
   138   70   72 1    
   139   70  191 1    
   140   71  192 1    
   141   71  193 1    
   142   71  194 1    
   143   72   73 2    
   144   72   74 am   BACKBONE|DICT|INTERRES
   145   74   75 1    
   146   74  195 1    
   147   75   76 1    
   148   75   77 1    
   149   75  196 1    
   150   76  197 1    
   151   76  198 1    
   152   76  199 1    
   153   77   78 2    
   154   77   79 am   BACKBONE|DICT|INTERRES
   155   79   80 1    
   156   79  200 1    
   157   80   81 1    
   158   80   82 1    
   159   80  201 1    
   160   81  202 1    
   161   81  203 1    
   162   81  204 1    
   163   82   83 2    
   164   82   84 am   BACKBONE|DICT|INTERRES
   165   84   85 1    
   166   84  205 1    
   167   85   86 1    
   168   85   87 1    
   169   85  206 1    
   170   86  207 1    
   171   86  208 1    
   172   86  209 1    
   173   87   88 2    
   174   87   89 am   BACKBONE|DICT|INTERRES
   175   89   90 1    
   176   89  210 1    
   177   90   91 1    
   178   90   92 1    
   179   90  211 1    
   180   91  212 1    
   181   91  213 1    
   182   91  214 1    
   183   92   93 2    
   184   92   94 am   BACKBONE|DICT|INTERRES
   185   94   95 1    
   186   94  215 1    
   187   95   96 1    
   188   95   97 1    
   189   95  216 1    
   190   96  217 1    
   191   96  218 1    
   192   96  219 1    
   193   97   98 2    
   194   97   99 am   BACKBONE|DICT|INTERRES
   195   99  100 1    
   196   99  220 1    
   197  100  101 1    
   198  100  102 1    
   199  100  221 1    
   200  101  222 1    
   201  101  223 1    
   202  101  224 1    
   203  102  103 2    
   204  102  104 am   BACKBONE|DICT|INTERRES
   205  104  105 1    
   206  104  225 1    
   207  105  106 1    
   208  105  107 1    
   209  105  226 1    
   210  106  227 1    
   211  106  228 1    
   212  106  229 1    
   213  107  108 2    
   214  107  109 am   BACKBONE|DICT|INTERRES
   215  109  110 1    
   216  109  230 1    
   217  110  111 1    
   218  110  112 1    
   219  110  231 1    
   220  111  232 1    
   221  111  233 1    
   222  111  234 1    
   223  112  113 2    
   224  112  114 am   BACKBONE|DICT|INTERRES
   225  114  115 1    
   226  114  235 1    
   227  115  116 1    
   228  115  117 1    
   229  115  236 1    
   230  116  237 1    
   231  116  238 1    
   232  116  239 1    
   233  117  118 2    
   234  117  119 am   BACKBONE|DICT|INTERRES
   235  119  120 1    
   236  119  240 1    
   237  120  121 1    
   238  120  124 1    
   239  120  241 1    
   240  121  122 am   BACKBONE|DICT|INTERRES
   241  121  123 2    
   242  122  242 1    
   243  122  243 1    
   244  124  125 1    
   245  124  244 1    
   246  124  245 1    
   247  125  126 1    
   248  126  246 1    
   249  126  247 1    
@<TRIPOS>SUBSTRUCTURE
     1 UNK         1 GROUP             0       ****    0 ROOT    
