@<TRIPOS>MOLECULE
3R540
247   249    1
SMALL
USER_CHARGES


@<TRIPOS>ATOM
      1 CA          2.2400  -14.3081  -48.1353 C.3       0 UNK        -0.1800 
      2 C           1.1640  -14.9596  -47.2795 C.2       0 UNK         0.5000 
      3 O           1.3675  -15.1678  -46.0859 O.2       0 UNK        -0.5000 
      4 N           0.0127  -15.2768  -47.8829 N.am      1 UNK        -0.5000 
      5 CA         -1.1340  -15.9264  -47.2338 C.3       1 UNK         0.1400 
      6 C6         -2.0575  -16.6092  -48.2690 C.3       23 UNK        -0.0398 
      7 S7         -2.7149  -15.4764  -49.5460 S.3       23 UNK        -0.2404 
      8 C8         -4.4853  -15.4084  -49.1213 C.3       23 UNK        -0.0205 
      9 C9         -5.2335  -16.6254  -49.6450 C.ar      23 UNK        -0.0193 
     10 C10        -5.6942  -16.6510  -50.9658 C.ar      23 UNK        -0.1150 
     11 C11        -6.3609  -17.7734  -51.4668 C.ar      23 UNK        -0.0193 
     12 C12        -6.5656  -18.8724  -50.6248 C.ar      23 UNK        -0.1150 
     13 C13        -6.1010  -18.8666  -49.3080 C.ar      23 UNK        -0.0193 
     14 C14        -5.4516  -17.7313  -48.8182 C.ar      23 UNK        -0.1150 
     15 C15        -6.2748  -20.1005  -48.4345 C.3       23 UNK        -0.0205 
     16 S16        -5.4594  -21.5438  -49.1852 S.3       23 UNK        -0.2404 
     17 C17        -5.5901  -22.7891  -47.8640 C.3       23 UNK        -0.0398 
     18 CA         -4.2055  -23.0714  -47.2263 C.3       11 UNK         0.1400 
     19 N          -3.7624  -21.9943  -46.3329 N.am      11 UNK        -0.5000 
     20 C          -2.8737  -21.0491  -46.6570 C.2       10 UNK         0.5000 
     21 O          -2.3878  -20.9140  -47.7794 O.2       10 UNK        -0.5000 
     22 CA         -2.4096  -20.1226  -45.5198 C.3       10 UNK         0.1400 
     23 CB         -3.4950  -19.0790  -45.2174 C.3       10 UNK        -0.1800 
     24 N          -2.0119  -20.7822  -44.2670 N.am      10 UNK        -0.5000 
     25 C          -1.2927  -21.9069  -44.1080 C.2       9 UNK         0.5000 
     26 O          -1.0297  -22.7027  -45.0145 O.2       9 UNK        -0.5000 
     27 CA         -0.7893  -22.1967  -42.6830 C.3       9 UNK         0.1400 
     28 CB          0.4093  -23.1629  -42.6591 C.3       9 UNK        -0.1800 
     29 N          -0.4245  -20.9539  -42.0087 N.am      9 UNK        -0.5000 
     30 C          -0.6797  -20.6712  -40.7238 C.2       8 UNK         0.5000 
     31 O          -1.2327  -21.4550  -39.9513 O.2       8 UNK        -0.5000 
     32 CA         -0.2596  -19.2800  -40.2035 C.3       8 UNK         0.1400 
     33 CB          1.0177  -19.3882  -39.3571 C.3       8 UNK        -0.1800 
     34 N          -0.0415  -18.2938  -41.2633 N.am      8 UNK        -0.5000 
     35 C          -0.9922  -17.8179  -42.0811 C.2       7 UNK         0.5000 
     36 O          -2.1808  -18.1242  -41.9909 O.2       7 UNK        -0.5000 
     37 CA         -0.5381  -16.8807  -43.2165 C.3       7 UNK         0.1400 
     38 CB         -0.8110  -15.4201  -42.8320 C.3       7 UNK        -0.1800 
     39 N           0.8737  -17.0326  -43.5774 N.am      7 UNK        -0.5000 
     40 C           1.4309  -18.1502  -44.0710 C.2       6 UNK         0.5000 
     41 O           0.7915  -19.1777  -44.2976 O.2       6 UNK        -0.5000 
     42 CA          2.9585  -18.1586  -44.2901 C.3       6 UNK         0.1400 
     43 CB          3.3133  -18.0722  -45.7826 C.3       6 UNK        -0.1800 
     44 N           3.6703  -17.1089  -43.5558 N.am      6 UNK        -0.5000 
     45 C           3.7735  -17.0506  -42.2201 C.2       5 UNK         0.5000 
     46 O           3.3021  -17.9023  -41.4659 O.2       5 UNK        -0.5000 
     47 CA          4.4872  -15.8224  -41.6193 C.3       5 UNK         0.1400 
     48 CB          5.9623  -16.1470  -41.3391 C.3       5 UNK        -0.1800 
     49 N           4.4125  -14.6016  -42.4319 N.am      5 UNK        -0.5000 
     50 C           3.2814  -13.9832  -42.7982 C.2       4 UNK         0.5000 
     51 O           2.1585  -14.4332  -42.5644 O.2       4 UNK        -0.5000 
     52 CA          3.4483  -12.6575  -43.5667 C.3       4 UNK         0.1400 
     53 CB          3.9914  -12.9039  -44.9824 C.3       4 UNK        -0.1800 
     54 N           2.1894  -11.9179  -43.6655 N.am      4 UNK        -0.5000 
     55 C           1.6301  -11.2161  -42.6739 C.2       3 UNK         0.5000 
     56 O           2.1561  -11.0682  -41.5694 O.2       3 UNK        -0.5000 
     57 CA          0.2617  -10.5543  -42.9450 C.3       3 UNK         0.1400 
     58 CB          0.4322   -9.2177  -43.6928 C.3       3 UNK        -0.1800 
     59 N          -0.7417  -11.4095  -43.5987 N.am      3 UNK        -0.5000 
     60 C          -0.7397  -11.9130  -44.8396 C.2       2 UNK         0.5000 
     61 O           0.1736  -11.7506  -45.6545 O.2       2 UNK        -0.5000 
     62 CA         -1.9749  -12.7329  -45.2421 C.3       2 UNK         0.1400 
     63 CB         -3.0596  -11.8385  -45.8623 C.3       2 UNK        -0.1800 
     64 N          -1.5443  -13.7195  -46.2200 N.am      2 UNK        -0.5000 
     65 C          -1.9151  -15.0024  -46.2696 C.2       1 UNK         0.5000 
     66 O          -2.8182  -15.4768  -45.5805 O.2       1 UNK        -0.5000 
     67 C          -4.1308  -24.4400  -46.5161 C.2       11 UNK         0.5000 
     68 O          -4.6835  -25.4182  -47.0199 O.2       11 UNK        -0.5000 
     69 N          -3.4212  -24.5029  -45.3803 N.am      12 UNK        -0.5000 
     70 CA         -3.1198  -25.7448  -44.6671 C.3       12 UNK         0.1400 
     71 CB         -3.0185  -25.4619  -43.1611 C.3       12 UNK        -0.1800 
     72 C          -1.8213  -26.3862  -45.1877 C.2       12 UNK         0.5000 
     73 O          -1.7219  -27.6137  -45.2011 O.2       12 UNK        -0.5000 
     74 N          -0.8611  -25.5545  -45.6170 N.am      13 UNK        -0.5000 
     75 CA          0.4176  -25.9893  -46.1786 C.3       13 UNK         0.1400 
     76 CB          1.4412  -26.2164  -45.0525 C.3       13 UNK        -0.1800 
     77 C           0.9674  -25.0031  -47.2209 C.2       13 UNK         0.5000 
     78 O           1.6405  -25.4433  -48.1535 O.2       13 UNK        -0.5000 
     79 N           0.6911  -23.6986  -47.0632 N.am      14 UNK        -0.5000 
     80 CA          1.2092  -22.6507  -47.9475 C.3       14 UNK         0.1400 
     81 CB          1.1394  -21.2938  -47.2304 C.3       14 UNK        -0.1800 
     82 C           0.5009  -22.5895  -49.3143 C.2       14 UNK         0.5000 
     83 O           1.1021  -22.1029  -50.2711 O.2       14 UNK        -0.5000 
     84 N          -0.7491  -23.0730  -49.3845 N.am      15 UNK        -0.5000 
     85 CA         -1.5987  -23.1722  -50.5799 C.3       15 UNK         0.1400 
     86 CB         -1.0808  -24.2900  -51.5077 C.3       15 UNK        -0.1800 
     87 C          -1.7714  -21.8272  -51.3164 C.2       15 UNK         0.5000 
     88 O          -1.5065  -21.7394  -52.5180 O.2       15 UNK        -0.5000 
     89 N          -2.1906  -20.7980  -50.5687 N.am      16 UNK        -0.5000 
     90 CA         -2.3446  -19.4017  -50.9952 C.3       16 UNK         0.1400 
     91 CB         -3.3607  -19.2700  -52.1464 C.3       16 UNK        -0.1800 
     92 C          -0.9934  -18.7239  -51.3049 C.2       16 UNK         0.5000 
     93 O          -0.9283  -17.8394  -52.1576 O.2       16 UNK        -0.5000 
     94 N           0.0595  -19.1628  -50.5970 N.am      17 UNK        -0.5000 
     95 CA          1.4694  -18.8085  -50.7911 C.3       17 UNK         0.1400 
     96 CB          1.7301  -17.3303  -50.4400 C.3       17 UNK        -0.1800 
     97 C           1.9582  -19.2153  -52.1957 C.2       17 UNK         0.5000 
     98 O           2.4491  -18.3807  -52.9580 O.2       17 UNK        -0.5000 
     99 N           1.7840  -20.5105  -52.4953 N.am      18 UNK        -0.5000 
    100 CA         2.0822  -21.1905  -53.7564 C.3       18 UNK         0.1400 
    101 CB         3.6029  -21.2199  -54.0176 C.3       18 UNK        -0.1800 
    102 C          1.2672  -20.6290  -54.9397 C.2       18 UNK         0.5000 
    103 O          1.8295  -20.3334  -55.9962 O.2       18 UNK        -0.5000 
    104 N         -0.0514  -20.5082  -54.7415 N.am      19 UNK        -0.5000 
    105 CA        -1.0154  -20.0665  -55.7520 C.3       19 UNK         0.1400 
    106 CB        -1.4128  -18.6007  -55.5047 C.3       19 UNK        -0.1800 
    107 C         -2.2150  -21.0296  -55.8153 C.2       19 UNK         0.5000 
    108 O         -3.3419  -20.6027  -56.0730 O.2       19 UNK        -0.5000 
    109 N         -1.9353  -22.3212  -55.5779 N.am      20 UNK        -0.5000 
    110 CA        -2.8167  -23.4835  -55.7348 C.3       20 UNK         0.1400 
    111 CB        -3.0402  -23.7635  -57.2355 C.3       20 UNK        -0.1800 
    112 C         -4.1430  -23.4006  -54.9501 C.2       20 UNK         0.5000 
    113 O         -5.1590  -23.9159  -55.4199 O.2       20 UNK        -0.5000 
    114 N         -4.1236  -22.7343  -53.7854 N.am      21 UNK        -0.5000 
    115 CA        -5.2760  -22.4936  -52.9038 C.3       21 UNK         0.1400 
    116 CB        -5.6962  -23.8006  -52.2004 C.3       21 UNK        -0.1800 
    117 C         -6.4480  -21.7817  -53.6236 C.2       21 UNK         0.5000 
    118 O         -7.6044  -22.1765  -53.4693 O.2       21 UNK        -0.5000 
    119 N         -6.0975  -20.7701  -54.4293 N.am      22 UNK        -0.5000 
    120 CA        -6.9484  -20.0089  -55.3659 C.3       22 UNK         0.1400 
    121 C         -7.1582  -20.7089  -56.7439 C.2       22 UNK         0.5000 
    122 N         -6.6752  -21.9231  -56.9775 N.am      22 UNK        -0.7600 
    123 O         -7.7594  -20.1234  -57.6408 O.2       22 UNK        -0.5000 
    124 C124       -8.3144  -19.5032  -54.8003 C.3       23 UNK        -0.0398 
    125 S125       -8.3867  -18.6390  -53.1857 S.3       23 UNK        -0.2404 
    126 C126       -6.7687  -17.8295  -52.9368 C.3       23 UNK        -0.0205 
    127 H127        1.9818  -14.3280  -49.1943 H         1 UNK         0.0600 
    128 H128        3.1880  -14.8307  -48.0077 H         1 UNK         0.0600 
    129 H129        2.3771  -13.2689  -47.8364 H         1 UNK         0.0600 
    130 H130       -0.1173  -15.0565  -48.8606 H         1 UNK         0.3000 
    131 H131       -0.7308  -16.7232  -46.6044 H         1 UNK         0.0600 
    132 H132       -2.8715  -17.1316  -47.7694 H         1 UNK         0.0800 
    133 H133       -1.4883  -17.3863  -48.7760 H         1 UNK         0.0800 
    134 H134       -4.9146  -14.5044  -49.5556 H         1 UNK         0.0800 
    135 H135       -4.6072  -15.3119  -48.0411 H         1 UNK         0.0800 
    136 H136       -5.5074  -15.8041  -51.6113 H         1 UNK         0.1150 
    137 H137       -7.0491  -19.7609  -51.0055 H         1 UNK         0.1150 
    138 H138       -5.1025  -17.7132  -47.7973 H         1 UNK         0.1150 
    139 H139       -5.8598  -19.9312  -47.4399 H         1 UNK         0.0800 
    140 H140       -7.3379  -20.3073  -48.3052 H         1 UNK         0.0800 
    141 H141       -6.0058  -23.6829  -48.3318 H         1 UNK         0.0800 
    142 H142       -6.3132  -22.4769  -47.1092 H         1 UNK         0.0800 
    143 H143       -3.4847  -23.1754  -48.0383 H         1 UNK         0.0600 
    144 H144       -4.1333  -22.0109  -45.3936 H         1 UNK         0.3000 
    145 H145       -1.5289  -19.5900  -45.8830 H         1 UNK         0.0600 
    146 H146       -3.1316  -18.3074  -44.5406 H         1 UNK         0.0600 
    147 H147       -3.8197  -18.5757  -46.1264 H         1 UNK         0.0600 
    148 H148       -4.3758  -19.5326  -44.7618 H         1 UNK         0.0600 
    149 H149       -2.1843  -20.2388  -43.4322 H         1 UNK         0.3000 
    150 H150       -1.6234  -22.6656  -42.1586 H         1 UNK         0.0600 
    151 H151        0.1430  -24.1313  -43.0819 H         1 UNK         0.0600 
    152 H152        0.7519  -23.3421  -41.6400 H         1 UNK         0.0600 
    153 H153        1.2506  -22.7706  -43.2319 H         1 UNK         0.0600 
    154 H154        0.0255  -20.2552  -42.5914 H         1 UNK         0.3000 
    155 H155       -1.0651  -18.9128  -39.5644 H         1 UNK         0.0600 
    156 H156        1.8577  -19.7602  -39.9451 H         1 UNK         0.0600 
    157 H157        0.8755  -20.0719  -38.5191 H         1 UNK         0.0600 
    158 H158        1.3013  -18.4207  -38.9423 H         1 UNK         0.0600 
    159 H159        0.9156  -18.0022  -41.4159 H         1 UNK         0.3000 
    160 H160       -1.1262  -17.1221  -44.1023 H         1 UNK         0.0600 
    161 H161       -0.3370  -15.1572  -41.8857 H         1 UNK         0.0600 
    162 H162       -1.8812  -15.2394  -42.7258 H         1 UNK         0.0600 
    163 H163       -0.4346  -14.7368  -43.5924 H         1 UNK         0.0600 
    164 H164        1.4618  -16.2206  -43.4207 H         1 UNK         0.3000 
    165 H165        3.3172  -19.1222  -43.9220 H         1 UNK         0.0600 
    166 H166        4.3732  -18.2686  -45.9444 H         1 UNK         0.0600 
    167 H167        2.7559  -18.8074  -46.3638 H         1 UNK         0.0600 
    168 H168        3.0918  -17.0903  -46.1968 H         1 UNK         0.0600 
    169 H169        4.0601  -16.3548  -44.1015 H         1 UNK         0.3000 
    170 H170        4.0005  -15.6067  -40.6659 H         1 UNK         0.0600 
    171 H171        6.0556  -17.0356  -40.7132 H         1 UNK         0.0600 
    172 H172        6.5144  -16.3353  -42.2607 H         1 UNK         0.0600 
    173 H173        6.4543  -15.3289  -40.8126 H         1 UNK         0.0600 
    174 H174        5.2962  -14.1775  -42.6746 H         1 UNK         0.3000 
    175 H175        4.1690  -12.0416  -43.0249 H         1 UNK         0.0600 
    176 H176        3.3352  -13.5591  -45.5511 H         1 UNK         0.0600 
    177 H177        4.0931  -11.9700  -45.5354 H         1 UNK         0.0600 
    178 H178        4.9760  -13.3717  -44.9547 H         1 UNK         0.0600 
    179 H179        1.6624  -12.0103  -44.5293 H         1 UNK         0.3000 
    180 H180       -0.1602  -10.3191  -41.9664 H         1 UNK         0.0600 
    181 H181        0.8651   -9.3553  -44.6839 H         1 UNK         0.0600 
    182 H182        1.0920   -8.5464  -43.1419 H         1 UNK         0.0600 
    183 H183       -0.5238   -8.7077  -43.8119 H         1 UNK         0.0600 
    184 H184       -1.5333  -11.6330  -43.0115 H         1 UNK         0.3000 
    185 H185       -2.3742  -13.2289  -44.3551 H         1 UNK         0.0600 
    186 H186       -3.4012  -11.0865  -45.1502 H         1 UNK         0.0600 
    187 H187       -2.6917  -11.3142  -46.7452 H         1 UNK         0.0600 
    188 H188       -3.9291  -12.4251  -46.1598 H         1 UNK         0.0600 
    189 H189       -0.7487  -13.4285  -46.7735 H         1 UNK         0.3000 
    190 H190       -2.9243  -23.6751  -45.0813 H         1 UNK         0.3000 
    191 H191       -3.9319  -26.4600  -44.8160 H         1 UNK         0.0600 
    192 H192       -2.1782  -24.8113  -42.9277 H         1 UNK         0.0600 
    193 H193       -2.8764  -26.3879  -42.6025 H         1 UNK         0.0600 
    194 H194       -3.9265  -24.9910  -42.7842 H         1 UNK         0.0600 
    195 H195       -1.0110  -24.5546  -45.5478 H         1 UNK         0.3000 
    196 H196        0.2683  -26.9365  -46.7019 H         1 UNK         0.0600 
    197 H197        2.3833  -26.5924  -45.4534 H         1 UNK         0.0600 
    198 H198        1.0819  -26.9485  -44.3293 H         1 UNK         0.0600 
    199 H199        1.6603  -25.2928  -44.5166 H         1 UNK         0.0600 
    200 H200        0.1489  -23.3787  -46.2659 H         1 UNK         0.3000 
    201 H201        2.2627  -22.8610  -48.1448 H         1 UNK         0.0600 
    202 H202        1.7106  -21.3080  -46.3019 H         1 UNK         0.0600 
    203 H203        0.1167  -21.0197  -46.9822 H         1 UNK         0.0600 
    204 H204        1.5503  -20.4980  -47.8521 H         1 UNK         0.0600 
    205 H205       -1.1528  -23.4108  -48.5244 H         1 UNK         0.3000 
    206 H206       -2.5935  -23.4627  -50.2405 H         1 UNK         0.0600 
    207 H207       -1.7536  -24.4410  -52.3529 H         1 UNK         0.0600 
    208 H208       -1.0087  -25.2394  -50.9771 H         1 UNK         0.0600 
    209 H209       -0.0946  -24.0566  -51.9105 H         1 UNK         0.0600 
    210 H210       -2.3522  -20.9590  -49.5740 H         1 UNK         0.3000 
    211 H211       -2.7643  -18.8724  -50.1393 H         1 UNK         0.0600 
    212 H212       -3.5351  -18.2232  -52.3968 H         1 UNK         0.0600 
    213 H213       -4.3179  -19.6946  -51.8604 H         1 UNK         0.0600 
    214 H214       -3.0342  -19.7731  -53.0539 H         1 UNK         0.0600 
    215 H215       -0.1092  -19.9258  -49.9576 H         1 UNK         0.3000 
    216 H216        2.0412  -19.4114  -50.0843 H         1 UNK         0.0600 
    217 H217        2.7906  -17.0906  -50.5244 H         1 UNK         0.0600 
    218 H218        1.4334  -17.1233  -49.4134 H         1 UNK         0.0600 
    219 H219        1.1878  -16.6479  -51.0945 H         1 UNK         0.0600 
    220 H220        1.3953  -21.1073  -51.7664 H         1 UNK         0.3000 
    221 H221        1.7543  -22.2228  -53.6254 H         1 UNK         0.0600 
    222 H222        4.0047  -20.2226  -54.1985 H         1 UNK         0.0600 
    223 H223        4.1391  -21.6491  -53.1713 H         1 UNK         0.0600 
    224 H224        3.8364  -21.8291  -54.8915 H         1 UNK         0.0600 
    225 H225       -0.4488  -20.8026  -53.8520 H         1 UNK         0.3000 
    226 H226       -0.5605  -20.1168  -56.7431 H         1 UNK         0.0600 
    227 H227       -1.9380  -18.4750  -54.5605 H         1 UNK         0.0600 
    228 H228       -0.5350  -17.9548  -55.4834 H         1 UNK         0.0600 
    229 H229       -2.0676  -18.2326  -56.2953 H         1 UNK         0.0600 
    230 H230       -0.9837  -22.5378  -55.3185 H         1 UNK         0.3000 
    231 H231       -2.2767  -24.3339  -55.3164 H         1 UNK         0.0600 
    232 H232       -2.0922  -23.8487  -57.7666 H         1 UNK         0.0600 
    233 H233       -3.6198  -22.9703  -57.7095 H         1 UNK         0.0600 
    234 H234       -3.5784  -24.6998  -57.3877 H         1 UNK         0.0600 
    235 H235       -3.2421  -22.3225  -53.4973 H         1 UNK         0.3000 
    236 H236       -4.9341  -21.8127  -52.1273 H         1 UNK         0.0600 
    237 H237       -6.4775  -23.6124  -51.4630 H         1 UNK         0.0600 
    238 H238       -4.8559  -24.2501  -51.6714 H         1 UNK         0.0600 
    239 H239       -6.0823  -24.5361  -52.9065 H         1 UNK         0.0600 
    240 H240       -5.1070  -20.5991  -54.5488 H         1 UNK         0.3000 
    241 H241       -6.3597  -19.1246  -55.6104 H         1 UNK         0.0600 
    242 H242       -6.8217  -22.3393  -57.8829 H         1 UNK         0.3800 
    243 H243       -6.1868  -22.4511  -56.2630 H         1 UNK         0.3800 
    244 H244       -8.7661  -18.8203  -55.5216 H         1 UNK         0.0800 
    245 H245       -9.0108  -20.3403  -54.7328 H         1 UNK         0.0800 
    246 H246       -6.8214  -16.8246  -53.3581 H         1 UNK         0.0800 
    247 H247       -5.9747  -18.3433  -53.4717 H         1 UNK         0.0800 
@<TRIPOS>BOND
     1    1    2 1    
     2    1  127 1    
     3    1  128 1    
     4    1  129 1    
     5    2    3 2    
     6    2    4 am   BACKBONE|DICT|INTERRES
     7    4    5 1    
     8    4  130 1    
     9    5    6 1    
    10    5   65 1    
    11    5  131 1    
    12    6    7 1    
    13    6  132 1    
    14    6  133 1    
    15    7    8 1    
    16    8    9 1    
    17    8  134 1    
    18    8  135 1    
    19    9   10 ar   
    20    9   14 ar   
    21   10   11 ar   
    22   10  136 1    
    23   11   12 ar   
    24   11  126 1    
    25   12   13 ar   
    26   12  137 1    
    27   13   14 ar   
    28   13   15 1    
    29   14  138 1    
    30   15   16 1    
    31   15  139 1    
    32   15  140 1    
    33   16   17 1    
    34   17   18 1    
    35   17  141 1    
    36   17  142 1    
    37   18   19 1    
    38   18   67 1    
    39   18  143 1    
    40   19   20 am   BACKBONE|DICT|INTERRES
    41   19  144 1    
    42   20   21 2    
    43   20   22 1    
    44   22   23 1    
    45   22   24 1    
    46   22  145 1    
    47   23  146 1    
    48   23  147 1    
    49   23  148 1    
    50   24   25 am   BACKBONE|DICT|INTERRES
    51   24  149 1    
    52   25   26 2    
    53   25   27 1    
    54   27   28 1    
    55   27   29 1    
    56   27  150 1    
    57   28  151 1    
    58   28  152 1    
    59   28  153 1    
    60   29   30 am   BACKBONE|DICT|INTERRES
    61   29  154 1    
    62   30   31 2    
    63   30   32 1    
    64   32   33 1    
    65   32   34 1    
    66   32  155 1    
    67   33  156 1    
    68   33  157 1    
    69   33  158 1    
    70   34   35 am   BACKBONE|DICT|INTERRES
    71   34  159 1    
    72   35   36 2    
    73   35   37 1    
    74   37   38 1    
    75   37   39 1    
    76   37  160 1    
    77   38  161 1    
    78   38  162 1    
    79   38  163 1    
    80   39   40 am   BACKBONE|DICT|INTERRES
    81   39  164 1    
    82   40   41 2    
    83   40   42 1    
    84   42   43 1    
    85   42   44 1    
    86   42  165 1    
    87   43  166 1    
    88   43  167 1    
    89   43  168 1    
    90   44   45 am   BACKBONE|DICT|INTERRES
    91   44  169 1    
    92   45   46 2    
    93   45   47 1    
    94   47   48 1    
    95   47   49 1    
    96   47  170 1    
    97   48  171 1    
    98   48  172 1    
    99   48  173 1    
   100   49   50 am   BACKBONE|DICT|INTERRES
   101   49  174 1    
   102   50   51 2    
   103   50   52 1    
   104   52   53 1    
   105   52   54 1    
   106   52  175 1    
   107   53  176 1    
   108   53  177 1    
   109   53  178 1    
   110   54   55 am   BACKBONE|DICT|INTERRES
   111   54  179 1    
   112   55   56 2    
   113   55   57 1    
   114   57   58 1    
   115   57   59 1    
   116   57  180 1    
   117   58  181 1    
   118   58  182 1    
   119   58  183 1    
   120   59   60 am   BACKBONE|DICT|INTERRES
   121   59  184 1    
   122   60   61 2    
   123   60   62 1    
   124   62   63 1    
   125   62   64 1    
   126   62  185 1    
   127   63  186 1    
   128   63  187 1    
   129   63  188 1    
   130   64   65 am   BACKBONE|DICT|INTERRES
   131   64  189 1    
   132   65   66 2    
   133   67   68 2    
   134   67   69 am   BACKBONE|DICT|INTERRES
   135   69   70 1    
   136   69  190 1    
   137   70   71 1    
   138   70   72 1    
   139   70  191 1    
   140   71  192 1    
   141   71  193 1    
   142   71  194 1    
   143   72   73 2    
   144   72   74 am   BACKBONE|DICT|INTERRES
   145   74   75 1    
   146   74  195 1    
   147   75   76 1    
   148   75   77 1    
   149   75  196 1    
   150   76  197 1    
   151   76  198 1    
   152   76  199 1    
   153   77   78 2    
   154   77   79 am   BACKBONE|DICT|INTERRES
   155   79   80 1    
   156   79  200 1    
   157   80   81 1    
   158   80   82 1    
   159   80  201 1    
   160   81  202 1    
   161   81  203 1    
   162   81  204 1    
   163   82   83 2    
   164   82   84 am   BACKBONE|DICT|INTERRES
   165   84   85 1    
   166   84  205 1    
   167   85   86 1    
   168   85   87 1    
   169   85  206 1    
   170   86  207 1    
   171   86  208 1    
   172   86  209 1    
   173   87   88 2    
   174   87   89 am   BACKBONE|DICT|INTERRES
   175   89   90 1    
   176   89  210 1    
   177   90   91 1    
   178   90   92 1    
   179   90  211 1    
   180   91  212 1    
   181   91  213 1    
   182   91  214 1    
   183   92   93 2    
   184   92   94 am   BACKBONE|DICT|INTERRES
   185   94   95 1    
   186   94  215 1    
   187   95   96 1    
   188   95   97 1    
   189   95  216 1    
   190   96  217 1    
   191   96  218 1    
   192   96  219 1    
   193   97   98 2    
   194   97   99 am   BACKBONE|DICT|INTERRES
   195   99  100 1    
   196   99  220 1    
   197  100  101 1    
   198  100  102 1    
   199  100  221 1    
   200  101  222 1    
   201  101  223 1    
   202  101  224 1    
   203  102  103 2    
   204  102  104 am   BACKBONE|DICT|INTERRES
   205  104  105 1    
   206  104  225 1    
   207  105  106 1    
   208  105  107 1    
   209  105  226 1    
   210  106  227 1    
   211  106  228 1    
   212  106  229 1    
   213  107  108 2    
   214  107  109 am   BACKBONE|DICT|INTERRES
   215  109  110 1    
   216  109  230 1    
   217  110  111 1    
   218  110  112 1    
   219  110  231 1    
   220  111  232 1    
   221  111  233 1    
   222  111  234 1    
   223  112  113 2    
   224  112  114 am   BACKBONE|DICT|INTERRES
   225  114  115 1    
   226  114  235 1    
   227  115  116 1    
   228  115  117 1    
   229  115  236 1    
   230  116  237 1    
   231  116  238 1    
   232  116  239 1    
   233  117  118 2    
   234  117  119 am   BACKBONE|DICT|INTERRES
   235  119  120 1    
   236  119  240 1    
   237  120  121 1    
   238  120  124 1    
   239  120  241 1    
   240  121  122 am   BACKBONE|DICT|INTERRES
   241  121  123 2    
   242  122  242 1    
   243  122  243 1    
   244  124  125 1    
   245  124  244 1    
   246  124  245 1    
   247  125  126 1    
   248  126  246 1    
   249  126  247 1    
@<TRIPOS>SUBSTRUCTURE
     1 UNK         1 GROUP             0       ****    0 ROOT    
