@<TRIPOS>MOLECULE
3R540
247   249    1
SMALL
USER_CHARGES


@<TRIPOS>ATOM
      1 CA         -1.1923  -11.6689  -46.5990 C.3       0 UNK        -0.1800 
      2 C           0.0904  -11.5515  -47.4104 C.2       0 UNK         0.5000 
      3 O           0.3439  -10.5080  -48.0120 O.2       0 UNK        -0.5000 
      4 N           0.8987  -12.6189  -47.4258 N.am      1 UNK        -0.5000 
      5 CA          2.1892  -12.7055  -48.1248 C.3       1 UNK         0.1400 
      6 C6          2.7369  -14.1551  -48.1519 C.3       23 UNK        -0.0398 
      7 S7          1.5582  -15.3789  -48.8193 S.3       23 UNK        -0.2404 
      8 C8          2.4003  -15.9058  -50.3415 C.3       23 UNK        -0.0205 
      9 C9          1.8466  -17.2344  -50.8259 C.ar      23 UNK        -0.0193 
     10 C10         0.8273  -17.2769  -51.7816 C.ar      23 UNK        -0.1150 
     11 C11         0.3298  -18.5050  -52.2261 C.ar      23 UNK        -0.0193 
     12 C12         0.8451  -19.6891  -51.6914 C.ar      23 UNK        -0.1150 
     13 C13         1.8527  -19.6640  -50.7238 C.ar      23 UNK        -0.0193 
     14 C14         2.3624  -18.4274  -50.3115 C.ar      23 UNK        -0.1150 
     15 C15         2.3802  -20.9913  -50.1793 C.3       23 UNK        -0.0205 
     16 S16         3.0695  -20.9451  -48.4867 S.3       23 UNK        -0.2404 
     17 C17         1.6848  -20.3046  -47.4850 C.3       23 UNK        -0.0398 
     18 CA          0.6778  -21.4035  -47.0542 C.3       11 UNK         0.1400 
     19 N           0.2410  -21.2458  -45.6633 N.am      11 UNK        -0.5000 
     20 C          -0.5100  -22.1297  -44.9901 C.2       10 UNK         0.5000 
     21 O          -0.8741  -23.2109  -45.4523 O.2       10 UNK        -0.5000 
     22 CA         -0.9769  -21.7154  -43.5820 C.3       10 UNK         0.1400 
     23 CB          0.1192  -21.9769  -42.5386 C.3       10 UNK        -0.1800 
     24 N          -1.4019  -20.3156  -43.5199 N.am      10 UNK        -0.5000 
     25 C          -2.4495  -19.8187  -44.1940 C.2       9 UNK         0.5000 
     26 O          -3.1971  -20.5029  -44.8905 O.2       9 UNK        -0.5000 
     27 CA         -2.6796  -18.2998  -44.1203 C.3       9 UNK         0.1400 
     28 CB         -3.4307  -17.9257  -42.8343 C.3       9 UNK        -0.1800 
     29 N          -1.4391  -17.5306  -44.2137 N.am      9 UNK        -0.5000 
     30 C          -0.6134  -17.5329  -45.2706 C.2       8 UNK         0.5000 
     31 O          -0.8230  -18.1669  -46.3048 O.2       8 UNK        -0.5000 
     32 CA          0.6971  -16.7383  -45.1201 C.3       8 UNK         0.1400 
     33 CB          0.4430  -15.2312  -45.2646 C.3       8 UNK        -0.1800 
     34 N           1.3660  -17.0038  -43.8457 N.am      8 UNK        -0.5000 
     35 C           1.8039  -18.2094  -43.4539 C.2       7 UNK         0.5000 
     36 O           1.7480  -19.2204  -44.1528 O.2       7 UNK        -0.5000 
     37 CA          2.3384  -18.3147  -42.0169 C.3       7 UNK         0.1400 
     38 CB          3.7993  -17.8475  -41.9350 C.3       7 UNK        -0.1800 
     39 N           1.5138  -17.5501  -41.0811 N.am      7 UNK        -0.5000 
     40 C           0.2727  -17.9017  -40.7146 C.2       6 UNK         0.5000 
     41 O          -0.2876  -18.9280  -41.0994 O.2       6 UNK        -0.5000 
     42 CA         -0.4826  -16.9234  -39.7957 C.3       6 UNK         0.1400 
     43 CB         -0.0985  -17.1535  -38.3266 C.3       6 UNK        -0.1800 
     44 N          -0.2453  -15.5221  -40.1463 N.am      6 UNK        -0.5000 
     45 C          -0.6543  -14.9493  -41.2870 C.2       5 UNK         0.5000 
     46 O          -1.3110  -15.5352  -42.1458 O.2       5 UNK        -0.5000 
     47 CA         -0.2183  -13.4934  -41.5339 C.3       5 UNK         0.1400 
     48 CB         -1.2496  -12.5137  -40.9564 C.3       5 UNK        -0.1800 
     49 N           1.1057  -13.1724  -40.9971 N.am      5 UNK        -0.5000 
     50 C           2.2516  -13.7709  -41.3452 C.2       4 UNK         0.5000 
     51 O           2.3109  -14.7160  -42.1349 O.2       4 UNK        -0.5000 
     52 CA          3.5359  -13.1907  -40.7166 C.3       4 UNK         0.1400 
     53 CB          4.7654  -14.0839  -40.9594 C.3       4 UNK        -0.1800 
     54 N           3.8124  -11.8564  -41.2462 N.am      4 UNK        -0.5000 
     55 C           3.1641  -10.7299  -40.9168 C.2       3 UNK         0.5000 
     56 O           2.3253  -10.6676  -40.0162 O.2       3 UNK        -0.5000 
     57 CA          3.4746   -9.4731  -41.7579 C.3       3 UNK         0.1400 
     58 CB          4.4928   -8.5797  -41.0334 C.3       3 UNK        -0.1800 
     59 N           3.9743   -9.7748  -43.1051 N.am      3 UNK        -0.5000 
     60 C           3.2780  -10.4152  -44.0546 C.2       2 UNK         0.5000 
     61 O           2.1042  -10.7739  -43.9151 O.2       2 UNK        -0.5000 
     62 CA          4.0290  -10.7433  -45.3565 C.3       2 UNK         0.1400 
     63 CB          5.3224  -11.5407  -45.0836 C.3       2 UNK        -0.1800 
     64 N           3.1353  -11.5273  -46.1977 N.am      2 UNK        -0.5000 
     65 C           3.2582  -11.7779  -47.5048 C.2       1 UNK         0.5000 
     66 O           4.1677  -11.3347  -48.2074 O.2       1 UNK        -0.5000 
     67 C          -0.5248  -21.4675  -48.0178 C.2       11 UNK         0.5000 
     68 O          -0.6002  -22.3808  -48.8393 O.2       11 UNK        -0.5000 
     69 N          -1.4654  -20.5254  -47.8617 N.am      12 UNK        -0.5000 
     70 CA         -2.7116  -20.4561  -48.6230 C.3       12 UNK         0.1400 
     71 CB         -3.4607  -19.1674  -48.2554 C.3       12 UNK        -0.1800 
     72 C          -3.6055  -21.6926  -48.4165 C.2       12 UNK         0.5000 
     73 O          -4.1188  -22.2357  -49.3919 O.2       12 UNK        -0.5000 
     74 N          -3.7418  -22.1460  -47.1621 N.am      13 UNK        -0.5000 
     75 CA         -4.4847  -23.3521  -46.7913 C.3       13 UNK         0.1400 
     76 CB         -4.5864  -23.4471  -45.2618 C.3       13 UNK        -0.1800 
     77 C          -3.8781  -24.6407  -47.3766 C.2       13 UNK         0.5000 
     78 O          -4.6277  -25.5221  -47.7977 O.2       13 UNK        -0.5000 
     79 N          -2.5405  -24.7204  -47.4157 N.am      14 UNK        -0.5000 
     80 CA         -1.8014  -25.8097  -48.0531 C.3       14 UNK         0.1400 
     81 CB         -0.3213  -25.7415  -47.6464 C.3       14 UNK        -0.1800 
     82 C          -1.9570  -25.7968  -49.5846 C.2       14 UNK         0.5000 
     83 O          -2.1873  -26.8500  -50.1795 O.2       14 UNK        -0.5000 
     84 N          -1.8589  -24.6053  -50.1913 N.am      15 UNK        -0.5000 
     85 CA         -2.0348  -24.3828  -51.6272 C.3       15 UNK         0.1400 
     86 CB         -1.6332  -22.9432  -51.9767 C.3       15 UNK        -0.1800 
     87 C          -3.4603  -24.6967  -52.1177 C.2       15 UNK         0.5000 
     88 O          -3.6105  -25.2682  -53.1963 O.2       15 UNK        -0.5000 
     89 N          -4.4733  -24.3841  -51.2961 N.am      16 UNK        -0.5000 
     90 CA         -5.9012  -24.5875  -51.5665 C.3       16 UNK         0.1400 
     91 CB         -6.7251  -23.9341  -50.4456 C.3       16 UNK        -0.1800 
     92 C          -6.3361  -26.0533  -51.7803 C.2       16 UNK         0.5000 
     93 O          -7.4603  -26.2836  -52.2283 O.2       16 UNK        -0.5000 
     94 N          -5.4505  -27.0189  -51.4942 N.am      17 UNK        -0.5000 
     95 CA         -5.5984  -28.4249  -51.8770 C.3       17 UNK         0.1400 
     96 CB         -4.5178  -29.2503  -51.1630 C.3       17 UNK        -0.1800 
     97 C          -5.5284  -28.6480  -53.4053 C.2       17 UNK         0.5000 
     98 O          -6.0337  -29.6616  -53.8898 O.2       17 UNK        -0.5000 
     99 N          -4.9209  -27.7028  -54.1329 N.am      18 UNK        -0.5000 
    100 CA        -4.8574  -27.6423  -55.5879 C.3       18 UNK         0.1400 
    101 CB        -3.5438  -28.2902  -56.0722 C.3       18 UNK        -0.1800 
    102 C         -5.0391  -26.1692  -56.0011 C.2       18 UNK         0.5000 
    103 O         -5.9670  -25.5189  -55.5144 O.2       18 UNK        -0.5000 
    104 N         -4.1625  -25.6552  -56.8726 N.am      19 UNK        -0.5000 
    105 CA        -4.0610  -24.2332  -57.1920 C.3       19 UNK         0.1400 
    106 CB        -3.3937  -24.0744  -58.5681 C.3       19 UNK        -0.1800 
    107 C         -3.2321  -23.5341  -56.0910 C.2       19 UNK         0.5000 
    108 O         -2.0704  -23.9032  -55.9142 O.2       19 UNK        -0.5000 
    109 N         -3.7642  -22.5580  -55.3475 N.am      20 UNK        -0.5000 
    110 CA        -5.1193  -22.0143  -55.3569 C.3       20 UNK         0.1400 
    111 CB        -5.2446  -20.9586  -56.4738 C.3       20 UNK        -0.1800 
    112 C         -5.4105  -21.4344  -53.9616 C.2       20 UNK         0.5000 
    113 O         -4.6240  -21.6458  -53.0388 O.2       20 UNK        -0.5000 
    114 N         -6.5330  -20.7170  -53.8200 N.am      21 UNK        -0.5000 
    115 CA        -6.9608  -20.0894  -52.5640 C.3       21 UNK         0.1400 
    116 CB        -8.4117  -19.6077  -52.7175 C.3       21 UNK        -0.1800 
    117 C         -6.0543  -18.9323  -52.0908 C.2       21 UNK         0.5000 
    118 O         -6.0471  -18.6287  -50.8981 O.2       21 UNK        -0.5000 
    119 N         -5.3195  -18.3122  -53.0260 N.am      22 UNK        -0.5000 
    120 CA        -4.3071  -17.2610  -52.7947 C.3       22 UNK         0.1400 
    121 C         -4.8713  -15.8973  -52.2876 C.2       22 UNK         0.5000 
    122 N         -6.1706  -15.6424  -52.3812 N.am      22 UNK        -0.7600 
    123 O         -4.1194  -15.0376  -51.8364 O.2       22 UNK        -0.5000 
    124 C124       -3.0959  -17.7559  -51.9501 C.3       23 UNK        -0.0398 
    125 S125       -2.3065  -19.2345  -52.6733 S.3       23 UNK        -0.2404 
    126 C126       -0.7385  -18.5678  -53.3072 C.3       23 UNK        -0.0205 
    127 H127       -2.0585  -11.5019  -47.2391 H         1 UNK         0.0600 
    128 H128       -1.2026  -10.9210  -45.8060 H         1 UNK         0.0600 
    129 H129       -1.2943  -12.6520  -46.1387 H         1 UNK         0.0600 
    130 H130        0.6146  -13.4583  -46.9437 H         1 UNK         0.3000 
    131 H131        2.0311  -12.3807  -49.1554 H         1 UNK         0.0600 
    132 H132        3.6628  -14.1926  -48.7285 H         1 UNK         0.0800 
    133 H133        3.0037  -14.4815  -47.1449 H         1 UNK         0.0800 
    134 H134        3.4714  -16.0094  -50.1613 H         1 UNK         0.0800 
    135 H135        2.2859  -15.1365  -51.1067 H         1 UNK         0.0800 
    136 H136        0.4311  -16.3556  -52.1849 H         1 UNK         0.1150 
    137 H137        0.4561  -20.6364  -52.0366 H         1 UNK         0.1150 
    138 H138        3.1549  -18.3839  -49.5783 H         1 UNK         0.1150 
    139 H139        1.5926  -21.7450  -50.2084 H         1 UNK         0.0800 
    140 H140        3.1605  -21.3458  -50.8535 H         1 UNK         0.0800 
    141 H141        1.1989  -19.4653  -47.9855 H         1 UNK         0.0800 
    142 H142        2.1543  -19.8644  -46.6061 H         1 UNK         0.0800 
    143 H143        1.1781  -22.3734  -47.0995 H         1 UNK         0.0600 
    144 H144        0.5333  -20.3974  -45.1877 H         1 UNK         0.3000 
    145 H145       -1.8387  -22.3345  -43.3250 H         1 UNK         0.0600 
    146 H146        1.0072  -21.3728  -42.7233 H         1 UNK         0.0600 
    147 H147       -0.2340  -21.7526  -41.5320 H         1 UNK         0.0600 
    148 H148        0.4262  -23.0234  -42.5502 H         1 UNK         0.0600 
    149 H149       -0.8618  -19.6986  -42.9228 H         1 UNK         0.3000 
    150 H150       -3.3049  -18.0191  -44.9700 H         1 UNK         0.0600 
    151 H151       -4.3640  -18.4838  -42.7499 H         1 UNK         0.0600 
    152 H152       -3.6840  -16.8656  -42.8208 H         1 UNK         0.0600 
    153 H153       -2.8377  -18.1393  -41.9447 H         1 UNK         0.0600 
    154 H154       -1.2166  -16.9383  -43.4178 H         1 UNK         0.3000 
    155 H155        1.3701  -17.0499  -45.9219 H         1 UNK         0.0600 
    156 H156        1.3746  -14.6674  -45.2160 H         1 UNK         0.0600 
    157 H157       -0.0341  -15.0164  -46.2205 H         1 UNK         0.0600 
    158 H158       -0.2163  -14.8546  -44.4840 H         1 UNK         0.0600 
    159 H159        1.4909  -16.2176  -43.2160 H         1 UNK         0.3000 
    160 H160        2.3043  -19.3655  -41.7216 H         1 UNK         0.0600 
    161 H161        4.4377  -18.4642  -42.5688 H         1 UNK         0.0600 
    162 H162        4.1824  -17.9220  -40.9172 H         1 UNK         0.0600 
    163 H163        3.9164  -16.8153  -42.2643 H         1 UNK         0.0600 
    164 H164        1.8775  -16.6573  -40.7811 H         1 UNK         0.3000 
    165 H165       -1.5507  -17.1237  -39.9040 H         1 UNK         0.0600 
    166 H166       -0.6856  -16.5197  -37.6618 H         1 UNK         0.0600 
    167 H167       -0.2821  -18.1881  -38.0333 H         1 UNK         0.0600 
    168 H168        0.9565  -16.9434  -38.1466 H         1 UNK         0.0600 
    169 H169        0.2896  -14.9679  -39.4941 H         1 UNK         0.3000 
    170 H170       -0.1757  -13.3414  -42.6139 H         1 UNK         0.0600 
    171 H171       -2.2443  -12.7114  -41.3582 H         1 UNK         0.0600 
    172 H172       -1.3121  -12.5887  -39.8701 H         1 UNK         0.0600 
    173 H173       -0.9973  -11.4833  -41.2081 H         1 UNK         0.0600 
    174 H174        1.1676  -12.3632  -40.3891 H         1 UNK         0.3000 
    175 H175        3.3789  -13.1214  -39.6382 H         1 UNK         0.0600 
    176 H176        4.9817  -14.1961  -42.0227 H         1 UNK         0.0600 
    177 H177        5.6528  -13.6717  -40.4789 H         1 UNK         0.0600 
    178 H178        4.6093  -15.0815  -40.5473 H         1 UNK         0.0600 
    179 H179        4.4691  -11.8106  -42.0104 H         1 UNK         0.3000 
    180 H180        2.5424   -8.9144  -41.8638 H         1 UNK         0.0600 
    181 H181        5.4558   -9.0787  -40.9177 H         1 UNK         0.0600 
    182 H182        4.1393   -8.3134  -40.0363 H         1 UNK         0.0600 
    183 H183        4.6587   -7.6490  -41.5764 H         1 UNK         0.0600 
    184 H184        4.9277   -9.5031  -43.2978 H         1 UNK         0.3000 
    185 H185        4.2668   -9.8049  -45.8610 H         1 UNK         0.0600 
    186 H186        5.8333  -11.8014  -46.0105 H         1 UNK         0.0600 
    187 H187        6.0307  -10.9651  -44.4874 H         1 UNK         0.0600 
    188 H188        5.1150  -12.4681  -44.5479 H         1 UNK         0.0600 
    189 H189        2.3130  -11.8581  -45.7073 H         1 UNK         0.3000 
    190 H190       -1.3101  -19.7877  -47.1790 H         1 UNK         0.3000 
    191 H191       -2.4500  -20.4074  -49.6821 H         1 UNK         0.0600 
    192 H192       -3.7230  -19.1402  -47.1981 H         1 UNK         0.0600 
    193 H193       -4.3866  -19.0802  -48.8239 H         1 UNK         0.0600 
    194 H194       -2.8578  -18.2855  -48.4726 H         1 UNK         0.0600 
    195 H195       -3.3332  -21.6119  -46.3990 H         1 UNK         0.3000 
    196 H196       -5.4954  -23.2529  -47.1924 H         1 UNK         0.0600 
    197 H197       -3.6021  -23.5083  -44.7968 H         1 UNK         0.0600 
    198 H198       -5.1485  -24.3320  -44.9611 H         1 UNK         0.0600 
    199 H199       -5.0993  -22.5795  -44.8464 H         1 UNK         0.0600 
    200 H200       -1.9907  -23.9770  -46.9977 H         1 UNK         0.3000 
    201 H201       -2.2074  -26.7544  -47.6854 H         1 UNK         0.0600 
    202 H202       -0.2069  -25.8217  -46.5653 H         1 UNK         0.0600 
    203 H203        0.1440  -24.8075  -47.9615 H         1 UNK         0.0600 
    204 H204        0.2445  -26.5585  -48.0957 H         1 UNK         0.0600 
    205 H205       -1.6216  -23.7894  -49.6325 H         1 UNK         0.3000 
    206 H206       -1.3533  -25.0564  -52.1506 H         1 UNK         0.0600 
    207 H207       -0.6008  -22.7441  -51.6912 H         1 UNK         0.0600 
    208 H208       -1.7175  -22.7623  -53.0486 H         1 UNK         0.0600 
    209 H209       -2.2678  -22.2149  -51.4709 H         1 UNK         0.0600 
    210 H210       -4.2541  -23.8418  -50.4648 H         1 UNK         0.3000 
    211 H211       -6.1258  -24.0637  -52.4972 H         1 UNK         0.0600 
    212 H212       -6.5027  -24.3779  -49.4751 H         1 UNK         0.0600 
    213 H213       -7.7952  -24.0480  -50.6230 H         1 UNK         0.0600 
    214 H214       -6.5234  -22.8652  -50.3811 H         1 UNK         0.0600 
    215 H215       -4.5527  -26.7455  -51.1174 H         1 UNK         0.3000 
    216 H216       -6.5765  -28.7699  -51.5358 H         1 UNK         0.0600 
    217 H217       -4.6304  -30.3131  -51.3804 H         1 UNK         0.0600 
    218 H218       -4.5786  -29.1307  -50.0810 H         1 UNK         0.0600 
    219 H219       -3.5157  -28.9552  -51.4770 H         1 UNK         0.0600 
    220 H220       -4.5598  -26.8759  -53.6616 H         1 UNK         0.3000 
    221 H221       -5.6979  -28.1908  -56.0177 H         1 UNK         0.0600 
    222 H222       -2.6686  -27.7596  -55.6944 H         1 UNK         0.0600 
    223 H223       -3.4727  -29.3241  -55.7336 H         1 UNK         0.0600 
    224 H224       -3.4867  -28.3091  -57.1611 H         1 UNK         0.0600 
    225 H225       -3.4018  -26.2377  -57.1906 H         1 UNK         0.3000 
    226 H226       -5.0626  -23.8139  -57.2746 H         1 UNK         0.0600 
    227 H227       -3.9792  -24.5617  -59.3480 H         1 UNK         0.0600 
    228 H228       -3.3065  -23.0210  -58.8371 H         1 UNK         0.0600 
    229 H229       -2.3905  -24.5022  -58.5867 H         1 UNK         0.0600 
    230 H230       -3.2206  -22.1958  -54.5749 H         1 UNK         0.3000 
    231 H231       -5.8456  -22.8128  -55.5090 H         1 UNK         0.0600 
    232 H232       -6.2653  -20.5853  -56.5590 H         1 UNK         0.0600 
    233 H233       -4.9771  -21.3682  -57.4475 H         1 UNK         0.0600 
    234 H234       -4.5938  -20.1032  -56.2871 H         1 UNK         0.0600 
    235 H235       -7.1399  -20.5877  -54.6164 H         1 UNK         0.3000 
    236 H236       -6.9379  -20.8532  -51.7840 H         1 UNK         0.0600 
    237 H237       -8.7746  -19.1583  -51.7921 H         1 UNK         0.0600 
    238 H238       -9.0791  -20.4358  -52.9571 H         1 UNK         0.0600 
    239 H239       -8.5065  -18.8595  -53.5053 H         1 UNK         0.0600 
    240 H240       -5.4081  -18.6296  -53.9792 H         1 UNK         0.3000 
    241 H241       -3.9178  -17.0268  -53.7860 H         1 UNK         0.0600 
    242 H242       -6.5270  -14.7547  -52.0633 H         1 UNK         0.3800 
    243 H243       -6.8017  -16.3331  -52.7540 H         1 UNK         0.3800 
    244 H244       -3.4135  -17.9984  -50.9364 H         1 UNK         0.0800 
    245 H245       -2.3447  -16.9714  -51.8470 H         1 UNK         0.0800 
    246 H246       -0.9058  -17.5893  -53.7598 H         1 UNK         0.0800 
    247 H247       -0.3854  -19.2171  -54.1095 H         1 UNK         0.0800 
@<TRIPOS>BOND
     1    1    2 1    
     2    1  127 1    
     3    1  128 1    
     4    1  129 1    
     5    2    3 2    
     6    2    4 am   BACKBONE|DICT|INTERRES
     7    4    5 1    
     8    4  130 1    
     9    5    6 1    
    10    5   65 1    
    11    5  131 1    
    12    6    7 1    
    13    6  132 1    
    14    6  133 1    
    15    7    8 1    
    16    8    9 1    
    17    8  134 1    
    18    8  135 1    
    19    9   10 ar   
    20    9   14 ar   
    21   10   11 ar   
    22   10  136 1    
    23   11   12 ar   
    24   11  126 1    
    25   12   13 ar   
    26   12  137 1    
    27   13   14 ar   
    28   13   15 1    
    29   14  138 1    
    30   15   16 1    
    31   15  139 1    
    32   15  140 1    
    33   16   17 1    
    34   17   18 1    
    35   17  141 1    
    36   17  142 1    
    37   18   19 1    
    38   18   67 1    
    39   18  143 1    
    40   19   20 am   BACKBONE|DICT|INTERRES
    41   19  144 1    
    42   20   21 2    
    43   20   22 1    
    44   22   23 1    
    45   22   24 1    
    46   22  145 1    
    47   23  146 1    
    48   23  147 1    
    49   23  148 1    
    50   24   25 am   BACKBONE|DICT|INTERRES
    51   24  149 1    
    52   25   26 2    
    53   25   27 1    
    54   27   28 1    
    55   27   29 1    
    56   27  150 1    
    57   28  151 1    
    58   28  152 1    
    59   28  153 1    
    60   29   30 am   BACKBONE|DICT|INTERRES
    61   29  154 1    
    62   30   31 2    
    63   30   32 1    
    64   32   33 1    
    65   32   34 1    
    66   32  155 1    
    67   33  156 1    
    68   33  157 1    
    69   33  158 1    
    70   34   35 am   BACKBONE|DICT|INTERRES
    71   34  159 1    
    72   35   36 2    
    73   35   37 1    
    74   37   38 1    
    75   37   39 1    
    76   37  160 1    
    77   38  161 1    
    78   38  162 1    
    79   38  163 1    
    80   39   40 am   BACKBONE|DICT|INTERRES
    81   39  164 1    
    82   40   41 2    
    83   40   42 1    
    84   42   43 1    
    85   42   44 1    
    86   42  165 1    
    87   43  166 1    
    88   43  167 1    
    89   43  168 1    
    90   44   45 am   BACKBONE|DICT|INTERRES
    91   44  169 1    
    92   45   46 2    
    93   45   47 1    
    94   47   48 1    
    95   47   49 1    
    96   47  170 1    
    97   48  171 1    
    98   48  172 1    
    99   48  173 1    
   100   49   50 am   BACKBONE|DICT|INTERRES
   101   49  174 1    
   102   50   51 2    
   103   50   52 1    
   104   52   53 1    
   105   52   54 1    
   106   52  175 1    
   107   53  176 1    
   108   53  177 1    
   109   53  178 1    
   110   54   55 am   BACKBONE|DICT|INTERRES
   111   54  179 1    
   112   55   56 2    
   113   55   57 1    
   114   57   58 1    
   115   57   59 1    
   116   57  180 1    
   117   58  181 1    
   118   58  182 1    
   119   58  183 1    
   120   59   60 am   BACKBONE|DICT|INTERRES
   121   59  184 1    
   122   60   61 2    
   123   60   62 1    
   124   62   63 1    
   125   62   64 1    
   126   62  185 1    
   127   63  186 1    
   128   63  187 1    
   129   63  188 1    
   130   64   65 am   BACKBONE|DICT|INTERRES
   131   64  189 1    
   132   65   66 2    
   133   67   68 2    
   134   67   69 am   BACKBONE|DICT|INTERRES
   135   69   70 1    
   136   69  190 1    
   137   70   71 1    
   138   70   72 1    
   139   70  191 1    
   140   71  192 1    
   141   71  193 1    
   142   71  194 1    
   143   72   73 2    
   144   72   74 am   BACKBONE|DICT|INTERRES
   145   74   75 1    
   146   74  195 1    
   147   75   76 1    
   148   75   77 1    
   149   75  196 1    
   150   76  197 1    
   151   76  198 1    
   152   76  199 1    
   153   77   78 2    
   154   77   79 am   BACKBONE|DICT|INTERRES
   155   79   80 1    
   156   79  200 1    
   157   80   81 1    
   158   80   82 1    
   159   80  201 1    
   160   81  202 1    
   161   81  203 1    
   162   81  204 1    
   163   82   83 2    
   164   82   84 am   BACKBONE|DICT|INTERRES
   165   84   85 1    
   166   84  205 1    
   167   85   86 1    
   168   85   87 1    
   169   85  206 1    
   170   86  207 1    
   171   86  208 1    
   172   86  209 1    
   173   87   88 2    
   174   87   89 am   BACKBONE|DICT|INTERRES
   175   89   90 1    
   176   89  210 1    
   177   90   91 1    
   178   90   92 1    
   179   90  211 1    
   180   91  212 1    
   181   91  213 1    
   182   91  214 1    
   183   92   93 2    
   184   92   94 am   BACKBONE|DICT|INTERRES
   185   94   95 1    
   186   94  215 1    
   187   95   96 1    
   188   95   97 1    
   189   95  216 1    
   190   96  217 1    
   191   96  218 1    
   192   96  219 1    
   193   97   98 2    
   194   97   99 am   BACKBONE|DICT|INTERRES
   195   99  100 1    
   196   99  220 1    
   197  100  101 1    
   198  100  102 1    
   199  100  221 1    
   200  101  222 1    
   201  101  223 1    
   202  101  224 1    
   203  102  103 2    
   204  102  104 am   BACKBONE|DICT|INTERRES
   205  104  105 1    
   206  104  225 1    
   207  105  106 1    
   208  105  107 1    
   209  105  226 1    
   210  106  227 1    
   211  106  228 1    
   212  106  229 1    
   213  107  108 2    
   214  107  109 am   BACKBONE|DICT|INTERRES
   215  109  110 1    
   216  109  230 1    
   217  110  111 1    
   218  110  112 1    
   219  110  231 1    
   220  111  232 1    
   221  111  233 1    
   222  111  234 1    
   223  112  113 2    
   224  112  114 am   BACKBONE|DICT|INTERRES
   225  114  115 1    
   226  114  235 1    
   227  115  116 1    
   228  115  117 1    
   229  115  236 1    
   230  116  237 1    
   231  116  238 1    
   232  116  239 1    
   233  117  118 2    
   234  117  119 am   BACKBONE|DICT|INTERRES
   235  119  120 1    
   236  119  240 1    
   237  120  121 1    
   238  120  124 1    
   239  120  241 1    
   240  121  122 am   BACKBONE|DICT|INTERRES
   241  121  123 2    
   242  122  242 1    
   243  122  243 1    
   244  124  125 1    
   245  124  244 1    
   246  124  245 1    
   247  125  126 1    
   248  126  246 1    
   249  126  247 1    
@<TRIPOS>SUBSTRUCTURE
     1 UNK         1 GROUP             0       ****    0 ROOT    
