@<TRIPOS>MOLECULE
3R540
247   249    1
SMALL
USER_CHARGES


@<TRIPOS>ATOM
      1 CA          4.6752  -22.0462  -46.5105 C.3       0 UNK        -0.1800 
      2 C           3.5669  -21.1174  -46.9783 C.2       0 UNK         0.5000 
      3 O           2.4682  -21.1317  -46.4221 O.2       0 UNK        -0.5000 
      4 N           3.8377  -20.3242  -48.0225 N.am      1 UNK        -0.5000 
      5 CA          2.9131  -19.3035  -48.5319 C.3       1 UNK         0.1400 
      6 C6          3.2882  -18.8316  -49.9635 C.3       23 UNK        -0.0398 
      7 S7          1.8218  -18.6529  -51.0297 S.3       23 UNK        -0.2404 
      8 C8          1.4435  -16.8813  -50.8701 C.3       23 UNK        -0.0205 
      9 C9         -0.0512  -16.6343  -51.0028 C.ar      23 UNK        -0.0193 
     10 C10        -0.6223  -16.3513  -52.2487 C.ar      23 UNK        -0.1150 
     11 C11        -1.9970  -16.1147  -52.3607 C.ar      23 UNK        -0.0193 
     12 C12        -2.7997  -16.1738  -51.2190 C.ar      23 UNK        -0.1150 
     13 C13        -2.2410  -16.4613  -49.9715 C.ar      23 UNK        -0.0193 
     14 C14        -0.8659  -16.6847  -49.8679 C.ar      23 UNK        -0.1150 
     15 C15        -3.1228  -16.5210  -48.7371 C.3       23 UNK        -0.0205 
     16 S16        -3.6344  -18.2308  -48.3855 S.3       23 UNK        -0.2404 
     17 C17        -2.8976  -18.5277  -46.7464 C.3       23 UNK        -0.0398 
     18 CA         -1.5011  -19.2116  -46.8174 C.3       11 UNK         0.1400 
     19 N          -0.5696  -18.6336  -45.8421 N.am      11 UNK        -0.5000 
     20 C          -0.6996  -18.6689  -44.5062 C.2       10 UNK         0.5000 
     21 O          -1.5975  -19.2658  -43.9136 O.2       10 UNK        -0.5000 
     22 CA          0.3554  -17.8948  -43.7138 C.3       10 UNK         0.1400 
     23 CB          1.6999  -18.6325  -43.7809 C.3       10 UNK        -0.1800 
     24 N           0.3987  -16.5295  -44.2280 N.am      10 UNK        -0.5000 
     25 C           1.1609  -15.5010  -43.8448 C.2       9 UNK         0.5000 
     26 O           2.1885  -15.5986  -43.1753 O.2       9 UNK        -0.5000 
     27 CA          0.6845  -14.1009  -44.2795 C.3       9 UNK         0.1400 
     28 CB          1.0887  -13.7964  -45.7358 C.3       9 UNK        -0.1800 
     29 N          -0.7507  -13.8800  -44.0349 N.am      9 UNK        -0.5000 
     30 C          -1.7989  -14.4491  -44.6488 C.2       8 UNK         0.5000 
     31 O          -1.6934  -15.1938  -45.6240 O.2       8 UNK        -0.5000 
     32 CA         -3.1818  -14.2013  -44.0092 C.3       8 UNK         0.1400 
     33 CB         -4.2839  -15.0932  -44.6203 C.3       8 UNK        -0.1800 
     34 N          -3.1798  -14.3365  -42.5437 N.am      8 UNK        -0.5000 
     35 C          -2.7738  -15.3965  -41.8257 C.2       7 UNK         0.5000 
     36 O          -2.2822  -16.4173  -42.3070 O.2       7 UNK        -0.5000 
     37 CA         -3.0072  -15.3221  -40.3080 C.3       7 UNK         0.1400 
     38 CB         -4.2696  -16.1088  -39.9223 C.3       7 UNK        -0.1800 
     39 N          -1.8701  -15.8562  -39.5587 N.am      7 UNK        -0.5000 
     40 C          -0.7492  -15.1709  -39.3022 C.2       6 UNK         0.5000 
     41 O          -0.5379  -14.0296  -39.7151 O.2       6 UNK        -0.5000 
     42 CA          0.2944  -15.8576  -38.4010 C.3       6 UNK         0.1400 
     43 CB         -0.0599  -15.6509  -36.9197 C.3       6 UNK        -0.1800 
     44 N           0.4417  -17.2920  -38.6634 N.am      6 UNK        -0.5000 
     45 C           1.1527  -17.7833  -39.6845 C.2       5 UNK         0.5000 
     46 O           1.7079  -17.0765  -40.5278 O.2       5 UNK        -0.5000 
     47 CA          1.2984  -19.3112  -39.7675 C.3       5 UNK         0.1400 
     48 CB          0.0061  -19.9868  -40.2607 C.3       5 UNK        -0.1800 
     49 N           2.3969  -19.5992  -40.6822 N.am      5 UNK        -0.5000 
     50 C           3.1605  -20.6954  -40.7097 C.2       4 UNK         0.5000 
     51 O           2.9797  -21.6671  -39.9751 O.2       4 UNK        -0.5000 
     52 CA          4.3310  -20.7151  -41.7197 C.3       4 UNK         0.1400 
     53 CB          4.0356  -21.6743  -42.8841 C.3       4 UNK        -0.1800 
     54 N           4.6820  -19.3965  -42.2638 N.am      4 UNK        -0.5000 
     55 C           5.2915  -18.4210  -41.5768 C.2       3 UNK         0.5000 
     56 O           5.6495  -18.5530  -40.4057 O.2       3 UNK        -0.5000 
     57 CA          5.5194  -17.0606  -42.2713 C.3       3 UNK         0.1400 
     58 CB          7.0217  -16.7752  -42.4683 C.3       3 UNK        -0.1800 
     59 N           4.7653  -16.8299  -43.5130 N.am      3 UNK        -0.5000 
     60 C           4.9487  -17.3668  -44.7261 C.2       2 UNK         0.5000 
     61 O           5.7583  -18.2630  -44.9740 O.2       2 UNK        -0.5000 
     62 CA          4.0720  -16.7981  -45.8539 C.3       2 UNK         0.1400 
     63 CB          4.6817  -15.5140  -46.4369 C.3       2 UNK        -0.1800 
     64 N           3.9412  -17.7920  -46.9088 N.am      2 UNK        -0.5000 
     65 C           2.8104  -18.1196  -47.5471 C.2       1 UNK         0.5000 
     66 O           1.7224  -17.5755  -47.3513 O.2       1 UNK        -0.5000 
     67 C          -1.5871  -20.7601  -46.7563 C.2       11 UNK         0.5000 
     68 O          -2.5348  -21.3408  -47.2918 O.2       11 UNK        -0.5000 
     69 N          -0.6091  -21.4088  -46.1047 N.am      12 UNK        -0.5000 
     70 CA         -0.6164  -22.8405  -45.8095 C.3       12 UNK         0.1400 
     71 CB          0.3384  -23.1404  -44.6421 C.3       12 UNK        -0.1800 
     72 C          -0.2746  -23.6771  -47.0489 C.2       12 UNK         0.5000 
     73 O          -1.0313  -24.5843  -47.3947 O.2       12 UNK        -0.5000 
     74 N           0.8208  -23.3186  -47.7350 N.am      13 UNK        -0.5000 
     75 CA          1.2356  -23.9492  -48.9960 C.3       13 UNK         0.1400 
     76 CB          2.6718  -23.5337  -49.3428 C.3       13 UNK        -0.1800 
     77 C           0.2888  -23.6182  -50.1649 C.2       13 UNK         0.5000 
     78 O           0.1757  -24.4057  -51.1040 O.2       13 UNK        -0.5000 
     79 N          -0.3911  -22.4685  -50.0664 N.am      14 UNK        -0.5000 
     80 CA         -1.4264  -22.0228  -50.9951 C.3       14 UNK         0.1400 
     81 CB         -1.6013  -20.5068  -50.8329 C.3       14 UNK        -0.1800 
     82 C          -2.7749  -22.7374  -50.7876 C.2       14 UNK         0.5000 
     83 O          -3.6421  -22.6261  -51.6557 O.2       14 UNK        -0.5000 
     84 N          -2.9324  -23.4266  -49.6460 N.am      15 UNK        -0.5000 
     85 CA         -4.1238  -24.1357  -49.1731 C.3       15 UNK         0.1400 
     86 CB         -4.3879  -25.3867  -50.0326 C.3       15 UNK        -0.1800 
     87 C          -5.3460  -23.2043  -49.0832 C.2       15 UNK         0.5000 
     88 O          -6.3814  -23.4812  -49.6899 O.2       15 UNK        -0.5000 
     89 N          -5.1748  -22.0766  -48.3769 N.am      16 UNK        -0.5000 
     90 CA         -6.1475  -20.9825  -48.2510 C.3       16 UNK         0.1400 
     91 CB         -7.3990  -21.4372  -47.4705 C.3       16 UNK        -0.1800 
     92 C          -6.4814  -20.3358  -49.6153 C.2       16 UNK         0.5000 
     93 O          -7.6282  -19.9627  -49.8658 O.2       16 UNK        -0.5000 
     94 N          -5.4525  -20.2445  -50.4714 N.am      17 UNK        -0.5000 
     95 CA         -5.4306  -19.6930  -51.8299 C.3       17 UNK         0.1400 
     96 CB         -5.9462  -18.2418  -51.8450 C.3       17 UNK        -0.1800 
     97 C          -6.1193  -20.5753  -52.8917 C.2       17 UNK         0.5000 
     98 O          -6.1895  -20.1652  -54.0529 O.2       17 UNK        -0.5000 
     99 N          -6.5940  -21.7682  -52.5043 N.am      18 UNK        -0.5000 
    100 CA        -7.3025  -22.6997  -53.3795 C.3       18 UNK         0.1400 
    101 CB        -8.1843  -23.6306  -52.5345 C.3       18 UNK        -0.1800 
    102 C         -6.3542  -23.5193  -54.2698 C.2       18 UNK         0.5000 
    103 O         -6.6598  -23.7144  -55.4462 O.2       18 UNK        -0.5000 
    104 N         -5.2207  -23.9736  -53.7144 N.am      19 UNK        -0.5000 
    105 CA        -4.2139  -24.7509  -54.4464 C.3       19 UNK         0.1400 
    106 CB        -3.3851  -25.6071  -53.4774 C.3       19 UNK        -0.1800 
    107 C         -3.3018  -23.8468  -55.2886 C.2       19 UNK         0.5000 
    108 O         -2.8746  -24.2513  -56.3703 O.2       19 UNK        -0.5000 
    109 N         -3.0536  -22.6251  -54.7964 N.am      20 UNK        -0.5000 
    110 CA        -2.3665  -21.5655  -55.5377 C.3       20 UNK         0.1400 
    111 CB        -1.8814  -20.4969  -54.5501 C.3       20 UNK        -0.1800 
    112 C         -3.2436  -20.9393  -56.6427 C.2       20 UNK         0.5000 
    113 O         -2.7002  -20.3215  -57.5589 O.2       20 UNK        -0.5000 
    114 N         -4.5698  -21.1255  -56.5400 N.am      21 UNK        -0.5000 
    115 CA        -5.6203  -20.6505  -57.4450 C.3       21 UNK         0.1400 
    116 CB        -5.5291  -21.3671  -58.8081 C.3       21 UNK        -0.1800 
    117 C         -5.6362  -19.1135  -57.5597 C.2       21 UNK         0.5000 
    118 O         -5.6453  -18.5678  -58.6654 O.2       21 UNK        -0.5000 
    119 N         -5.6150  -18.4498  -56.4000 N.am      22 UNK        -0.5000 
    120 CA        -5.5084  -16.9892  -56.2599 C.3       22 UNK         0.1400 
    121 C         -6.5285  -16.3740  -55.2597 C.2       22 UNK         0.5000 
    122 N         -7.4863  -17.1327  -54.7394 N.am      22 UNK        -0.7600 
    123 O         -6.4751  -15.1806  -54.9747 O.2       22 UNK        -0.5000 
    124 C124       -4.0409  -16.5435  -56.0171 C.3       23 UNK        -0.0398 
    125 S125       -3.2830  -17.2617  -54.5172 S.3       23 UNK        -0.2404 
    126 C126       -2.6221  -15.7772  -53.7054 C.3       23 UNK        -0.0205 
    127 H127        5.3444  -21.5162  -45.8333 H         1 UNK         0.0600 
    128 H128        4.2579  -22.9046  -45.9837 H         1 UNK         0.0600 
    129 H129        5.2599  -22.4162  -47.3528 H         1 UNK         0.0600 
    130 H130        4.7468  -20.3700  -48.4608 H         1 UNK         0.3000 
    131 H131        1.9254  -19.7698  -48.5677 H         1 UNK         0.0600 
    132 H132        3.8761  -17.9114  -49.9656 H         1 UNK         0.0800 
    133 H133        3.9193  -19.5759  -50.4511 H         1 UNK         0.0800 
    134 H134        1.9926  -16.3243  -51.6306 H         1 UNK         0.0800 
    135 H135        1.7875  -16.5049  -49.9060 H         1 UNK         0.0800 
    136 H136        0.0031  -16.3128  -53.1295 H         1 UNK         0.1150 
    137 H137       -3.8617  -15.9934  -51.3040 H         1 UNK         0.1150 
    138 H138       -0.4292  -16.9013  -48.9029 H         1 UNK         0.1150 
    139 H139       -2.5904  -16.0846  -47.8929 H         1 UNK         0.0800 
    140 H140       -4.0149  -15.9093  -48.8788 H         1 UNK         0.0800 
    141 H141       -2.8362  -17.5704  -46.2287 H         1 UNK         0.0800 
    142 H142       -3.5975  -19.1139  -46.1482 H         1 UNK         0.0800 
    143 H143       -1.0521  -18.9858  -47.7853 H         1 UNK         0.0600 
    144 H144        0.2215  -18.1328  -46.2406 H         1 UNK         0.3000 
    145 H145        0.0317  -17.8384  -42.6742 H         1 UNK         0.0600 
    146 H146        2.4332  -18.1573  -43.1374 H         1 UNK         0.0600 
    147 H147        1.5839  -19.6594  -43.4348 H         1 UNK         0.0600 
    148 H148        2.0977  -18.6781  -44.7919 H         1 UNK         0.0600 
    149 H149       -0.4008  -16.2841  -44.8088 H         1 UNK         0.3000 
    150 H150        1.2017  -13.3816  -43.6424 H         1 UNK         0.0600 
    151 H151        2.1737  -13.8042  -45.8423 H         1 UNK         0.0600 
    152 H152        0.7384  -12.8122  -46.0461 H         1 UNK         0.0600 
    153 H153        0.6936  -14.5318  -46.4374 H         1 UNK         0.0600 
    154 H154       -0.9544  -13.3256  -43.2148 H         1 UNK         0.3000 
    155 H155       -3.4368  -13.1636  -44.2288 H         1 UNK         0.0600 
    156 H156       -5.2587  -14.8663  -44.1890 H         1 UNK         0.0600 
    157 H157       -4.0834  -16.1525  -44.4550 H         1 UNK         0.0600 
    158 H158       -4.3629  -14.9396  -45.6973 H         1 UNK         0.0600 
    159 H159       -3.5626  -13.5464  -42.0429 H         1 UNK         0.3000 
    160 H160       -3.1579  -14.2788  -40.0217 H         1 UNK         0.0600 
    161 H161       -4.1768  -17.1667  -40.1718 H         1 UNK         0.0600 
    162 H162       -5.1450  -15.7239  -40.4471 H         1 UNK         0.0600 
    163 H163       -4.4719  -16.0318  -38.8539 H         1 UNK         0.0600 
    164 H164       -1.9473  -16.8070  -39.2311 H         1 UNK         0.3000 
    165 H165        1.2547  -15.3689  -38.5813 H         1 UNK         0.0600 
    166 H166       -1.0026  -16.1328  -36.6579 H         1 UNK         0.0600 
    167 H167        0.7159  -16.0548  -36.2690 H         1 UNK         0.0600 
    168 H168       -0.1579  -14.5899  -36.6861 H         1 UNK         0.0600 
    169 H169        0.0172  -17.9247  -38.0005 H         1 UNK         0.3000 
    170 H170        1.5521  -19.6834  -38.7729 H         1 UNK         0.0600 
    171 H171       -0.8327  -19.7624  -39.6013 H         1 UNK         0.0600 
    172 H172       -0.2676  -19.6588  -41.2629 H         1 UNK         0.0600 
    173 H173        0.1144  -21.0711  -40.2866 H         1 UNK         0.0600 
    174 H174        2.6481  -18.8090  -41.2632 H         1 UNK         0.3000 
    175 H175        5.2006  -21.1015  -41.1840 H         1 UNK         0.0600 
    176 H176        3.2352  -21.3080  -43.5266 H         1 UNK         0.0600 
    177 H177        4.9222  -21.8175  -43.5004 H         1 UNK         0.0600 
    178 H178        3.7377  -22.6582  -42.5194 H         1 UNK         0.0600 
    179 H179        4.4752  -19.2306  -43.2381 H         1 UNK         0.3000 
    180 H180        5.1399  -16.3130  -41.5729 H         1 UNK         0.0600 
    181 H181        7.5506  -16.7973  -41.5147 H         1 UNK         0.0600 
    182 H182        7.4956  -17.5124  -43.1168 H         1 UNK         0.0600 
    183 H183        7.1828  -15.7893  -42.9045 H         1 UNK         0.0600 
    184 H184        3.9836  -16.1859  -43.4028 H         1 UNK         0.3000 
    185 H185        3.0899  -16.5697  -45.4497 H         1 UNK         0.0600 
    186 H186        5.6754  -15.6923  -46.8498 H         1 UNK         0.0600 
    187 H187        4.0559  -15.1083  -47.2321 H         1 UNK         0.0600 
    188 H188        4.7753  -14.7427  -45.6713 H         1 UNK         0.0600 
    189 H189        4.7673  -18.3576  -47.0524 H         1 UNK         0.3000 
    190 H190        0.1770  -20.8796  -45.7525 H         1 UNK         0.3000 
    191 H191       -1.6239  -23.1159  -45.4897 H         1 UNK         0.0600 
    192 H192        0.2938  -24.1948  -44.3668 H         1 UNK         0.0600 
    193 H193        0.0709  -22.5625  -43.7571 H         1 UNK         0.0600 
    194 H194        1.3756  -22.9131  -44.8866 H         1 UNK         0.0600 
    195 H195        1.3897  -22.5593  -47.3746 H         1 UNK         0.3000 
    196 H196        1.2207  -25.0321  -48.8554 H         1 UNK         0.0600 
    197 H197        3.0168  -24.0453  -50.2422 H         1 UNK         0.0600 
    198 H198        3.3627  -23.7927  -48.5412 H         1 UNK         0.0600 
    199 H199        2.7458  -22.4626  -49.5317 H         1 UNK         0.0600 
    200 H200       -0.2278  -21.8899  -49.2569 H         1 UNK         0.3000 
    201 H201       -1.0945  -22.2340  -52.0125 H         1 UNK         0.0600 
    202 H202       -0.6584  -19.9834  -50.9691 H         1 UNK         0.0600 
    203 H203       -1.9890  -20.2464  -49.8490 H         1 UNK         0.0600 
    204 H204       -2.2879  -20.1054  -51.5742 H         1 UNK         0.0600 
    205 H205       -2.1538  -23.4434  -49.0006 H         1 UNK         0.3000 
    206 H206       -3.9037  -24.4682  -48.1576 H         1 UNK         0.0600 
    207 H207       -3.4907  -25.9975  -50.1333 H         1 UNK         0.0600 
    208 H208       -5.1603  -26.0103  -49.5814 H         1 UNK         0.0600 
    209 H209       -4.7316  -25.1203  -51.0308 H         1 UNK         0.0600 
    210 H210       -4.2662  -21.9088  -47.9492 H         1 UNK         0.3000 
    211 H211       -5.6617  -20.2105  -47.6546 H         1 UNK         0.0600 
    212 H212       -7.9899  -22.1614  -48.0318 H         1 UNK         0.0600 
    213 H213       -8.0485  -20.5895  -47.2497 H         1 UNK         0.0600 
    214 H214       -7.1258  -21.8920  -46.5185 H         1 UNK         0.0600 
    215 H215       -4.5707  -20.6206  -50.1554 H         1 UNK         0.3000 
    216 H216       -4.3822  -19.6564  -52.1180 H         1 UNK         0.0600 
    217 H217       -7.0335  -18.1945  -51.7830 H         1 UNK         0.0600 
    218 H218       -5.6477  -17.7377  -52.7621 H         1 UNK         0.0600 
    219 H219       -5.5367  -17.6668  -51.0151 H         1 UNK         0.0600 
    220 H220       -6.4699  -22.0520  -51.5407 H         1 UNK         0.3000 
    221 H221       -7.9608  -22.1237  -54.0337 H         1 UNK         0.0600 
    222 H222       -7.5881  -24.2869  -51.9001 H         1 UNK         0.0600 
    223 H223       -8.8573  -23.0629  -51.8915 H         1 UNK         0.0600 
    224 H224       -8.8003  -24.2660  -53.1719 H         1 UNK         0.0600 
    225 H225       -4.9862  -23.6962  -52.7670 H         1 UNK         0.3000 
    226 H226       -4.7242  -25.4322  -55.1309 H         1 UNK         0.0600 
    227 H227       -4.0156  -26.3161  -52.9417 H         1 UNK         0.0600 
    228 H228       -2.6373  -26.1893  -54.0172 H         1 UNK         0.0600 
    229 H229       -2.8541  -24.9996  -52.7450 H         1 UNK         0.0600 
    230 H230       -3.4172  -22.3940  -53.8805 H         1 UNK         0.3000 
    231 H231       -1.4889  -21.9938  -56.0268 H         1 UNK         0.0600 
    232 H232       -2.7019  -20.1125  -53.9450 H         1 UNK         0.0600 
    233 H233       -1.1198  -20.8938  -53.8813 H         1 UNK         0.0600 
    234 H234       -1.4324  -19.6521  -55.0740 H         1 UNK         0.0600 
    235 H235       -4.9037  -21.6224  -55.7271 H         1 UNK         0.3000 
    236 H236       -6.5694  -20.9342  -56.9875 H         1 UNK         0.0600 
    237 H237       -5.5475  -22.4499  -58.6836 H         1 UNK         0.0600 
    238 H238       -6.3719  -21.0995  -59.4464 H         1 UNK         0.0600 
    239 H239       -4.6164  -21.1067  -59.3448 H         1 UNK         0.0600 
    240 H240       -5.6214  -18.9803  -55.5333 H         1 UNK         0.3000 
    241 H241       -5.8079  -16.5388  -57.2077 H         1 UNK         0.0600 
    242 H242       -7.5436  -18.1150  -54.9582 H         1 UNK         0.3800 
    243 H243       -8.1525  -16.7202  -54.1065 H         1 UNK         0.3800 
    244 H244       -3.9756  -15.4549  -55.9850 H         1 UNK         0.0800 
    245 H245       -3.4293  -16.8452  -56.8684 H         1 UNK         0.0800 
    246 H246       -3.4258  -15.0519  -53.5673 H         1 UNK         0.0800 
    247 H247       -1.8850  -15.3053  -54.3570 H         1 UNK         0.0800 
@<TRIPOS>BOND
     1    1    2 1    
     2    1  127 1    
     3    1  128 1    
     4    1  129 1    
     5    2    3 2    
     6    2    4 am   BACKBONE|DICT|INTERRES
     7    4    5 1    
     8    4  130 1    
     9    5    6 1    
    10    5   65 1    
    11    5  131 1    
    12    6    7 1    
    13    6  132 1    
    14    6  133 1    
    15    7    8 1    
    16    8    9 1    
    17    8  134 1    
    18    8  135 1    
    19    9   10 ar   
    20    9   14 ar   
    21   10   11 ar   
    22   10  136 1    
    23   11   12 ar   
    24   11  126 1    
    25   12   13 ar   
    26   12  137 1    
    27   13   14 ar   
    28   13   15 1    
    29   14  138 1    
    30   15   16 1    
    31   15  139 1    
    32   15  140 1    
    33   16   17 1    
    34   17   18 1    
    35   17  141 1    
    36   17  142 1    
    37   18   19 1    
    38   18   67 1    
    39   18  143 1    
    40   19   20 am   BACKBONE|DICT|INTERRES
    41   19  144 1    
    42   20   21 2    
    43   20   22 1    
    44   22   23 1    
    45   22   24 1    
    46   22  145 1    
    47   23  146 1    
    48   23  147 1    
    49   23  148 1    
    50   24   25 am   BACKBONE|DICT|INTERRES
    51   24  149 1    
    52   25   26 2    
    53   25   27 1    
    54   27   28 1    
    55   27   29 1    
    56   27  150 1    
    57   28  151 1    
    58   28  152 1    
    59   28  153 1    
    60   29   30 am   BACKBONE|DICT|INTERRES
    61   29  154 1    
    62   30   31 2    
    63   30   32 1    
    64   32   33 1    
    65   32   34 1    
    66   32  155 1    
    67   33  156 1    
    68   33  157 1    
    69   33  158 1    
    70   34   35 am   BACKBONE|DICT|INTERRES
    71   34  159 1    
    72   35   36 2    
    73   35   37 1    
    74   37   38 1    
    75   37   39 1    
    76   37  160 1    
    77   38  161 1    
    78   38  162 1    
    79   38  163 1    
    80   39   40 am   BACKBONE|DICT|INTERRES
    81   39  164 1    
    82   40   41 2    
    83   40   42 1    
    84   42   43 1    
    85   42   44 1    
    86   42  165 1    
    87   43  166 1    
    88   43  167 1    
    89   43  168 1    
    90   44   45 am   BACKBONE|DICT|INTERRES
    91   44  169 1    
    92   45   46 2    
    93   45   47 1    
    94   47   48 1    
    95   47   49 1    
    96   47  170 1    
    97   48  171 1    
    98   48  172 1    
    99   48  173 1    
   100   49   50 am   BACKBONE|DICT|INTERRES
   101   49  174 1    
   102   50   51 2    
   103   50   52 1    
   104   52   53 1    
   105   52   54 1    
   106   52  175 1    
   107   53  176 1    
   108   53  177 1    
   109   53  178 1    
   110   54   55 am   BACKBONE|DICT|INTERRES
   111   54  179 1    
   112   55   56 2    
   113   55   57 1    
   114   57   58 1    
   115   57   59 1    
   116   57  180 1    
   117   58  181 1    
   118   58  182 1    
   119   58  183 1    
   120   59   60 am   BACKBONE|DICT|INTERRES
   121   59  184 1    
   122   60   61 2    
   123   60   62 1    
   124   62   63 1    
   125   62   64 1    
   126   62  185 1    
   127   63  186 1    
   128   63  187 1    
   129   63  188 1    
   130   64   65 am   BACKBONE|DICT|INTERRES
   131   64  189 1    
   132   65   66 2    
   133   67   68 2    
   134   67   69 am   BACKBONE|DICT|INTERRES
   135   69   70 1    
   136   69  190 1    
   137   70   71 1    
   138   70   72 1    
   139   70  191 1    
   140   71  192 1    
   141   71  193 1    
   142   71  194 1    
   143   72   73 2    
   144   72   74 am   BACKBONE|DICT|INTERRES
   145   74   75 1    
   146   74  195 1    
   147   75   76 1    
   148   75   77 1    
   149   75  196 1    
   150   76  197 1    
   151   76  198 1    
   152   76  199 1    
   153   77   78 2    
   154   77   79 am   BACKBONE|DICT|INTERRES
   155   79   80 1    
   156   79  200 1    
   157   80   81 1    
   158   80   82 1    
   159   80  201 1    
   160   81  202 1    
   161   81  203 1    
   162   81  204 1    
   163   82   83 2    
   164   82   84 am   BACKBONE|DICT|INTERRES
   165   84   85 1    
   166   84  205 1    
   167   85   86 1    
   168   85   87 1    
   169   85  206 1    
   170   86  207 1    
   171   86  208 1    
   172   86  209 1    
   173   87   88 2    
   174   87   89 am   BACKBONE|DICT|INTERRES
   175   89   90 1    
   176   89  210 1    
   177   90   91 1    
   178   90   92 1    
   179   90  211 1    
   180   91  212 1    
   181   91  213 1    
   182   91  214 1    
   183   92   93 2    
   184   92   94 am   BACKBONE|DICT|INTERRES
   185   94   95 1    
   186   94  215 1    
   187   95   96 1    
   188   95   97 1    
   189   95  216 1    
   190   96  217 1    
   191   96  218 1    
   192   96  219 1    
   193   97   98 2    
   194   97   99 am   BACKBONE|DICT|INTERRES
   195   99  100 1    
   196   99  220 1    
   197  100  101 1    
   198  100  102 1    
   199  100  221 1    
   200  101  222 1    
   201  101  223 1    
   202  101  224 1    
   203  102  103 2    
   204  102  104 am   BACKBONE|DICT|INTERRES
   205  104  105 1    
   206  104  225 1    
   207  105  106 1    
   208  105  107 1    
   209  105  226 1    
   210  106  227 1    
   211  106  228 1    
   212  106  229 1    
   213  107  108 2    
   214  107  109 am   BACKBONE|DICT|INTERRES
   215  109  110 1    
   216  109  230 1    
   217  110  111 1    
   218  110  112 1    
   219  110  231 1    
   220  111  232 1    
   221  111  233 1    
   222  111  234 1    
   223  112  113 2    
   224  112  114 am   BACKBONE|DICT|INTERRES
   225  114  115 1    
   226  114  235 1    
   227  115  116 1    
   228  115  117 1    
   229  115  236 1    
   230  116  237 1    
   231  116  238 1    
   232  116  239 1    
   233  117  118 2    
   234  117  119 am   BACKBONE|DICT|INTERRES
   235  119  120 1    
   236  119  240 1    
   237  120  121 1    
   238  120  124 1    
   239  120  241 1    
   240  121  122 am   BACKBONE|DICT|INTERRES
   241  121  123 2    
   242  122  242 1    
   243  122  243 1    
   244  124  125 1    
   245  124  244 1    
   246  124  245 1    
   247  125  126 1    
   248  126  246 1    
   249  126  247 1    
@<TRIPOS>SUBSTRUCTURE
     1 UNK         1 GROUP             0       ****    0 ROOT    
