@<TRIPOS>MOLECULE
3R540
247   249    1
SMALL
USER_CHARGES


@<TRIPOS>ATOM
      1 CA         -0.2649  -11.6977  -44.9698 C.3       0 UNK        -0.1800 
      2 C           0.7514  -11.3357  -46.0396 C.2       0 UNK         0.5000 
      3 O           0.4963  -10.4466  -46.8522 O.2       0 UNK        -0.5000 
      4 N           1.9040  -12.0184  -46.0424 N.am      1 UNK        -0.5000 
      5 CA          3.0023  -11.7802  -46.9929 C.3       1 UNK         0.1400 
      6 C6          3.9969  -12.9652  -47.0516 C.3       23 UNK        -0.0398 
      7 S7          3.1763  -14.5562  -47.3875 S.3       23 UNK        -0.2404 
      8 C8          3.1486  -14.5574  -49.2031 C.3       23 UNK        -0.0205 
      9 C9          2.2974  -15.7051  -49.7150 C.ar      23 UNK        -0.0193 
     10 C10         0.9551  -15.4939  -50.0506 C.ar      23 UNK        -0.1150 
     11 C11         0.1580  -16.5584  -50.4815 C.ar      23 UNK        -0.0193 
     12 C12         0.7230  -17.8286  -50.5890 C.ar      23 UNK        -0.1150 
     13 C13         2.0576  -18.0582  -50.2479 C.ar      23 UNK        -0.0193 
     14 C14         2.8442  -16.9880  -49.8170 C.ar      23 UNK        -0.1150 
     15 C15         2.6331  -19.4665  -50.3254 C.3       23 UNK        -0.0205 
     16 S16         2.2653  -20.4432  -48.8285 S.3       23 UNK        -0.2404 
     17 C17         0.4445  -20.4928  -48.8959 C.3       23 UNK        -0.0398 
     18 CA         -0.1968  -21.6192  -48.0678 C.3       11 UNK         0.1400 
     19 N           0.0486  -21.4729  -46.6304 N.am      11 UNK        -0.5000 
     20 C          -0.2439  -22.4136  -45.7229 C.2       10 UNK         0.5000 
     21 O          -0.7233  -23.5104  -46.0098 O.2       10 UNK        -0.5000 
     22 CA         -0.0261  -22.0460  -44.2454 C.3       10 UNK         0.1400 
     23 CB          1.4592  -22.1420  -43.8662 C.3       10 UNK        -0.1800 
     24 N          -0.5404  -20.7136  -43.9257 N.am      10 UNK        -0.5000 
     25 C          -1.8346  -20.3690  -43.9934 C.2       9 UNK         0.5000 
     26 O          -2.7342  -21.1592  -44.2803 O.2       9 UNK        -0.5000 
     27 CA         -2.1823  -18.8899  -43.7401 C.3       9 UNK         0.1400 
     28 CB         -2.2675  -18.6009  -42.2347 C.3       9 UNK        -0.1800 
     29 N          -1.2410  -17.9614  -44.3692 N.am      9 UNK        -0.5000 
     30 C          -1.0417  -17.8587  -45.6922 C.2       8 UNK         0.5000 
     31 O          -1.6494  -18.5242  -46.5279 O.2       8 UNK        -0.5000 
     32 CA          0.0533  -16.8840  -46.1599 C.3       8 UNK         0.1400 
     33 CB         -0.4766  -15.4435  -46.1920 C.3       8 UNK        -0.1800 
     34 N           1.2482  -16.9524  -45.3204 N.am      8 UNK        -0.5000 
     35 C           2.0248  -18.0389  -45.2067 C.2       7 UNK         0.5000 
     36 O           1.8198  -19.0972  -45.8006 O.2       7 UNK        -0.5000 
     37 CA          3.1818  -17.9439  -44.1985 C.3       7 UNK         0.1400 
     38 CB          4.3119  -17.0486  -44.7298 C.3       7 UNK        -0.1800 
     39 N           2.7309  -17.4444  -42.8994 N.am      7 UNK        -0.5000 
     40 C           1.8738  -18.0885  -42.0939 C.2       6 UNK         0.5000 
     41 O           1.4012  -19.1966  -42.3419 O.2       6 UNK        -0.5000 
     42 CA          1.4446  -17.3582  -40.8089 C.3       6 UNK         0.1400 
     43 CB          2.4128  -17.6781  -39.6604 C.3       6 UNK        -0.1800 
     44 N           1.3507  -15.9065  -40.9689 N.am      6 UNK        -0.5000 
     45 C           0.5049  -15.2710  -41.7935 C.2       5 UNK         0.5000 
     46 O          -0.2905  -15.8454  -42.5373 O.2       5 UNK        -0.5000 
     47 CA          0.5973  -13.7349  -41.8132 C.3       5 UNK         0.1400 
     48 CB         -0.3261  -13.1175  -40.7539 C.3       5 UNK        -0.1800 
     49 N           1.9666  -13.2631  -41.6009 N.am      5 UNK        -0.5000 
     50 C           2.9513  -13.3724  -42.4993 C.2       4 UNK         0.5000 
     51 O           2.7713  -13.7416  -43.6626 O.2       4 UNK        -0.5000 
     52 CA          4.3632  -13.0036  -42.0009 C.3       4 UNK         0.1400 
     53 CB          5.4675  -13.5317  -42.9329 C.3       4 UNK        -0.1800 
     54 N           4.5280  -11.5603  -41.8551 N.am      4 UNK        -0.5000 
     55 C           4.0055  -10.7870  -40.8911 C.2       3 UNK         0.5000 
     56 O           3.3428  -11.2266  -39.9503 O.2       3 UNK        -0.5000 
     57 CA          4.2602   -9.2667  -41.0089 C.3       3 UNK         0.1400 
     58 CB          5.4056   -8.8382  -40.0793 C.3       3 UNK        -0.1800 
     59 N           4.5824   -8.8649  -42.3827 N.am      3 UNK        -0.5000 
     60 C           3.6928   -8.8574  -43.3842 C.2       2 UNK         0.5000 
     61 O           2.4785   -8.9824  -43.2111 O.2       2 UNK        -0.5000 
     62 CA          4.2383   -8.8365  -44.8214 C.3       2 UNK         0.1400 
     63 CB          5.7815   -8.7911  -44.9190 C.3       2 UNK        -0.1800 
     64 N           3.7071  -10.0555  -45.4161 N.am      2 UNK        -0.5000 
     65 C           3.7533  -10.4650  -46.6870 C.2       1 UNK         0.5000 
     66 O           4.3323   -9.8614  -47.5907 O.2       1 UNK        -0.5000 
     67 C          -1.7001  -21.7060  -48.4128 C.2       11 UNK         0.5000 
     68 O          -2.0509  -22.3788  -49.3816 O.2       11 UNK        -0.5000 
     69 N          -2.5560  -21.0226  -47.6411 N.am      12 UNK        -0.5000 
     70 CA         -4.0097  -21.0532  -47.7998 C.3       12 UNK         0.1400 
     71 CB         -4.6415  -19.8765  -47.0418 C.3       12 UNK        -0.1800 
     72 C          -4.6286  -22.3895  -47.3502 C.2       12 UNK         0.5000 
     73 O          -5.6469  -22.7982  -47.9060 O.2       12 UNK        -0.5000 
     74 N          -4.0102  -23.0452  -46.3579 N.am      13 UNK        -0.5000 
     75 CA         -4.3664  -24.3922  -45.9112 C.3       13 UNK         0.1400 
     76 CB         -3.8066  -24.6233  -44.4994 C.3       13 UNK        -0.1800 
     77 C          -3.8620  -25.4732  -46.8863 C.2       13 UNK         0.5000 
     78 O          -4.5515  -26.4715  -47.1015 O.2       13 UNK        -0.5000 
     79 N          -2.6758  -25.2481  -47.4661 N.am      14 UNK        -0.5000 
     80 CA         -2.0651  -26.0746  -48.5065 C.3       14 UNK         0.1400 
     81 CB         -0.5852  -25.6767  -48.6395 C.3       14 UNK        -0.1800 
     82 C          -2.7924  -25.9629  -49.8639 C.2       14 UNK         0.5000 
     83 O          -3.7467  -25.1947  -50.0079 O.2       14 UNK        -0.5000 
     84 N          -2.3245  -26.7532  -50.8424 N.am      15 UNK        -0.5000 
     85 CA         -2.8145  -26.8184  -52.2265 C.3       15 UNK         0.1400 
     86 CB         -2.4822  -25.5122  -52.9808 C.3       15 UNK        -0.1800 
     87 C          -4.3082  -27.1953  -52.3075 C.2       15 UNK         0.5000 
     88 O          -5.0641  -26.5683  -53.0497 O.2       15 UNK        -0.5000 
     89 N          -4.7045  -28.1900  -51.4970 N.am      16 UNK        -0.5000 
     90 CA         -6.0765  -28.6781  -51.3051 C.3       16 UNK         0.1400 
     91 CB         -6.5709  -29.4204  -52.5641 C.3       16 UNK        -0.1800 
     92 C          -7.0381  -27.5644  -50.8350 C.2       16 UNK         0.5000 
     93 O          -8.1503  -27.4448  -51.3511 O.2       16 UNK        -0.5000 
     94 N          -6.5629  -26.7624  -49.8704 N.am      17 UNK        -0.5000 
     95 CA         -7.1862  -25.5514  -49.3326 C.3       17 UNK         0.1400 
     96 CB         -8.5043  -25.8752  -48.5978 C.3       17 UNK        -0.1800 
     97 C          -7.3277  -24.4548  -50.4082 C.2       17 UNK         0.5000 
     98 O          -8.4286  -23.9500  -50.6400 O.2       17 UNK        -0.5000 
     99 N          -6.1939  -24.1223  -51.0441 N.am      18 UNK        -0.5000 
    100 CA        -6.0165  -23.0830  -52.0625 C.3       18 UNK         0.1400 
    101 CB        -6.2100  -21.6898  -51.4299 C.3       18 UNK        -0.1800 
    102 C         -6.8854  -23.3011  -53.3205 C.2       18 UNK         0.5000 
    103 O         -7.5114  -22.3613  -53.8159 O.2       18 UNK        -0.5000 
    104 N         -6.9191  -24.5432  -53.8205 N.am      19 UNK        -0.5000 
    105 CA        -7.6535  -24.9381  -55.0204 C.3       19 UNK         0.1400 
    106 CB        -7.8284  -26.4657  -55.0279 C.3       19 UNK        -0.1800 
    107 C         -6.9269  -24.4356  -56.2814 C.2       19 UNK         0.5000 
    108 O         -5.9892  -25.0858  -56.7473 O.2       19 UNK        -0.5000 
    109 N         -7.3574  -23.2673  -56.7808 N.am      20 UNK        -0.5000 
    110 CA        -6.7884  -22.5248  -57.9139 C.3       20 UNK         0.1400 
    111 CB        -6.9976  -23.2925  -59.2365 C.3       20 UNK        -0.1800 
    112 C         -5.3189  -22.1135  -57.6733 C.2       20 UNK         0.5000 
    113 O         -4.4866  -22.1999  -58.5787 O.2       20 UNK        -0.5000 
    114 N         -5.0306  -21.6814  -56.4418 N.am      21 UNK        -0.5000 
    115 CA        -3.7162  -21.2769  -55.9575 C.3       21 UNK         0.1400 
    116 CB        -2.9595  -22.5225  -55.4581 C.3       21 UNK        -0.1800 
    117 C         -3.8996  -20.2511  -54.8294 C.2       21 UNK         0.5000 
    118 O         -5.0224  -20.0530  -54.3605 O.2       21 UNK        -0.5000 
    119 N         -2.7954  -19.6286  -54.4009 N.am      22 UNK        -0.5000 
    120 CA        -2.7533  -18.7622  -53.2090 C.3       22 UNK         0.1400 
    121 C         -2.8384  -19.5721  -51.8780 C.2       22 UNK         0.5000 
    122 N         -2.3146  -20.7931  -51.8226 N.am      22 UNK        -0.7600 
    123 O         -3.4125  -19.1054  -50.9004 O.2       22 UNK        -0.5000 
    124 C124       -1.5152  -17.8213  -53.2494 C.3       23 UNK        -0.0398 
    125 S125       -1.7686  -16.1692  -52.5008 S.3       23 UNK        -0.2404 
    126 C126       -1.3309  -16.3679  -50.7388 C.3       23 UNK        -0.0205 
    127 H127        0.0484  -11.3025  -44.0034 H         1 UNK         0.0600 
    128 H128       -0.3721  -12.7780  -44.8943 H         1 UNK         0.0600 
    129 H129       -1.2430  -11.2802  -45.2091 H         1 UNK         0.0600 
    130 H130        2.0693  -12.7465  -45.3539 H         1 UNK         0.3000 
    131 H131        2.5633  -11.6685  -47.9866 H         1 UNK         0.0600 
    132 H132        4.7623  -12.7928  -47.8106 H         1 UNK         0.0800 
    133 H133        4.5256  -13.0655  -46.1030 H         1 UNK         0.0800 
    134 H134        4.1666  -14.6436  -49.5859 H         1 UNK         0.0800 
    135 H135        2.7560  -13.6071  -49.5676 H         1 UNK         0.0800 
    136 H136        0.5241  -14.5081  -49.9455 H         1 UNK         0.1150 
    137 H137        0.1034  -18.6542  -50.8976 H         1 UNK         0.1150 
    138 H138        3.8749  -17.1557  -49.5376 H         1 UNK         0.1150 
    139 H139        2.2422  -19.9822  -51.2039 H         1 UNK         0.0800 
    140 H140        3.7150  -19.4208  -50.4576 H         1 UNK         0.0800 
    141 H141        0.1653  -20.6189  -49.9431 H         1 UNK         0.0800 
    142 H142        0.0567  -19.5261  -48.5696 H         1 UNK         0.0800 
    143 H143        0.2592  -22.5602  -48.3801 H         1 UNK         0.0600 
    144 H144        0.4767  -20.6039  -46.3257 H         1 UNK         0.3000 
    145 H145       -0.5758  -22.7698  -43.6401 H         1 UNK         0.0600 
    146 H146        1.6036  -21.9736  -42.7990 H         1 UNK         0.0600 
    147 H147        1.8580  -23.1306  -44.0965 H         1 UNK         0.0600 
    148 H148        2.0626  -21.4103  -44.4038 H         1 UNK         0.0600 
    149 H149        0.1422  -20.0210  -43.6330 H         1 UNK         0.3000 
    150 H150       -3.1660  -18.7024  -44.1747 H         1 UNK         0.0600 
    151 H151       -3.0103  -19.2409  -41.7570 H         1 UNK         0.0600 
    152 H152       -2.5577  -17.5672  -42.0457 H         1 UNK         0.0600 
    153 H153       -1.3145  -18.7786  -41.7376 H         1 UNK         0.0600 
    154 H154       -0.7284  -17.3409  -43.7497 H         1 UNK         0.3000 
    155 H155        0.3426  -17.1636  -47.1757 H         1 UNK         0.0600 
    156 H156       -1.3450  -15.3642  -46.8470 H         1 UNK         0.0600 
    157 H157        0.2762  -14.7517  -46.5688 H         1 UNK         0.0600 
    158 H158       -0.7802  -15.1071  -45.2004 H         1 UNK         0.0600 
    159 H159        1.4749  -16.1316  -44.7781 H         1 UNK         0.3000 
    160 H160        3.5823  -18.9499  -44.0560 H         1 UNK         0.0600 
    161 H161        5.1802  -17.0785  -44.0716 H         1 UNK         0.0600 
    162 H162        3.9961  -16.0088  -44.8196 H         1 UNK         0.0600 
    163 H163        4.6397  -17.3774  -45.7169 H         1 UNK         0.0600 
    164 H164        3.0496  -16.5270  -42.6280 H         1 UNK         0.3000 
    165 H165        0.4553  -17.7265  -40.5319 H         1 UNK         0.0600 
    166 H166        2.0734  -17.2365  -38.7233 H         1 UNK         0.0600 
    167 H167        2.4877  -18.7548  -39.5020 H         1 UNK         0.0600 
    168 H168        3.4176  -17.3056  -39.8638 H         1 UNK         0.0600 
    169 H169        1.9655  -15.3489  -40.3952 H         1 UNK         0.3000 
    170 H170        0.2611  -13.4020  -42.7935 H         1 UNK         0.0600 
    171 H171       -1.3579  -13.4400  -40.9001 H         1 UNK         0.0600 
    172 H172       -0.0312  -13.4043  -39.7438 H         1 UNK         0.0600 
    173 H173       -0.3152  -12.0287  -40.8103 H         1 UNK         0.0600 
    174 H174        2.1842  -12.8534  -40.6994 H         1 UNK         0.3000 
    175 H175        4.5018  -13.4720  -41.0243 H         1 UNK         0.0600 
    176 H176        5.4290  -13.0597  -43.9145 H         1 UNK         0.0600 
    177 H177        6.4567  -13.3473  -42.5135 H         1 UNK         0.0600 
    178 H178        5.3754  -14.6082  -43.0802 H         1 UNK         0.0600 
    179 H179        5.0585  -11.1045  -42.5810 H         1 UNK         0.3000 
    180 H180        3.3503   -8.7510  -40.6943 H         1 UNK         0.0600 
    181 H181        6.3457   -9.3221  -40.3474 H         1 UNK         0.0600 
    182 H182        5.1857   -9.0995  -39.0433 H         1 UNK         0.0600 
    183 H183        5.5600   -7.7596  -40.1153 H         1 UNK         0.0600 
    184 H184        5.5609   -8.7424  -42.6010 H         1 UNK         0.3000 
    185 H185        3.8123   -7.9719  -45.3333 H         1 UNK         0.0600 
    186 H186        6.1837   -7.9100  -44.4177 H         1 UNK         0.0600 
    187 H187        6.2457   -9.6746  -44.4791 H         1 UNK         0.0600 
    188 H188        6.1104   -8.7330  -45.9563 H         1 UNK         0.0600 
    189 H189        3.1293  -10.5946  -44.7843 H         1 UNK         0.3000 
    190 H190       -2.1881  -20.3939  -46.9344 H         1 UNK         0.3000 
    191 H191       -4.2313  -20.9219  -48.8592 H         1 UNK         0.0600 
    192 H192       -4.4436  -19.9316  -45.9718 H         1 UNK         0.0600 
    193 H193       -5.7238  -19.8640  -47.1755 H         1 UNK         0.0600 
    194 H194       -4.2587  -18.9234  -47.4072 H         1 UNK         0.0600 
    195 H195       -3.2171  -22.6053  -45.9069 H         1 UNK         0.3000 
    196 H196       -5.4546  -24.4681  -45.8606 H         1 UNK         0.0600 
    197 H197       -4.0854  -25.6095  -44.1262 H         1 UNK         0.0600 
    198 H198       -4.1955  -23.8861  -43.7966 H         1 UNK         0.0600 
    199 H199       -2.7183  -24.5601  -44.4800 H         1 UNK         0.0600 
    200 H200       -2.1635  -24.4162  -47.1980 H         1 UNK         0.3000 
    201 H201       -2.1176  -27.1159  -48.1829 H         1 UNK         0.0600 
    202 H202       -0.0808  -25.6931  -47.6731 H         1 UNK         0.0600 
    203 H203       -0.4787  -24.6761  -49.0572 H         1 UNK         0.0600 
    204 H204       -0.0445  -26.3616  -49.2931 H         1 UNK         0.0600 
    205 H205       -1.5469  -27.3634  -50.6322 H         1 UNK         0.3000 
    206 H206       -2.2698  -27.6278  -52.7145 H         1 UNK         0.0600 
    207 H207       -1.4152  -25.2944  -52.9392 H         1 UNK         0.0600 
    208 H208       -2.7568  -25.5861  -54.0339 H         1 UNK         0.0600 
    209 H209       -3.0128  -24.6559  -52.5646 H         1 UNK         0.0600 
    210 H210       -4.0024  -28.6249  -50.9153 H         1 UNK         0.3000 
    211 H211       -6.0359  -29.4048  -50.4925 H         1 UNK         0.0600 
    212 H212       -6.6658  -28.7514  -53.4186 H         1 UNK         0.0600 
    213 H213       -7.5483  -29.8730  -52.3931 H         1 UNK         0.0600 
    214 H214       -5.8872  -30.2223  -52.8419 H         1 UNK         0.0600 
    215 H215       -5.6233  -26.9313  -49.5381 H         1 UNK         0.3000 
    216 H216       -6.4916  -25.1637  -48.5883 H         1 UNK         0.0600 
    217 H217       -8.8954  -24.9874  -48.0996 H         1 UNK         0.0600 
    218 H218       -8.3509  -26.6357  -47.8323 H         1 UNK         0.0600 
    219 H219       -9.2772  -26.2330  -49.2783 H         1 UNK         0.0600 
    220 H220       -5.3374  -24.5901  -50.7514 H         1 UNK         0.3000 
    221 H221       -4.9792  -23.1511  -52.3921 H         1 UNK         0.0600 
    222 H222       -7.2346  -21.5337  -51.0921 H         1 UNK         0.0600 
    223 H223       -5.5513  -21.5578  -50.5742 H         1 UNK         0.0600 
    224 H224       -5.9764  -20.8956  -52.1368 H         1 UNK         0.0600 
    225 H225       -6.3297  -25.2611  -53.4026 H         1 UNK         0.3000 
    226 H226       -8.6502  -24.4931  -54.9849 H         1 UNK         0.0600 
    227 H227       -8.4053  -26.7871  -55.8956 H         1 UNK         0.0600 
    228 H228       -6.8689  -26.9824  -55.0627 H         1 UNK         0.0600 
    229 H229       -8.3584  -26.8059  -54.1381 H         1 UNK         0.0600 
    230 H230       -8.0947  -22.7902  -56.2787 H         1 UNK         0.3000 
    231 H231       -7.3536  -21.5944  -57.9842 H         1 UNK         0.0600 
    232 H232       -8.0462  -23.5535  -59.3791 H         1 UNK         0.0600 
    233 H233       -6.4151  -24.2136  -59.2691 H         1 UNK         0.0600 
    234 H234       -6.6962  -22.6860  -60.0913 H         1 UNK         0.0600 
    235 H235       -5.7744  -21.5729  -55.7620 H         1 UNK         0.3000 
    236 H236       -3.1561  -20.7993  -56.7641 H         1 UNK         0.0600 
    237 H237       -2.8442  -23.2598  -56.2528 H         1 UNK         0.0600 
    238 H238       -1.9587  -22.2681  -55.1085 H         1 UNK         0.0600 
    239 H239       -3.4857  -23.0050  -54.6333 H         1 UNK         0.0600 
    240 H240       -1.9106  -19.8327  -54.8421 H         1 UNK         0.3000 
    241 H241       -3.6441  -18.1316  -53.2459 H         1 UNK         0.0600 
    242 H242       -2.3840  -21.3326  -50.9653 H         1 UNK         0.3800 
    243 H243       -1.8611  -21.1983  -52.6236 H         1 UNK         0.3800 
    244 H244       -0.6204  -18.3075  -52.8707 H         1 UNK         0.0800 
    245 H245       -1.2746  -17.6050  -54.2913 H         1 UNK         0.0800 
    246 H246       -1.6782  -15.4816  -50.2059 H         1 UNK         0.0800 
    247 H247       -1.8838  -17.1977  -50.3024 H         1 UNK         0.0800 
@<TRIPOS>BOND
     1    1    2 1    
     2    1  127 1    
     3    1  128 1    
     4    1  129 1    
     5    2    3 2    
     6    2    4 am   BACKBONE|DICT|INTERRES
     7    4    5 1    
     8    4  130 1    
     9    5    6 1    
    10    5   65 1    
    11    5  131 1    
    12    6    7 1    
    13    6  132 1    
    14    6  133 1    
    15    7    8 1    
    16    8    9 1    
    17    8  134 1    
    18    8  135 1    
    19    9   10 ar   
    20    9   14 ar   
    21   10   11 ar   
    22   10  136 1    
    23   11   12 ar   
    24   11  126 1    
    25   12   13 ar   
    26   12  137 1    
    27   13   14 ar   
    28   13   15 1    
    29   14  138 1    
    30   15   16 1    
    31   15  139 1    
    32   15  140 1    
    33   16   17 1    
    34   17   18 1    
    35   17  141 1    
    36   17  142 1    
    37   18   19 1    
    38   18   67 1    
    39   18  143 1    
    40   19   20 am   BACKBONE|DICT|INTERRES
    41   19  144 1    
    42   20   21 2    
    43   20   22 1    
    44   22   23 1    
    45   22   24 1    
    46   22  145 1    
    47   23  146 1    
    48   23  147 1    
    49   23  148 1    
    50   24   25 am   BACKBONE|DICT|INTERRES
    51   24  149 1    
    52   25   26 2    
    53   25   27 1    
    54   27   28 1    
    55   27   29 1    
    56   27  150 1    
    57   28  151 1    
    58   28  152 1    
    59   28  153 1    
    60   29   30 am   BACKBONE|DICT|INTERRES
    61   29  154 1    
    62   30   31 2    
    63   30   32 1    
    64   32   33 1    
    65   32   34 1    
    66   32  155 1    
    67   33  156 1    
    68   33  157 1    
    69   33  158 1    
    70   34   35 am   BACKBONE|DICT|INTERRES
    71   34  159 1    
    72   35   36 2    
    73   35   37 1    
    74   37   38 1    
    75   37   39 1    
    76   37  160 1    
    77   38  161 1    
    78   38  162 1    
    79   38  163 1    
    80   39   40 am   BACKBONE|DICT|INTERRES
    81   39  164 1    
    82   40   41 2    
    83   40   42 1    
    84   42   43 1    
    85   42   44 1    
    86   42  165 1    
    87   43  166 1    
    88   43  167 1    
    89   43  168 1    
    90   44   45 am   BACKBONE|DICT|INTERRES
    91   44  169 1    
    92   45   46 2    
    93   45   47 1    
    94   47   48 1    
    95   47   49 1    
    96   47  170 1    
    97   48  171 1    
    98   48  172 1    
    99   48  173 1    
   100   49   50 am   BACKBONE|DICT|INTERRES
   101   49  174 1    
   102   50   51 2    
   103   50   52 1    
   104   52   53 1    
   105   52   54 1    
   106   52  175 1    
   107   53  176 1    
   108   53  177 1    
   109   53  178 1    
   110   54   55 am   BACKBONE|DICT|INTERRES
   111   54  179 1    
   112   55   56 2    
   113   55   57 1    
   114   57   58 1    
   115   57   59 1    
   116   57  180 1    
   117   58  181 1    
   118   58  182 1    
   119   58  183 1    
   120   59   60 am   BACKBONE|DICT|INTERRES
   121   59  184 1    
   122   60   61 2    
   123   60   62 1    
   124   62   63 1    
   125   62   64 1    
   126   62  185 1    
   127   63  186 1    
   128   63  187 1    
   129   63  188 1    
   130   64   65 am   BACKBONE|DICT|INTERRES
   131   64  189 1    
   132   65   66 2    
   133   67   68 2    
   134   67   69 am   BACKBONE|DICT|INTERRES
   135   69   70 1    
   136   69  190 1    
   137   70   71 1    
   138   70   72 1    
   139   70  191 1    
   140   71  192 1    
   141   71  193 1    
   142   71  194 1    
   143   72   73 2    
   144   72   74 am   BACKBONE|DICT|INTERRES
   145   74   75 1    
   146   74  195 1    
   147   75   76 1    
   148   75   77 1    
   149   75  196 1    
   150   76  197 1    
   151   76  198 1    
   152   76  199 1    
   153   77   78 2    
   154   77   79 am   BACKBONE|DICT|INTERRES
   155   79   80 1    
   156   79  200 1    
   157   80   81 1    
   158   80   82 1    
   159   80  201 1    
   160   81  202 1    
   161   81  203 1    
   162   81  204 1    
   163   82   83 2    
   164   82   84 am   BACKBONE|DICT|INTERRES
   165   84   85 1    
   166   84  205 1    
   167   85   86 1    
   168   85   87 1    
   169   85  206 1    
   170   86  207 1    
   171   86  208 1    
   172   86  209 1    
   173   87   88 2    
   174   87   89 am   BACKBONE|DICT|INTERRES
   175   89   90 1    
   176   89  210 1    
   177   90   91 1    
   178   90   92 1    
   179   90  211 1    
   180   91  212 1    
   181   91  213 1    
   182   91  214 1    
   183   92   93 2    
   184   92   94 am   BACKBONE|DICT|INTERRES
   185   94   95 1    
   186   94  215 1    
   187   95   96 1    
   188   95   97 1    
   189   95  216 1    
   190   96  217 1    
   191   96  218 1    
   192   96  219 1    
   193   97   98 2    
   194   97   99 am   BACKBONE|DICT|INTERRES
   195   99  100 1    
   196   99  220 1    
   197  100  101 1    
   198  100  102 1    
   199  100  221 1    
   200  101  222 1    
   201  101  223 1    
   202  101  224 1    
   203  102  103 2    
   204  102  104 am   BACKBONE|DICT|INTERRES
   205  104  105 1    
   206  104  225 1    
   207  105  106 1    
   208  105  107 1    
   209  105  226 1    
   210  106  227 1    
   211  106  228 1    
   212  106  229 1    
   213  107  108 2    
   214  107  109 am   BACKBONE|DICT|INTERRES
   215  109  110 1    
   216  109  230 1    
   217  110  111 1    
   218  110  112 1    
   219  110  231 1    
   220  111  232 1    
   221  111  233 1    
   222  111  234 1    
   223  112  113 2    
   224  112  114 am   BACKBONE|DICT|INTERRES
   225  114  115 1    
   226  114  235 1    
   227  115  116 1    
   228  115  117 1    
   229  115  236 1    
   230  116  237 1    
   231  116  238 1    
   232  116  239 1    
   233  117  118 2    
   234  117  119 am   BACKBONE|DICT|INTERRES
   235  119  120 1    
   236  119  240 1    
   237  120  121 1    
   238  120  124 1    
   239  120  241 1    
   240  121  122 am   BACKBONE|DICT|INTERRES
   241  121  123 2    
   242  122  242 1    
   243  122  243 1    
   244  124  125 1    
   245  124  244 1    
   246  124  245 1    
   247  125  126 1    
   248  126  246 1    
   249  126  247 1    
@<TRIPOS>SUBSTRUCTURE
     1 UNK         1 GROUP             0       ****    0 ROOT    
