@<TRIPOS>MOLECULE
3R540
247   249    1
SMALL
USER_CHARGES


@<TRIPOS>ATOM
      1 CA          4.6158  -13.5343  -44.5177 C.3       0 UNK        -0.1800 
      2 C           3.4032  -13.1621  -45.3591 C.2       0 UNK         0.5000 
      3 O           3.3791  -12.0904  -45.9648 O.2       0 UNK        -0.5000 
      4 N           2.3985  -14.0428  -45.3960 N.am      1 UNK        -0.5000 
      5 CA          1.1952  -13.9242  -46.2176 C.3       1 UNK         0.1400 
      6 C6          0.1090  -14.9363  -45.7933 C.3       23 UNK        -0.0398 
      7 S7         -0.4740  -14.7093  -44.0737 S.3       23 UNK        -0.2404 
      8 C8         -2.2018  -14.1400  -44.2885 C.3       23 UNK        -0.0205 
      9 C9         -3.0130  -14.9541  -45.2947 C.ar      23 UNK        -0.0193 
     10 C10        -3.8674  -14.3010  -46.1885 C.ar      23 UNK        -0.1150 
     11 C11        -4.5545  -15.0218  -47.1693 C.ar      23 UNK        -0.0193 
     12 C12        -4.3652  -16.4027  -47.2701 C.ar      23 UNK        -0.1150 
     13 C13        -3.5151  -17.0682  -46.3837 C.ar      23 UNK        -0.0193 
     14 C14        -2.8774  -16.3439  -45.3743 C.ar      23 UNK        -0.1150 
     15 C15        -3.2515  -18.5571  -46.5436 C.3       23 UNK        -0.0205 
     16 S16        -1.5116  -18.8692  -46.9910 S.3       23 UNK        -0.2404 
     17 C17        -0.7869  -19.3235  -45.3780 C.3       23 UNK        -0.0398 
     18 CA         -0.4754  -20.8341  -45.2740 C.3       11 UNK         0.1400 
     19 N           0.4086  -21.1297  -44.1438 N.am      11 UNK        -0.5000 
     20 C           0.8932  -22.3377  -43.8201 C.2       10 UNK         0.5000 
     21 O           0.6604  -23.3651  -44.4573 O.2       10 UNK        -0.5000 
     22 CA          1.7264  -22.4154  -42.5320 C.3       10 UNK         0.1400 
     23 CB          3.1584  -21.9112  -42.7685 C.3       10 UNK        -0.1800 
     24 N           1.0959  -21.6410  -41.4633 N.am      10 UNK        -0.5000 
     25 C           0.0582  -22.0744  -40.7335 C.2       9 UNK         0.5000 
     26 O          -0.4122  -23.2086  -40.8230 O.2       9 UNK        -0.5000 
     27 CA         -0.5757  -21.0703  -39.7504 C.3       9 UNK         0.1400 
     28 CB          0.1058  -21.1597  -38.3767 C.3       9 UNK        -0.1800 
     29 N          -0.5245  -19.6845  -40.2208 N.am      9 UNK        -0.5000 
     30 C          -1.2005  -19.2126  -41.2776 C.2       8 UNK         0.5000 
     31 O          -1.9593  -19.8951  -41.9649 O.2       8 UNK        -0.5000 
     32 CA         -0.9380  -17.7449  -41.6685 C.3       8 UNK         0.1400 
     33 CB         -1.8779  -16.8025  -40.9033 C.3       8 UNK        -0.1800 
     34 N           0.4501  -17.3098  -41.4803 N.am      8 UNK        -0.5000 
     35 C           1.5194  -17.8942  -42.0365 C.2       7 UNK         0.5000 
     36 O           1.4595  -18.9315  -42.7004 O.2       7 UNK        -0.5000 
     37 CA          2.8849  -17.2372  -41.7569 C.3       7 UNK         0.1400 
     38 CB          3.4041  -17.6709  -40.3771 C.3       7 UNK        -0.1800 
     39 N           3.8989  -17.5702  -42.7614 N.am      7 UNK        -0.5000 
     40 C           3.8083  -17.2850  -44.0656 C.2       6 UNK         0.5000 
     41 O           2.8656  -16.6673  -44.5676 O.2       6 UNK        -0.5000 
     42 CA          4.9661  -17.7596  -44.9551 C.3       6 UNK         0.1400 
     43 CB          4.9674  -19.2931  -45.0956 C.3       6 UNK        -0.1800 
     44 N           4.8130  -17.1537  -46.2715 N.am      6 UNK        -0.5000 
     45 C           5.7830  -16.9118  -47.1597 C.2       5 UNK         0.5000 
     46 O           6.9772  -17.1279  -46.9456 O.2       5 UNK        -0.5000 
     47 CA          5.3138  -16.3532  -48.5218 C.3       5 UNK         0.1400 
     48 CB          6.3884  -16.4313  -49.6262 C.3       5 UNK        -0.1800 
     49 N           4.0513  -16.9682  -48.9520 N.am      5 UNK        -0.5000 
     50 C           3.8341  -18.2667  -49.2120 C.2       4 UNK         0.5000 
     51 O           4.7309  -19.1069  -49.2927 O.2       4 UNK        -0.5000 
     52 CA          2.3773  -18.7317  -49.3754 C.3       4 UNK         0.1400 
     53 CB          1.9065  -19.4578  -48.1037 C.3       4 UNK        -0.1800 
     54 N           1.4364  -17.6466  -49.6837 N.am      4 UNK        -0.5000 
     55 C           0.5559  -17.6902  -50.6954 C.2       3 UNK         0.5000 
     56 O           0.4957  -18.6187  -51.5006 O.2       3 UNK        -0.5000 
     57 CA         -0.4297  -16.5129  -50.8573 C.3       3 UNK         0.1400 
     58 CB         -1.7946  -16.8488  -50.2348 C.3       3 UNK        -0.1800 
     59 N           0.0499  -15.2520  -50.2933 N.am      3 UNK        -0.5000 
     60 C           1.0551  -14.5228  -50.7956 C.2       2 UNK         0.5000 
     61 O           1.6652  -14.8184  -51.8233 O.2       2 UNK        -0.5000 
     62 CA          1.4610  -13.2546  -50.0156 C.3       2 UNK         0.1400 
     63 CB          0.8380  -12.0085  -50.6636 C.3       2 UNK        -0.1800 
     64 N           1.1253  -13.2618  -48.5857 N.am      2 UNK        -0.5000 
     65 C           1.5619  -14.1602  -47.6936 C.2       1 UNK         0.5000 
     66 O           2.2011  -15.1694  -47.9984 O.2       1 UNK        -0.5000 
     67 C          -1.7630  -21.6849  -45.2510 C.2       11 UNK         0.5000 
     68 O          -2.1566  -22.2052  -46.2920 O.2       11 UNK        -0.5000 
     69 N          -2.3544  -21.8723  -44.0625 N.am      12 UNK        -0.5000 
     70 CA         -3.5344  -22.7104  -43.8323 C.3       12 UNK         0.1400 
     71 CB         -3.9193  -22.6341  -42.3470 C.3       12 UNK        -0.1800 
     72 C          -3.3739  -24.1821  -44.2718 C.2       12 UNK         0.5000 
     73 O          -4.3720  -24.8129  -44.6225 O.2       12 UNK        -0.5000 
     74 N          -2.1361  -24.6953  -44.2615 N.am      13 UNK        -0.5000 
     75 CA         -1.7883  -26.0176  -44.7759 C.3       13 UNK         0.1400 
     76 CB         -0.6918  -26.6306  -43.8902 C.3       13 UNK        -0.1800 
     77 C          -1.3252  -25.9484  -46.2424 C.2       13 UNK         0.5000 
     78 O          -1.7112  -26.8040  -47.0396 O.2       13 UNK        -0.5000 
     79 N          -0.4888  -24.9526  -46.5673 N.am      14 UNK        -0.5000 
     80 CA          0.1744  -24.8110  -47.8638 C.3       14 UNK         0.1400 
     81 CB          1.3322  -23.8092  -47.7296 C.3       14 UNK        -0.1800 
     82 C          -0.7536  -24.3967  -49.0205 C.2       14 UNK         0.5000 
     83 O          -0.5190  -24.8208  -50.1537 O.2       14 UNK        -0.5000 
     84 N          -1.7688  -23.5675  -48.7423 N.am      15 UNK        -0.5000 
     85 CA         -2.6582  -22.9662  -49.7388 C.3       15 UNK         0.1400 
     86 CB         -3.2480  -21.6579  -49.1825 C.3       15 UNK        -0.1800 
     87 C          -3.7424  -23.9310  -50.2568 C.2       15 UNK         0.5000 
     88 O          -4.9375  -23.6482  -50.1425 O.2       15 UNK        -0.5000 
     89 N          -3.3065  -25.0423  -50.8619 N.am      16 UNK        -0.5000 
     90 CA         -4.1410  -25.9461  -51.6532 C.3       16 UNK         0.1400 
     91 CB         -3.3046  -27.1593  -52.0844 C.3       16 UNK        -0.1800 
     92 C          -4.7087  -25.2060  -52.8787 C.2       16 UNK         0.5000 
     93 O          -3.9668  -24.4700  -53.5348 O.2       16 UNK        -0.5000 
     94 N          -6.0177  -25.3612  -53.1253 N.am      17 UNK        -0.5000 
     95 CA         -6.8050  -24.6325  -54.1330 C.3       17 UNK         0.1400 
     96 CB         -6.4145  -25.0811  -55.5569 C.3       17 UNK        -0.1800 
     97 C          -6.7352  -23.0979  -53.9482 C.2       17 UNK         0.5000 
     98 O          -6.6628  -22.3533  -54.9282 O.2       17 UNK        -0.5000 
     99 N          -6.6883  -22.6602  -52.6784 N.am      18 UNK        -0.5000 
    100 CA        -6.5114  -21.2769  -52.2146 C.3       18 UNK         0.1400 
    101 CB        -7.7234  -20.4161  -52.6306 C.3       18 UNK        -0.1800 
    102 C         -5.1685  -20.6438  -52.6471 C.2       18 UNK         0.5000 
    103 O         -5.0552  -19.4168  -52.6710 O.2       18 UNK        -0.5000 
    104 N         -4.1936  -21.4869  -53.0300 N.am      19 UNK        -0.5000 
    105 CA        -2.9102  -21.1551  -53.6629 C.3       19 UNK         0.1400 
    106 CB        -2.0335  -20.3105  -52.7161 C.3       19 UNK        -0.1800 
    107 C         -3.0617  -20.4767  -55.0437 C.2       19 UNK         0.5000 
    108 O         -2.1023  -19.8742  -55.5273 O.2       19 UNK        -0.5000 
    109 N         -4.2696  -20.5422  -55.6309 N.am      20 UNK        -0.5000 
    110 CA        -4.7498  -19.7280  -56.7540 C.3       20 UNK         0.1400 
    111 CB        -4.0285  -20.1111  -58.0627 C.3       20 UNK        -0.1800 
    112 C         -4.7024  -18.2087  -56.4548 C.2       20 UNK         0.5000 
    113 O         -4.5498  -17.4032  -57.3753 O.2       20 UNK        -0.5000 
    114 N         -4.8213  -17.8502  -55.1699 N.am      21 UNK        -0.5000 
    115 CA        -4.7297  -16.4986  -54.6337 C.3       21 UNK         0.1400 
    116 CB        -3.3576  -16.3321  -53.9454 C.3       21 UNK        -0.1800 
    117 C         -5.9307  -16.2530  -53.7011 C.2       21 UNK         0.5000 
    118 O         -7.0444  -16.6753  -54.0212 O.2       21 UNK        -0.5000 
    119 N         -5.7007  -15.5606  -52.5795 N.am      22 UNK        -0.5000 
    120 CA        -6.7180  -15.2228  -51.5721 C.3       22 UNK         0.1400 
    121 C         -7.1479  -16.3950  -50.6385 C.2       22 UNK         0.5000 
    122 N         -6.4995  -17.5529  -50.6657 N.am      22 UNK        -0.7600 
    123 O         -8.0983  -16.2500  -49.8746 O.2       22 UNK        -0.5000 
    124 C124       -6.3200  -13.9513  -50.7753 C.3       23 UNK        -0.0398 
    125 S125       -4.7945  -14.1418  -49.7842 S.3       23 UNK        -0.2404 
    126 C126       -5.5093  -14.3204  -48.1195 C.3       23 UNK        -0.0205 
    127 H127        5.4122  -13.9164  -45.1560 H         1 UNK         0.0600 
    128 H128        4.9909  -12.6603  -43.9854 H         1 UNK         0.0600 
    129 H129        4.3709  -14.2970  -43.7786 H         1 UNK         0.0600 
    130 H130        2.5058  -14.9431  -44.9319 H         1 UNK         0.3000 
    131 H131        0.7953  -12.9144  -46.1036 H         1 UNK         0.0600 
    132 H132       -0.7309  -14.8746  -46.4848 H         1 UNK         0.0800 
    133 H133        0.4834  -15.9589  -45.8773 H         1 UNK         0.0800 
    134 H134       -2.7058  -14.1733  -43.3220 H         1 UNK         0.0800 
    135 H135       -2.1749  -13.0912  -44.5879 H         1 UNK         0.0800 
    136 H136       -3.9903  -13.2286  -46.1292 H         1 UNK         0.1150 
    137 H137       -4.8719  -16.9531  -48.0509 H         1 UNK         0.1150 
    138 H138       -2.2184  -16.8543  -44.6901 H         1 UNK         0.1150 
    139 H139       -3.5231  -19.0849  -45.6287 H         1 UNK         0.0800 
    140 H140       -3.8823  -18.9726  -47.3309 H         1 UNK         0.0800 
    141 H141       -1.4402  -19.0121  -44.5645 H         1 UNK         0.0800 
    142 H142        0.1314  -18.7450  -45.2636 H         1 UNK         0.0800 
    143 H143        0.0793  -21.1183  -46.1690 H         1 UNK         0.0600 
    144 H144        0.6903  -20.3359  -43.5721 H         1 UNK         0.3000 
    145 H145        1.7843  -23.4632  -42.2293 H         1 UNK         0.0600 
    146 H146        3.1772  -20.8674  -43.0805 H         1 UNK         0.0600 
    147 H147        3.7611  -22.0003  -41.8647 H         1 UNK         0.0600 
    148 H148        3.6517  -22.4934  -43.5478 H         1 UNK         0.0600 
    149 H149        1.3757  -20.6723  -41.3860 H         1 UNK         0.3000 
    150 H150       -1.6255  -21.3466  -39.6299 H         1 UNK         0.0600 
    151 H151        0.0649  -22.1774  -37.9861 H         1 UNK         0.0600 
    152 H152       -0.3864  -20.5140  -37.6492 H         1 UNK         0.0600 
    153 H153        1.1560  -20.8696  -38.4282 H         1 UNK         0.0600 
    154 H154        0.0840  -19.0542  -39.7199 H         1 UNK         0.3000 
    155 H155       -1.1603  -17.6449  -42.7307 H         1 UNK         0.0600 
    156 H156       -2.9206  -17.0878  -41.0497 H         1 UNK         0.0600 
    157 H157       -1.7735  -15.7744  -41.2506 H         1 UNK         0.0600 
    158 H158       -1.6793  -16.8180  -39.8310 H         1 UNK         0.0600 
    159 H159        0.5822  -16.4690  -40.9371 H         1 UNK         0.3000 
    160 H160        2.7514  -16.1534  -41.7631 H         1 UNK         0.0600 
    161 H161        4.3487  -17.1814  -40.1391 H         1 UNK         0.0600 
    162 H162        3.5632  -18.7492  -40.3287 H         1 UNK         0.0600 
    163 H163        2.6985  -17.4078  -39.5881 H         1 UNK         0.0600 
    164 H164        4.6928  -18.0990  -42.4326 H         1 UNK         0.3000 
    165 H165        5.9036  -17.4247  -44.5066 H         1 UNK         0.0600 
    166 H166        5.7534  -19.6289  -45.7721 H         1 UNK         0.0600 
    167 H167        5.1428  -19.7770  -44.1346 H         1 UNK         0.0600 
    168 H168        4.0157  -19.6607  -45.4824 H         1 UNK         0.0600 
    169 H169        3.8620  -16.8828  -46.4903 H         1 UNK         0.3000 
    170 H170        5.0934  -15.2978  -48.3547 H         1 UNK         0.0600 
    171 H171        7.2654  -15.8419  -49.3565 H         1 UNK         0.0600 
    172 H172        6.7254  -17.4537  -49.7980 H         1 UNK         0.0600 
    173 H173        6.0114  -16.0384  -50.5704 H         1 UNK         0.0600 
    174 H174        3.2471  -16.3551  -48.8477 H         1 UNK         0.3000 
    175 H175        2.3953  -19.4632  -50.1856 H         1 UNK         0.0600 
    176 H176        0.9431  -19.9393  -48.2685 H         1 UNK         0.0600 
    177 H177        2.6078  -20.2395  -47.8083 H         1 UNK         0.0600 
    178 H178        1.8047  -18.7714  -47.2621 H         1 UNK         0.0600 
    179 H179        1.4447  -16.8378  -49.0749 H         1 UNK         0.3000 
    180 H180       -0.5799  -16.3687  -51.9295 H         1 UNK         0.0600 
    181 H181       -1.7438  -16.8779  -49.1466 H         1 UNK         0.0600 
    182 H182       -2.1587  -17.8199  -50.5730 H         1 UNK         0.0600 
    183 H183       -2.5450  -16.1090  -50.5119 H         1 UNK         0.0600 
    184 H184       -0.4033  -14.9282  -49.4523 H         1 UNK         0.3000 
    185 H185        2.5471  -13.1700  -50.0915 H         1 UNK         0.0600 
    186 H186        1.2025  -11.0944  -50.1945 H         1 UNK         0.0600 
    187 H187        1.0905  -11.9496  -51.7233 H         1 UNK         0.0600 
    188 H188       -0.2499  -12.0172  -50.5855 H         1 UNK         0.0600 
    189 H189        0.5932  -12.4693  -48.2557 H         1 UNK         0.3000 
    190 H190       -2.0039  -21.3603  -43.2581 H         1 UNK         0.3000 
    191 H191       -4.3515  -22.2864  -44.4192 H         1 UNK         0.0600 
    192 H192       -3.1133  -22.9925  -41.7058 H         1 UNK         0.0600 
    193 H193       -4.8015  -23.2403  -42.1378 H         1 UNK         0.0600 
    194 H194       -4.1526  -21.6110  -42.0519 H         1 UNK         0.0600 
    195 H195       -1.3651  -24.0984  -43.9905 H         1 UNK         0.3000 
    196 H196       -2.6574  -26.6772  -44.7299 H         1 UNK         0.0600 
    197 H197        0.2141  -26.0236  -43.8851 H         1 UNK         0.0600 
    198 H198       -0.4180  -27.6262  -44.2417 H         1 UNK         0.0600 
    199 H199       -1.0311  -26.7315  -42.8591 H         1 UNK         0.0600 
    200 H200       -0.1923  -24.3082  -45.8395 H         1 UNK         0.3000 
    201 H201        0.6028  -25.7813  -48.1237 H         1 UNK         0.0600 
    202 H202        0.9730  -22.8128  -47.4742 H         1 UNK         0.0600 
    203 H203        1.8885  -23.7265  -48.6641 H         1 UNK         0.0600 
    204 H204        2.0370  -24.1194  -46.9579 H         1 UNK         0.0600 
    205 H205       -1.8997  -23.2512  -47.7830 H         1 UNK         0.3000 
    206 H206       -2.0517  -22.7004  -50.6056 H         1 UNK         0.0600 
    207 H207       -2.4579  -20.9658  -48.8936 H         1 UNK         0.0600 
    208 H208       -3.8603  -21.1513  -49.9285 H         1 UNK         0.0600 
    209 H209       -3.8761  -21.8373  -48.3094 H         1 UNK         0.0600 
    210 H210       -2.3026  -25.1879  -50.9014 H         1 UNK         0.3000 
    211 H211       -4.9635  -26.2914  -51.0235 H         1 UNK         0.0600 
    212 H212       -2.4572  -26.8636  -52.7046 H         1 UNK         0.0600 
    213 H213       -3.9058  -27.8625  -52.6621 H         1 UNK         0.0600 
    214 H214       -2.9152  -27.6971  -51.2197 H         1 UNK         0.0600 
    215 H215       -6.5485  -25.9793  -52.5266 H         1 UNK         0.3000 
    216 H216       -7.8479  -24.9098  -53.9735 H         1 UNK         0.0600 
    217 H217       -6.4808  -26.1640  -55.6610 H         1 UNK         0.0600 
    218 H218       -7.0807  -24.6433  -56.3012 H         1 UNK         0.0600 
    219 H219       -5.3979  -24.7813  -55.8132 H         1 UNK         0.0600 
    220 H220       -6.6972  -23.3548  -51.9428 H         1 UNK         0.3000 
    221 H221       -6.4883  -21.3193  -51.1249 H         1 UNK         0.0600 
    222 H222       -7.7570  -20.2540  -53.7083 H         1 UNK         0.0600 
    223 H223       -8.6612  -20.8844  -52.3323 H         1 UNK         0.0600 
    224 H224       -7.6938  -19.4336  -52.1626 H         1 UNK         0.0600 
    225 H225       -4.3990  -22.4797  -53.0121 H         1 UNK         0.3000 
    226 H226       -2.4015  -22.1042  -53.8364 H         1 UNK         0.0600 
    227 H227       -1.9830  -20.7340  -51.7160 H         1 UNK         0.0600 
    228 H228       -1.0114  -20.2488  -53.0904 H         1 UNK         0.0600 
    229 H229       -2.4035  -19.2896  -52.6233 H         1 UNK         0.0600 
    230 H230       -4.9836  -21.1055  -55.1810 H         1 UNK         0.3000 
    231 H231       -5.8049  -19.9776  -56.8747 H         1 UNK         0.0600 
    232 H232       -4.0768  -21.1856  -58.2390 H         1 UNK         0.0600 
    233 H233       -2.9781  -19.8196  -58.0486 H         1 UNK         0.0600 
    234 H234       -4.4906  -19.6217  -58.9207 H         1 UNK         0.0600 
    235 H235       -4.9811  -18.5681  -54.4696 H         1 UNK         0.3000 
    236 H236       -4.8058  -15.7662  -55.4394 H         1 UNK         0.0600 
    237 H237       -3.1926  -15.3042  -53.6208 H         1 UNK         0.0600 
    238 H238       -3.2630  -16.9816  -53.0740 H         1 UNK         0.0600 
    239 H239       -2.5459  -16.5824  -54.6289 H         1 UNK         0.0600 
    240 H240       -4.7593  -15.2651  -52.3668 H         1 UNK         0.3000 
    241 H241       -7.6249  -14.9618  -52.1209 H         1 UNK         0.0600 
    242 H242       -6.7992  -18.2891  -50.0492 H         1 UNK         0.3800 
    243 H243       -5.7642  -17.7296  -51.3358 H         1 UNK         0.3800 
    244 H244       -6.1616  -13.1256  -51.4701 H         1 UNK         0.0800 
    245 H245       -7.1423  -13.6295  -50.1339 H         1 UNK         0.0800 
    246 H246       -5.7825  -13.3349  -47.7394 H         1 UNK         0.0800 
    247 H247       -6.4338  -14.8966  -48.1656 H         1 UNK         0.0800 
@<TRIPOS>BOND
     1    1    2 1    
     2    1  127 1    
     3    1  128 1    
     4    1  129 1    
     5    2    3 2    
     6    2    4 am   BACKBONE|DICT|INTERRES
     7    4    5 1    
     8    4  130 1    
     9    5    6 1    
    10    5   65 1    
    11    5  131 1    
    12    6    7 1    
    13    6  132 1    
    14    6  133 1    
    15    7    8 1    
    16    8    9 1    
    17    8  134 1    
    18    8  135 1    
    19    9   10 ar   
    20    9   14 ar   
    21   10   11 ar   
    22   10  136 1    
    23   11   12 ar   
    24   11  126 1    
    25   12   13 ar   
    26   12  137 1    
    27   13   14 ar   
    28   13   15 1    
    29   14  138 1    
    30   15   16 1    
    31   15  139 1    
    32   15  140 1    
    33   16   17 1    
    34   17   18 1    
    35   17  141 1    
    36   17  142 1    
    37   18   19 1    
    38   18   67 1    
    39   18  143 1    
    40   19   20 am   BACKBONE|DICT|INTERRES
    41   19  144 1    
    42   20   21 2    
    43   20   22 1    
    44   22   23 1    
    45   22   24 1    
    46   22  145 1    
    47   23  146 1    
    48   23  147 1    
    49   23  148 1    
    50   24   25 am   BACKBONE|DICT|INTERRES
    51   24  149 1    
    52   25   26 2    
    53   25   27 1    
    54   27   28 1    
    55   27   29 1    
    56   27  150 1    
    57   28  151 1    
    58   28  152 1    
    59   28  153 1    
    60   29   30 am   BACKBONE|DICT|INTERRES
    61   29  154 1    
    62   30   31 2    
    63   30   32 1    
    64   32   33 1    
    65   32   34 1    
    66   32  155 1    
    67   33  156 1    
    68   33  157 1    
    69   33  158 1    
    70   34   35 am   BACKBONE|DICT|INTERRES
    71   34  159 1    
    72   35   36 2    
    73   35   37 1    
    74   37   38 1    
    75   37   39 1    
    76   37  160 1    
    77   38  161 1    
    78   38  162 1    
    79   38  163 1    
    80   39   40 am   BACKBONE|DICT|INTERRES
    81   39  164 1    
    82   40   41 2    
    83   40   42 1    
    84   42   43 1    
    85   42   44 1    
    86   42  165 1    
    87   43  166 1    
    88   43  167 1    
    89   43  168 1    
    90   44   45 am   BACKBONE|DICT|INTERRES
    91   44  169 1    
    92   45   46 2    
    93   45   47 1    
    94   47   48 1    
    95   47   49 1    
    96   47  170 1    
    97   48  171 1    
    98   48  172 1    
    99   48  173 1    
   100   49   50 am   BACKBONE|DICT|INTERRES
   101   49  174 1    
   102   50   51 2    
   103   50   52 1    
   104   52   53 1    
   105   52   54 1    
   106   52  175 1    
   107   53  176 1    
   108   53  177 1    
   109   53  178 1    
   110   54   55 am   BACKBONE|DICT|INTERRES
   111   54  179 1    
   112   55   56 2    
   113   55   57 1    
   114   57   58 1    
   115   57   59 1    
   116   57  180 1    
   117   58  181 1    
   118   58  182 1    
   119   58  183 1    
   120   59   60 am   BACKBONE|DICT|INTERRES
   121   59  184 1    
   122   60   61 2    
   123   60   62 1    
   124   62   63 1    
   125   62   64 1    
   126   62  185 1    
   127   63  186 1    
   128   63  187 1    
   129   63  188 1    
   130   64   65 am   BACKBONE|DICT|INTERRES
   131   64  189 1    
   132   65   66 2    
   133   67   68 2    
   134   67   69 am   BACKBONE|DICT|INTERRES
   135   69   70 1    
   136   69  190 1    
   137   70   71 1    
   138   70   72 1    
   139   70  191 1    
   140   71  192 1    
   141   71  193 1    
   142   71  194 1    
   143   72   73 2    
   144   72   74 am   BACKBONE|DICT|INTERRES
   145   74   75 1    
   146   74  195 1    
   147   75   76 1    
   148   75   77 1    
   149   75  196 1    
   150   76  197 1    
   151   76  198 1    
   152   76  199 1    
   153   77   78 2    
   154   77   79 am   BACKBONE|DICT|INTERRES
   155   79   80 1    
   156   79  200 1    
   157   80   81 1    
   158   80   82 1    
   159   80  201 1    
   160   81  202 1    
   161   81  203 1    
   162   81  204 1    
   163   82   83 2    
   164   82   84 am   BACKBONE|DICT|INTERRES
   165   84   85 1    
   166   84  205 1    
   167   85   86 1    
   168   85   87 1    
   169   85  206 1    
   170   86  207 1    
   171   86  208 1    
   172   86  209 1    
   173   87   88 2    
   174   87   89 am   BACKBONE|DICT|INTERRES
   175   89   90 1    
   176   89  210 1    
   177   90   91 1    
   178   90   92 1    
   179   90  211 1    
   180   91  212 1    
   181   91  213 1    
   182   91  214 1    
   183   92   93 2    
   184   92   94 am   BACKBONE|DICT|INTERRES
   185   94   95 1    
   186   94  215 1    
   187   95   96 1    
   188   95   97 1    
   189   95  216 1    
   190   96  217 1    
   191   96  218 1    
   192   96  219 1    
   193   97   98 2    
   194   97   99 am   BACKBONE|DICT|INTERRES
   195   99  100 1    
   196   99  220 1    
   197  100  101 1    
   198  100  102 1    
   199  100  221 1    
   200  101  222 1    
   201  101  223 1    
   202  101  224 1    
   203  102  103 2    
   204  102  104 am   BACKBONE|DICT|INTERRES
   205  104  105 1    
   206  104  225 1    
   207  105  106 1    
   208  105  107 1    
   209  105  226 1    
   210  106  227 1    
   211  106  228 1    
   212  106  229 1    
   213  107  108 2    
   214  107  109 am   BACKBONE|DICT|INTERRES
   215  109  110 1    
   216  109  230 1    
   217  110  111 1    
   218  110  112 1    
   219  110  231 1    
   220  111  232 1    
   221  111  233 1    
   222  111  234 1    
   223  112  113 2    
   224  112  114 am   BACKBONE|DICT|INTERRES
   225  114  115 1    
   226  114  235 1    
   227  115  116 1    
   228  115  117 1    
   229  115  236 1    
   230  116  237 1    
   231  116  238 1    
   232  116  239 1    
   233  117  118 2    
   234  117  119 am   BACKBONE|DICT|INTERRES
   235  119  120 1    
   236  119  240 1    
   237  120  121 1    
   238  120  124 1    
   239  120  241 1    
   240  121  122 am   BACKBONE|DICT|INTERRES
   241  121  123 2    
   242  122  242 1    
   243  122  243 1    
   244  124  125 1    
   245  124  244 1    
   246  124  245 1    
   247  125  126 1    
   248  126  246 1    
   249  126  247 1    
@<TRIPOS>SUBSTRUCTURE
     1 UNK         1 GROUP             0       ****    0 ROOT    
