@<TRIPOS>MOLECULE
3R540
247   249    1
SMALL
USER_CHARGES


@<TRIPOS>ATOM
      1 CA          6.3389  -13.6985  -42.8745 C.3       0 UNK        -0.1800 
      2 C           5.1559  -13.8613  -43.8166 C.2       0 UNK         0.5000 
      3 O           4.3737  -14.7990  -43.6582 O.2       0 UNK        -0.5000 
      4 N           5.0128  -12.9540  -44.7894 N.am      1 UNK        -0.5000 
      5 CA          3.9309  -12.9673  -45.7714 C.3       1 UNK         0.1400 
      6 C6          4.1183  -14.0493  -46.8743 C.3       23 UNK        -0.0398 
      7 S7          2.5789  -14.9853  -47.1474 S.3       23 UNK        -0.2404 
      8 C8          2.6299  -15.2661  -48.9409 C.3       23 UNK        -0.0205 
      9 C9          1.7472  -16.4419  -49.3284 C.ar      23 UNK        -0.0193 
     10 C10         0.3749  -16.2608  -49.5223 C.ar      23 UNK        -0.1150 
     11 C11        -0.4433  -17.3439  -49.8587 C.ar      23 UNK        -0.0193 
     12 C12         0.1272  -18.6080  -50.0301 C.ar      23 UNK        -0.1150 
     13 C13         1.5003  -18.8005  -49.8523 C.ar      23 UNK        -0.0193 
     14 C14         2.3033  -17.7148  -49.4907 C.ar      23 UNK        -0.1150 
     15 C15         2.1205  -20.1732  -50.0763 C.3       23 UNK        -0.0205 
     16 S16         2.1998  -21.1580  -48.5469 S.3       23 UNK        -0.2404 
     17 C17         0.4348  -21.5058  -48.2647 C.3       23 UNK        -0.0398 
     18 CA          0.1909  -22.6839  -47.2941 C.3       11 UNK         0.1400 
     19 N           0.6267  -22.3787  -45.9237 N.am      11 UNK        -0.5000 
     20 C           0.6026  -23.2342  -44.8900 C.2       10 UNK         0.5000 
     21 O           0.2232  -24.4016  -44.9812 O.2       10 UNK        -0.5000 
     22 CA          1.0206  -22.6821  -43.5146 C.3       10 UNK         0.1400 
     23 CB          2.5485  -22.5792  -43.3890 C.3       10 UNK        -0.1800 
     24 N           0.4053  -21.3812  -43.2512 N.am      10 UNK        -0.5000 
     25 C          -0.8827  -21.2159  -42.9160 C.2       9 UNK         0.5000 
     26 O          -1.6505  -22.1504  -42.6863 O.2       9 UNK        -0.5000 
     27 CA         -1.4199  -19.7711  -42.8594 C.3       9 UNK         0.1400 
     28 CB         -1.2854  -19.1884  -41.4448 C.3       9 UNK        -0.1800 
     29 N          -0.7691  -18.8761  -43.8163 N.am      9 UNK        -0.5000 
     30 C          -0.8399  -19.0048  -45.1484 C.2       8 UNK         0.5000 
     31 O          -1.5091  -19.8636  -45.7190 O.2       8 UNK        -0.5000 
     32 CA          0.0285  -18.0478  -45.9796 C.3       8 UNK         0.1400 
     33 CB         -0.7154  -16.7264  -46.2090 C.3       8 UNK        -0.1800 
     34 N           1.3380  -17.8091  -45.3645 N.am      8 UNK        -0.5000 
     35 C           2.2654  -18.7617  -45.1869 C.2       7 UNK         0.5000 
     36 O           2.1065  -19.9311  -45.5292 O.2       7 UNK        -0.5000 
     37 CA          3.5497  -18.3718  -44.4348 C.3       7 UNK         0.1400 
     38 CB          4.6013  -17.7883  -45.3854 C.3       7 UNK        -0.1800 
     39 N           3.2881  -17.4394  -43.3382 N.am      7 UNK        -0.5000 
     40 C           2.6588  -17.7947  -42.2101 C.2       6 UNK         0.5000 
     41 O           2.2760  -18.9422  -41.9777 O.2       6 UNK        -0.5000 
     42 CA          2.3823  -16.6844  -41.1801 C.3       6 UNK         0.1400 
     43 CB          3.6293  -16.4258  -40.3208 C.3       6 UNK        -0.1800 
     44 N           1.9269  -15.4166  -41.7571 N.am      6 UNK        -0.5000 
     45 C           0.8536  -15.2482  -42.5405 C.2       5 UNK         0.5000 
     46 O           0.1542  -16.1795  -42.9421 O.2       5 UNK        -0.5000 
     47 CA          0.4808  -13.8084  -42.9392 C.3       5 UNK         0.1400 
     48 CB          1.5137  -12.7334  -42.5306 C.3       5 UNK        -0.1800 
     49 N           0.2139  -13.7573  -44.3758 N.am      5 UNK        -0.5000 
     50 C          -0.5685  -12.8524  -44.9728 C.2       4 UNK         0.5000 
     51 O          -1.1240  -11.9264  -44.3782 O.2       4 UNK        -0.5000 
     52 CA         -0.7615  -12.9879  -46.4885 C.3       4 UNK         0.1400 
     53 CB         -2.1957  -13.4140  -46.8482 C.3       4 UNK        -0.1800 
     54 N          -0.4431  -11.7003  -47.0858 N.am      4 UNK        -0.5000 
     55 C          -0.0468  -11.4914  -48.3439 C.2       3 UNK         0.5000 
     56 O          -0.0172  -12.3682  -49.2075 O.2       3 UNK        -0.5000 
     57 CA          0.4637  -10.0764  -48.6795 C.3       3 UNK         0.1400 
     58 CB         -0.6809   -9.0475  -48.7653 C.3       3 UNK        -0.1800 
     59 N           1.5422   -9.6551  -47.7747 N.am      3 UNK        -0.5000 
     60 C           1.4763   -9.3301  -46.4760 C.2       2 UNK         0.5000 
     61 O           0.4237   -9.1850  -45.8530 O.2       2 UNK        -0.5000 
     62 CA          2.8255   -9.2853  -45.7303 C.3       2 UNK         0.1400 
     63 CB          2.7497   -8.4717  -44.4265 C.3       2 UNK        -0.1800 
     64 N           3.2584  -10.6480  -45.4104 N.am      2 UNK        -0.5000 
     65 C           3.7179  -11.5391  -46.2996 C.2       1 UNK         0.5000 
     66 O           3.9827  -11.2508  -47.4681 O.2       1 UNK        -0.5000 
     67 C          -1.2894  -23.1141  -47.3692 C.2       11 UNK         0.5000 
     68 O          -1.6297  -23.9787  -48.1796 O.2       11 UNK        -0.5000 
     69 N          -2.1407  -22.5278  -46.5160 N.am      12 UNK        -0.5000 
     70 CA         -3.5723  -22.8110  -46.4003 C.3       12 UNK         0.1400 
     71 CB         -4.1994  -21.8657  -45.3658 C.3       12 UNK        -0.1800 
     72 C          -3.9112  -24.2775  -46.0681 C.2       12 UNK         0.5000 
     73 O          -4.9998  -24.7268  -46.4248 O.2       12 UNK        -0.5000 
     74 N          -2.9712  -25.0216  -45.4647 N.am      13 UNK        -0.5000 
     75 CA         -3.0877  -26.4632  -45.2165 C.3       13 UNK         0.1400 
     76 CB         -1.9294  -26.9194  -44.3175 C.3       13 UNK        -0.1800 
     77 C          -3.1317  -27.3057  -46.5101 C.2       13 UNK         0.5000 
     78 O          -3.7173  -28.3887  -46.5060 O.2       13 UNK        -0.5000 
     79 N          -2.5432  -26.7805  -47.5933 N.am      14 UNK        -0.5000 
     80 CA         -2.5973  -27.3310  -48.9495 C.3       14 UNK         0.1400 
     81 CB         -1.1627  -27.3901  -49.5027 C.3       14 UNK        -0.1800 
     82 C          -3.5004  -26.4769  -49.8641 C.2       14 UNK         0.5000 
     83 O          -3.4612  -26.6436  -51.0852 O.2       14 UNK        -0.5000 
     84 N          -4.2506  -25.5323  -49.2738 N.am      15 UNK        -0.5000 
     85 CA         -5.0709  -24.5066  -49.9242 C.3       15 UNK         0.1400 
     86 CB         -6.3255  -25.1397  -50.5583 C.3       15 UNK        -0.1800 
     87 C          -4.2735  -23.6350  -50.9169 C.2       15 UNK         0.5000 
     88 O          -4.8179  -23.2338  -51.9450 O.2       15 UNK        -0.5000 
     89 N          -2.9966  -23.3678  -50.6038 N.am      16 UNK        -0.5000 
     90 CA         -2.0086  -22.6906  -51.4527 C.3       16 UNK         0.1400 
     91 CB         -2.3648  -21.2013  -51.6452 C.3       16 UNK        -0.1800 
     92 C          -1.7444  -23.4427  -52.7741 C.2       16 UNK         0.5000 
     93 O          -1.6179  -22.8202  -53.8282 O.2       16 UNK        -0.5000 
     94 N          -1.6741  -24.7789  -52.6721 N.am      17 UNK        -0.5000 
     95 CA         -1.5572  -25.7536  -53.7602 C.3       17 UNK         0.1400 
     96 CB         -0.2372  -25.5788  -54.5411 C.3       17 UNK        -0.1800 
     97 C          -2.8140  -25.7478  -54.6521 C.2       17 UNK         0.5000 
     98 O          -2.7120  -25.6244  -55.8741 O.2       17 UNK        -0.5000 
     99 N          -3.9784  -25.8772  -53.9972 N.am      18 UNK        -0.5000 
    100 CA        -5.3261  -25.8798  -54.5781 C.3       18 UNK         0.1400 
    101 CB        -5.5483  -27.1449  -55.4334 C.3       18 UNK        -0.1800 
    102 C         -5.6652  -24.5710  -55.3255 C.2       18 UNK         0.5000 
    103 O         -6.1789  -24.6060  -56.4454 O.2       18 UNK        -0.5000 
    104 N         -5.3792  -23.4377  -54.6753 N.am      19 UNK        -0.5000 
    105 CA        -5.6447  -22.0795  -55.1506 C.3       19 UNK         0.1400 
    106 CB        -4.3073  -21.3724  -55.4298 C.3       19 UNK        -0.1800 
    107 C         -6.5137  -21.3122  -54.1342 C.2       19 UNK         0.5000 
    108 O         -6.3831  -20.0935  -54.0074 O.2       19 UNK        -0.5000 
    109 N         -7.3722  -22.0483  -53.4094 N.am      20 UNK        -0.5000 
    110 CA        -8.3618  -21.5784  -52.4294 C.3       20 UNK         0.1400 
    111 CB        -9.4814  -20.7938  -53.1448 C.3       20 UNK        -0.1800 
    112 C         -7.7686  -20.7959  -51.2354 C.2       20 UNK         0.5000 
    113 O         -8.4779  -19.9989  -50.6205 O.2       20 UNK        -0.5000 
    114 N         -6.4855  -21.0423  -50.9288 N.am      21 UNK        -0.5000 
    115 CA        -5.6625  -20.3387  -49.9369 C.3       21 UNK         0.1400 
    116 CB        -6.1828  -20.5746  -48.5030 C.3       21 UNK        -0.1800 
    117 C         -5.4537  -18.8464  -50.2819 C.2       21 UNK         0.5000 
    118 O         -5.3926  -18.0108  -49.3787 O.2       21 UNK        -0.5000 
    119 N         -5.3315  -18.5595  -51.5864 N.am      22 UNK        -0.5000 
    120 CA        -5.2280  -17.2310  -52.2141 C.3       22 UNK         0.1400 
    121 C         -6.5808  -16.4608  -52.2619 C.2       22 UNK         0.5000 
    122 N         -6.6819  -15.4396  -53.1032 N.am      22 UNK        -0.7600 
    123 O         -7.5401  -16.7580  -51.5546 O.2       22 UNK        -0.5000 
    124 C124       -4.0878  -16.3329  -51.6515 C.3       23 UNK        -0.0398 
    125 S125       -2.4241  -17.0772  -51.7728 S.3       23 UNK        -0.2404 
    126 C126       -1.9432  -17.1515  -50.0191 C.3       23 UNK        -0.0205 
    127 H127        5.9870  -13.5884  -41.8488 H         1 UNK         0.0600 
    128 H128        6.9403  -12.8245  -43.1252 H         1 UNK         0.0600 
    129 H129        6.9788  -14.5794  -42.9236 H         1 UNK         0.0600 
    130 H130        5.6715  -12.1913  -44.8753 H         1 UNK         0.3000 
    131 H131        3.0176  -13.1977  -45.2202 H         1 UNK         0.0600 
    132 H132        4.4819  -13.6378  -47.8166 H         1 UNK         0.0800 
    133 H133        4.8802  -14.7706  -46.5797 H         1 UNK         0.0800 
    134 H134        2.3049  -14.3619  -49.4584 H         1 UNK         0.0800 
    135 H135        3.6571  -15.4552  -49.2562 H         1 UNK         0.0800 
    136 H136       -0.0564  -15.2776  -49.3913 H         1 UNK         0.1150 
    137 H137       -0.4998  -19.4417  -50.3057 H         1 UNK         0.1150 
    138 H138        3.3639  -17.8606  -49.3411 H         1 UNK         0.1150 
    139 H139        1.5660  -20.7210  -50.8398 H         1 UNK         0.0800 
    140 H140        3.1323  -20.0567  -50.4672 H         1 UNK         0.0800 
    141 H141       -0.0113  -21.7134  -49.2358 H         1 UNK         0.0800 
    142 H142       -0.0488  -20.6015  -47.8967 H         1 UNK         0.0800 
    143 H143        0.7805  -23.5367  -47.6366 H         1 UNK         0.0600 
    144 H144        1.0150  -21.4498  -45.7755 H         1 UNK         0.3000 
    145 H145        0.6756  -23.3862  -42.7542 H         1 UNK         0.0600 
    146 H146        3.0122  -23.5596  -43.5042 H         1 UNK         0.0600 
    147 H147        2.9812  -21.9255  -44.1452 H         1 UNK         0.0600 
    148 H148        2.8379  -22.1947  -42.4108 H         1 UNK         0.0600 
    149 H149        0.9740  -20.5618  -43.4188 H         1 UNK         0.3000 
    150 H150       -2.4818  -19.8070  -43.1117 H         1 UNK         0.0600 
    151 H151       -1.7094  -18.1855  -41.3893 H         1 UNK         0.0600 
    152 H152       -0.2438  -19.1284  -41.1302 H         1 UNK         0.0600 
    153 H153       -1.8126  -19.8065  -40.7171 H         1 UNK         0.0600 
    154 H154       -0.2331  -18.1028  -43.4348 H         1 UNK         0.3000 
    155 H155        0.2048  -18.5046  -46.9544 H         1 UNK         0.0600 
    156 H156       -0.1145  -16.0347  -46.7924 H         1 UNK         0.0600 
    157 H157       -0.9883  -16.2400  -45.2736 H         1 UNK         0.0600 
    158 H158       -1.6378  -16.8972  -46.7654 H         1 UNK         0.0600 
    159 H159        1.5219  -16.8858  -45.0047 H         1 UNK         0.3000 
    160 H160        3.9672  -19.2870  -44.0091 H         1 UNK         0.0600 
    161 H161        4.8121  -18.4752  -46.2061 H         1 UNK         0.0600 
    162 H162        5.5403  -17.5971  -44.8659 H         1 UNK         0.0600 
    163 H163        4.2649  -16.8513  -45.8199 H         1 UNK         0.0600 
    164 H164        3.5982  -16.4760  -43.4551 H         1 UNK         0.3000 
    165 H165        1.5867  -17.0437  -40.5242 H         1 UNK         0.0600 
    166 H166        3.4148  -15.7255  -39.5134 H         1 UNK         0.0600 
    167 H167        3.9872  -17.3488  -39.8625 H         1 UNK         0.0600 
    168 H168        4.4471  -16.0146  -40.9143 H         1 UNK         0.0600 
    169 H169        2.4740  -14.6026  -41.5194 H         1 UNK         0.3000 
    170 H170       -0.4510  -13.5935  -42.4118 H         1 UNK         0.0600 
    171 H171        1.1917  -11.7376  -42.8354 H         1 UNK         0.0600 
    172 H172        1.6420  -12.7012  -41.4481 H         1 UNK         0.0600 
    173 H173        2.4896  -12.9143  -42.9755 H         1 UNK         0.0600 
    174 H174        0.6046  -14.5156  -44.9158 H         1 UNK         0.3000 
    175 H175       -0.0624  -13.7309  -46.8721 H         1 UNK         0.0600 
    176 H176       -2.9243  -12.6597  -46.5487 H         1 UNK         0.0600 
    177 H177       -2.3027  -13.5766  -47.9208 H         1 UNK         0.0600 
    178 H178       -2.4648  -14.3458  -46.3504 H         1 UNK         0.0600 
    179 H179       -0.4131  -10.9186  -46.4354 H         1 UNK         0.3000 
    180 H180        0.9197  -10.1329  -49.6693 H         1 UNK         0.0600 
    181 H181       -0.3011   -8.0551  -49.0078 H         1 UNK         0.0600 
    182 H182       -1.2444   -8.9738  -47.8352 H         1 UNK         0.0600 
    183 H183       -1.3883   -9.3254  -49.5474 H         1 UNK         0.0600 
    184 H184        2.4723   -9.8462  -48.1303 H         1 UNK         0.3000 
    185 H185        3.5647   -8.8133  -46.3812 H         1 UNK         0.0600 
    186 H186        2.0567   -8.9150  -43.7101 H         1 UNK         0.0600 
    187 H187        3.7268   -8.4041  -43.9480 H         1 UNK         0.0600 
    188 H188        2.4130   -7.4529  -44.6226 H         1 UNK         0.0600 
    189 H189        3.0856  -10.9541  -44.4641 H         1 UNK         0.3000 
    190 H190       -1.7930  -21.7560  -45.9532 H         1 UNK         0.3000 
    191 H191       -4.0194  -22.5909  -47.3713 H         1 UNK         0.0600 
    192 H192       -3.7688  -22.0124  -44.3754 H         1 UNK         0.0600 
    193 H193       -5.2745  -22.0312  -45.2848 H         1 UNK         0.0600 
    194 H194       -4.0549  -20.8218  -45.6441 H         1 UNK         0.0600 
    195 H195       -2.0873  -24.5909  -45.2226 H         1 UNK         0.3000 
    196 H196       -4.0230  -26.6345  -44.6797 H         1 UNK         0.0600 
    197 H197       -2.0400  -27.9692  -44.0428 H         1 UNK         0.0600 
    198 H198       -1.8935  -26.3427  -43.3930 H         1 UNK         0.0600 
    199 H199       -0.9665  -26.8128  -44.8181 H         1 UNK         0.0600 
    200 H200       -2.0972  -25.8728  -47.5118 H         1 UNK         0.3000 
    201 H201       -3.0079  -28.3423  -48.9419 H         1 UNK         0.0600 
    202 H202       -0.5202  -27.9943  -48.8622 H         1 UNK         0.0600 
    203 H203       -0.7194  -26.3962  -49.5780 H         1 UNK         0.0600 
    204 H204       -1.1395  -27.8386  -50.4967 H         1 UNK         0.0600 
    205 H205       -4.2444  -25.4948  -48.2620 H         1 UNK         0.3000 
    206 H206       -5.4070  -23.8323  -49.1363 H         1 UNK         0.0600 
    207 H207       -6.9895  -24.3783  -50.9692 H         1 UNK         0.0600 
    208 H208       -6.0687  -25.8252  -51.3651 H         1 UNK         0.0600 
    209 H209       -6.8972  -25.6983  -49.8174 H         1 UNK         0.0600 
    210 H210       -2.6300  -23.7344  -49.7281 H         1 UNK         0.3000 
    211 H211       -1.0641  -22.7349  -50.9130 H         1 UNK         0.0600 
    212 H212       -3.3060  -21.0695  -52.1778 H         1 UNK         0.0600 
    213 H213       -1.5942  -20.6827  -52.2166 H         1 UNK         0.0600 
    214 H214       -2.4484  -20.6926  -50.6859 H         1 UNK         0.0600 
    215 H215       -1.8584  -25.1850  -51.7649 H         1 UNK         0.3000 
    216 H216       -1.5244  -26.7360  -53.2863 H         1 UNK         0.0600 
    217 H217       -0.1029  -26.3887  -55.2589 H         1 UNK         0.0600 
    218 H218        0.6219  -25.5935  -53.8706 H         1 UNK         0.0600 
    219 H219       -0.2110  -24.6435  -55.1004 H         1 UNK         0.0600 
    220 H220       -3.9330  -25.9918  -52.9895 H         1 UNK         0.3000 
    221 H221       -6.0199  -25.9328  -53.7390 H         1 UNK         0.0600 
    222 H222       -4.9186  -27.1504  -56.3235 H         1 UNK         0.0600 
    223 H223       -5.3312  -28.0483  -54.8634 H         1 UNK         0.0600 
    224 H224       -6.5846  -27.2140  -55.7663 H         1 UNK         0.0600 
    225 H225       -4.9960  -23.4939  -53.7329 H         1 UNK         0.3000 
    226 H226       -6.2140  -22.1069  -56.0814 H         1 UNK         0.0600 
    227 H227       -3.6937  -21.9489  -56.1223 H         1 UNK         0.0600 
    228 H228       -4.4662  -20.3899  -55.8756 H         1 UNK         0.0600 
    229 H229       -3.7321  -21.2299  -54.5155 H         1 UNK         0.0600 
    230 H230       -7.3614  -23.0453  -53.5686 H         1 UNK         0.3000 
    231 H231       -8.8112  -22.4754  -52.0013 H         1 UNK         0.0600 
    232 H232       -9.1174  -19.8455  -53.5417 H         1 UNK         0.0600 
    233 H233       -9.8981  -21.3668  -53.9731 H         1 UNK         0.0600 
    234 H234      -10.3032  -20.5694  -52.4638 H         1 UNK         0.0600 
    235 H235       -5.9959  -21.7270  -51.4972 H         1 UNK         0.3000 
    236 H236       -4.6752  -20.7941  -49.9882 H         1 UNK         0.0600 
    237 H237       -7.1349  -20.0733  -48.3285 H         1 UNK         0.0600 
    238 H238       -6.3206  -21.6361  -48.2992 H         1 UNK         0.0600 
    239 H239       -5.4759  -20.1920  -47.7660 H         1 UNK         0.0600 
    240 H240       -5.4843  -19.3115  -52.2479 H         1 UNK         0.3000 
    241 H241       -4.9847  -17.4498  -53.2547 H         1 UNK         0.0600 
    242 H242       -7.5503  -14.9289  -53.1457 H         1 UNK         0.3800 
    243 H243       -5.9239  -15.1727  -53.7124 H         1 UNK         0.3800 
    244 H244       -4.0421  -15.3946  -52.2059 H         1 UNK         0.0800 
    245 H245       -4.2993  -16.0450  -50.6215 H         1 UNK         0.0800 
    246 H246       -2.4772  -17.9676  -49.5303 H         1 UNK         0.0800 
    247 H247       -2.2513  -16.2352  -49.5129 H         1 UNK         0.0800 
@<TRIPOS>BOND
     1    1    2 1    
     2    1  127 1    
     3    1  128 1    
     4    1  129 1    
     5    2    3 2    
     6    2    4 am   BACKBONE|DICT|INTERRES
     7    4    5 1    
     8    4  130 1    
     9    5    6 1    
    10    5   65 1    
    11    5  131 1    
    12    6    7 1    
    13    6  132 1    
    14    6  133 1    
    15    7    8 1    
    16    8    9 1    
    17    8  134 1    
    18    8  135 1    
    19    9   10 ar   
    20    9   14 ar   
    21   10   11 ar   
    22   10  136 1    
    23   11   12 ar   
    24   11  126 1    
    25   12   13 ar   
    26   12  137 1    
    27   13   14 ar   
    28   13   15 1    
    29   14  138 1    
    30   15   16 1    
    31   15  139 1    
    32   15  140 1    
    33   16   17 1    
    34   17   18 1    
    35   17  141 1    
    36   17  142 1    
    37   18   19 1    
    38   18   67 1    
    39   18  143 1    
    40   19   20 am   BACKBONE|DICT|INTERRES
    41   19  144 1    
    42   20   21 2    
    43   20   22 1    
    44   22   23 1    
    45   22   24 1    
    46   22  145 1    
    47   23  146 1    
    48   23  147 1    
    49   23  148 1    
    50   24   25 am   BACKBONE|DICT|INTERRES
    51   24  149 1    
    52   25   26 2    
    53   25   27 1    
    54   27   28 1    
    55   27   29 1    
    56   27  150 1    
    57   28  151 1    
    58   28  152 1    
    59   28  153 1    
    60   29   30 am   BACKBONE|DICT|INTERRES
    61   29  154 1    
    62   30   31 2    
    63   30   32 1    
    64   32   33 1    
    65   32   34 1    
    66   32  155 1    
    67   33  156 1    
    68   33  157 1    
    69   33  158 1    
    70   34   35 am   BACKBONE|DICT|INTERRES
    71   34  159 1    
    72   35   36 2    
    73   35   37 1    
    74   37   38 1    
    75   37   39 1    
    76   37  160 1    
    77   38  161 1    
    78   38  162 1    
    79   38  163 1    
    80   39   40 am   BACKBONE|DICT|INTERRES
    81   39  164 1    
    82   40   41 2    
    83   40   42 1    
    84   42   43 1    
    85   42   44 1    
    86   42  165 1    
    87   43  166 1    
    88   43  167 1    
    89   43  168 1    
    90   44   45 am   BACKBONE|DICT|INTERRES
    91   44  169 1    
    92   45   46 2    
    93   45   47 1    
    94   47   48 1    
    95   47   49 1    
    96   47  170 1    
    97   48  171 1    
    98   48  172 1    
    99   48  173 1    
   100   49   50 am   BACKBONE|DICT|INTERRES
   101   49  174 1    
   102   50   51 2    
   103   50   52 1    
   104   52   53 1    
   105   52   54 1    
   106   52  175 1    
   107   53  176 1    
   108   53  177 1    
   109   53  178 1    
   110   54   55 am   BACKBONE|DICT|INTERRES
   111   54  179 1    
   112   55   56 2    
   113   55   57 1    
   114   57   58 1    
   115   57   59 1    
   116   57  180 1    
   117   58  181 1    
   118   58  182 1    
   119   58  183 1    
   120   59   60 am   BACKBONE|DICT|INTERRES
   121   59  184 1    
   122   60   61 2    
   123   60   62 1    
   124   62   63 1    
   125   62   64 1    
   126   62  185 1    
   127   63  186 1    
   128   63  187 1    
   129   63  188 1    
   130   64   65 am   BACKBONE|DICT|INTERRES
   131   64  189 1    
   132   65   66 2    
   133   67   68 2    
   134   67   69 am   BACKBONE|DICT|INTERRES
   135   69   70 1    
   136   69  190 1    
   137   70   71 1    
   138   70   72 1    
   139   70  191 1    
   140   71  192 1    
   141   71  193 1    
   142   71  194 1    
   143   72   73 2    
   144   72   74 am   BACKBONE|DICT|INTERRES
   145   74   75 1    
   146   74  195 1    
   147   75   76 1    
   148   75   77 1    
   149   75  196 1    
   150   76  197 1    
   151   76  198 1    
   152   76  199 1    
   153   77   78 2    
   154   77   79 am   BACKBONE|DICT|INTERRES
   155   79   80 1    
   156   79  200 1    
   157   80   81 1    
   158   80   82 1    
   159   80  201 1    
   160   81  202 1    
   161   81  203 1    
   162   81  204 1    
   163   82   83 2    
   164   82   84 am   BACKBONE|DICT|INTERRES
   165   84   85 1    
   166   84  205 1    
   167   85   86 1    
   168   85   87 1    
   169   85  206 1    
   170   86  207 1    
   171   86  208 1    
   172   86  209 1    
   173   87   88 2    
   174   87   89 am   BACKBONE|DICT|INTERRES
   175   89   90 1    
   176   89  210 1    
   177   90   91 1    
   178   90   92 1    
   179   90  211 1    
   180   91  212 1    
   181   91  213 1    
   182   91  214 1    
   183   92   93 2    
   184   92   94 am   BACKBONE|DICT|INTERRES
   185   94   95 1    
   186   94  215 1    
   187   95   96 1    
   188   95   97 1    
   189   95  216 1    
   190   96  217 1    
   191   96  218 1    
   192   96  219 1    
   193   97   98 2    
   194   97   99 am   BACKBONE|DICT|INTERRES
   195   99  100 1    
   196   99  220 1    
   197  100  101 1    
   198  100  102 1    
   199  100  221 1    
   200  101  222 1    
   201  101  223 1    
   202  101  224 1    
   203  102  103 2    
   204  102  104 am   BACKBONE|DICT|INTERRES
   205  104  105 1    
   206  104  225 1    
   207  105  106 1    
   208  105  107 1    
   209  105  226 1    
   210  106  227 1    
   211  106  228 1    
   212  106  229 1    
   213  107  108 2    
   214  107  109 am   BACKBONE|DICT|INTERRES
   215  109  110 1    
   216  109  230 1    
   217  110  111 1    
   218  110  112 1    
   219  110  231 1    
   220  111  232 1    
   221  111  233 1    
   222  111  234 1    
   223  112  113 2    
   224  112  114 am   BACKBONE|DICT|INTERRES
   225  114  115 1    
   226  114  235 1    
   227  115  116 1    
   228  115  117 1    
   229  115  236 1    
   230  116  237 1    
   231  116  238 1    
   232  116  239 1    
   233  117  118 2    
   234  117  119 am   BACKBONE|DICT|INTERRES
   235  119  120 1    
   236  119  240 1    
   237  120  121 1    
   238  120  124 1    
   239  120  241 1    
   240  121  122 am   BACKBONE|DICT|INTERRES
   241  121  123 2    
   242  122  242 1    
   243  122  243 1    
   244  124  125 1    
   245  124  244 1    
   246  124  245 1    
   247  125  126 1    
   248  126  246 1    
   249  126  247 1    
@<TRIPOS>SUBSTRUCTURE
     1 UNK         1 GROUP             0       ****    0 ROOT    
