@<TRIPOS>MOLECULE
3R540
247   249    1
SMALL
USER_CHARGES


@<TRIPOS>ATOM
      1 CA          0.4152  -11.5034  -47.6809 C.3       0 UNK        -0.1800 
      2 C          -0.1098  -12.9004  -47.9770 C.2       0 UNK         0.5000 
      3 O          -1.3231  -13.1042  -47.9981 O.2       0 UNK        -0.5000 
      4 N           0.7993  -13.8625  -48.1812 N.am      1 UNK        -0.5000 
      5 CA          0.5438  -15.2799  -48.4701 C.3       1 UNK         0.1400 
      6 C6         -0.0328  -15.5315  -49.8911 C.3       23 UNK        -0.0398 
      7 S7          0.9585  -14.8297  -51.2555 S.3       23 UNK        -0.2404 
      8 C8          2.5437  -15.7223  -51.1337 C.3       23 UNK        -0.0205 
      9 C9          2.3761  -17.2340  -51.0816 C.ar      23 UNK        -0.0193 
     10 C10         1.9352  -17.9395  -52.2047 C.ar      23 UNK        -0.1150 
     11 C11         1.8010  -19.3306  -52.1620 C.ar      23 UNK        -0.0193 
     12 C12         2.0962  -20.0125  -50.9773 C.ar      23 UNK        -0.1150 
     13 C13         2.5460  -19.3198  -49.8490 C.ar      23 UNK        -0.0193 
     14 C14         2.6920  -17.9319  -49.9132 C.ar      23 UNK        -0.1150 
     15 C15         2.9271  -20.0796  -48.5835 C.3       23 UNK        -0.0205 
     16 S16         2.1793  -19.3976  -47.0650 S.3       23 UNK        -0.2404 
     17 C17         0.3981  -19.5908  -47.3979 C.3       23 UNK        -0.0398 
     18 CA         -0.0866  -21.0566  -47.3200 C.3       11 UNK         0.1400 
     19 N           0.2578  -21.7200  -46.0619 N.am      11 UNK        -0.5000 
     20 C           0.0974  -23.0312  -45.8402 C.2       10 UNK         0.5000 
     21 O          -0.3126  -23.8216  -46.6904 O.2       10 UNK        -0.5000 
     22 CA          0.3885  -23.5318  -44.4170 C.3       10 UNK         0.1400 
     23 CB          1.8858  -23.8176  -44.2324 C.3       10 UNK        -0.1800 
     24 N          -0.0662  -22.5771  -43.4057 N.am      10 UNK        -0.5000 
     25 C          -1.3573  -22.3271  -43.1414 C.2       9 UNK         0.5000 
     26 O          -2.2920  -22.9025  -43.6976 O.2       9 UNK        -0.5000 
     27 CA         -1.6562  -21.2103  -42.1254 C.3       9 UNK         0.1400 
     28 CB         -1.5770  -21.7475  -40.6890 C.3       9 UNK        -0.1800 
     29 N          -0.7608  -20.0619  -42.2659 N.am      9 UNK        -0.5000 
     30 C          -0.6862  -19.2859  -43.3560 C.2       8 UNK         0.5000 
     31 O          -1.3881  -19.4403  -44.3540 O.2       8 UNK        -0.5000 
     32 CA          0.3708  -18.1712  -43.3468 C.3       8 UNK         0.1400 
     33 CB         -0.2351  -16.8724  -42.8065 C.3       8 UNK        -0.1800 
     34 N           1.5677  -18.4733  -42.5650 N.am      8 UNK        -0.5000 
     35 C           2.4199  -19.4854  -42.7672 C.2       7 UNK         0.5000 
     36 O           2.2138  -20.3895  -43.5780 O.2       7 UNK        -0.5000 
     37 CA          3.6942  -19.5216  -41.8917 C.3       7 UNK         0.1400 
     38 CB          4.9670  -19.6351  -42.7545 C.3       7 UNK        -0.1800 
     39 N           3.8131  -18.4260  -40.9101 N.am      7 UNK        -0.5000 
     40 C           3.9775  -17.1132  -41.1404 C.2       6 UNK         0.5000 
     41 O           4.0555  -16.6208  -42.2669 O.2       6 UNK        -0.5000 
     42 CA          4.0011  -16.2190  -39.8828 C.3       6 UNK         0.1400 
     43 CB          5.3422  -16.3287  -39.1285 C.3       6 UNK        -0.1800 
     44 N           3.6347  -14.8231  -40.1602 N.am      6 UNK        -0.5000 
     45 C           4.3486  -13.8752  -40.7843 C.2       5 UNK         0.5000 
     46 O           5.5108  -14.0100  -41.1725 O.2       5 UNK        -0.5000 
     47 CA          3.6069  -12.5509  -41.0517 C.3       5 UNK         0.1400 
     48 CB          4.5432  -11.3326  -40.9665 C.3       5 UNK        -0.1800 
     49 N           2.9975  -12.5895  -42.3788 N.am      5 UNK        -0.5000 
     50 C           1.8700  -13.2438  -42.6821 C.2       4 UNK         0.5000 
     51 O           1.1519  -13.7899  -41.8405 O.2       4 UNK        -0.5000 
     52 CA          1.5327  -13.3332  -44.1850 C.3       4 UNK         0.1400 
     53 CB          2.4294  -14.3889  -44.8536 C.3       4 UNK        -0.1800 
     54 N           0.1260  -13.6520  -44.4557 N.am      4 UNK        -0.5000 
     55 C          -0.9077  -12.8410  -44.1780 C.2       3 UNK         0.5000 
     56 O          -0.7632  -11.7109  -43.7082 O.2       3 UNK        -0.5000 
     57 CA         -2.3316  -13.3514  -44.4942 C.3       3 UNK         0.1400 
     58 CB         -3.2659  -12.2161  -44.9503 C.3       3 UNK        -0.1800 
     59 N          -2.3173  -14.3843  -45.5290 N.am      3 UNK        -0.5000 
     60 C          -2.8128  -15.6233  -45.4121 C.2       2 UNK         0.5000 
     61 O          -3.4345  -16.0157  -44.4249 O.2       2 UNK        -0.5000 
     62 CA         -2.5673  -16.6048  -46.5814 C.3       2 UNK         0.1400 
     63 CB         -3.8813  -16.9388  -47.3025 C.3       2 UNK        -0.1800 
     64 N          -1.5986  -16.1297  -47.5740 N.am      2 UNK        -0.5000 
     65 C          -0.2917  -15.9358  -47.3469 C.2       1 UNK         0.5000 
     66 O           0.2462  -16.2011  -46.2733 O.2       1 UNK        -0.5000 
     67 C          -1.5982  -21.1437  -47.5995 C.2       11 UNK         0.5000 
     68 O          -1.9947  -21.5084  -48.7052 O.2       11 UNK        -0.5000 
     69 N          -2.4118  -20.8354  -46.5828 N.am      12 UNK        -0.5000 
     70 CA         -3.8674  -20.8860  -46.6400 C.3       12 UNK         0.1400 
     71 CB         -4.4513  -20.2738  -45.3573 C.3       12 UNK        -0.1800 
     72 C          -4.4164  -22.3045  -46.8695 C.2       12 UNK         0.5000 
     73 O          -5.2418  -22.4870  -47.7641 O.2       12 UNK        -0.5000 
     74 N          -3.9658  -23.2691  -46.0559 N.am      13 UNK        -0.5000 
     75 CA         -4.5148  -24.6231  -46.0297 C.3       13 UNK         0.1400 
     76 CB         -4.3599  -25.2151  -44.6193 C.3       13 UNK        -0.1800 
     77 C          -3.8885  -25.5570  -47.0767 C.2       13 UNK         0.5000 
     78 O          -4.6258  -26.1874  -47.8354 O.2       13 UNK        -0.5000 
     79 N          -2.5536  -25.6741  -47.0728 N.am      14 UNK        -0.5000 
     80 CA         -1.8336  -26.6914  -47.8411 C.3       14 UNK         0.1400 
     81 CB         -0.5565  -27.1130  -47.0954 C.3       14 UNK        -0.1800 
     82 C          -1.5155  -26.2240  -49.2673 C.2       14 UNK         0.5000 
     83 O          -1.7325  -26.9857  -50.2107 O.2       14 UNK        -0.5000 
     84 N          -1.0223  -24.9851  -49.4092 N.am      15 UNK        -0.5000 
     85 CA         -0.7060  -24.3963  -50.7164 C.3       15 UNK         0.1400 
     86 CB          0.3582  -23.3015  -50.5586 C.3       15 UNK        -0.1800 
     87 C          -1.9489  -23.8469  -51.4437 C.2       15 UNK         0.5000 
     88 O          -1.8771  -23.6117  -52.6486 O.2       15 UNK        -0.5000 
     89 N          -3.0520  -23.6587  -50.7032 N.am      16 UNK        -0.5000 
     90 CA         -4.3516  -23.1497  -51.1504 C.3       16 UNK         0.1400 
     91 CB         -5.0060  -24.1142  -52.1587 C.3       16 UNK        -0.1800 
     92 C          -4.2988  -21.6910  -51.6510 C.2       16 UNK         0.5000 
     93 O          -5.0801  -21.3029  -52.5235 O.2       16 UNK        -0.5000 
     94 N          -3.4086  -20.8823  -51.0584 N.am      17 UNK        -0.5000 
     95 CA         -3.2293  -19.4637  -51.3730 C.3       17 UNK         0.1400 
     96 CB         -1.9629  -18.9364  -50.6835 C.3       17 UNK        -0.1800 
     97 C          -4.4464  -18.6054  -50.9839 C.2       17 UNK         0.5000 
     98 O          -4.6800  -17.5729  -51.6095 O.2       17 UNK        -0.5000 
     99 N          -5.2306  -19.0702  -49.9995 N.am      18 UNK        -0.5000 
    100 CA        -6.4931  -18.4594  -49.5726 C.3       18 UNK         0.1400 
    101 CB        -6.9608  -19.1259  -48.2699 C.3       18 UNK        -0.1800 
    102 C         -7.5965  -18.5398  -50.6469 C.2       18 UNK         0.5000 
    103 O         -8.4658  -17.6693  -50.6906 O.2       18 UNK        -0.5000 
    104 N         -7.5224  -19.5648  -51.5063 N.am      19 UNK        -0.5000 
    105 CA        -8.3821  -19.7500  -52.6758 C.3       19 UNK         0.1400 
    106 CB        -8.6692  -21.2538  -52.8272 C.3       19 UNK        -0.1800 
    107 C         -7.7378  -19.1906  -53.9614 C.2       19 UNK         0.5000 
    108 O         -8.3509  -19.2827  -55.0254 O.2       19 UNK        -0.5000 
    109 N         -6.5091  -18.6570  -53.8502 N.am      20 UNK        -0.5000 
    110 CA        -5.6145  -18.2267  -54.9305 C.3       20 UNK         0.1400 
    111 CB        -6.1799  -16.9855  -55.6511 C.3       20 UNK        -0.1800 
    112 C         -5.2535  -19.3783  -55.8948 C.2       20 UNK         0.5000 
    113 O         -5.0780  -19.1509  -57.0929 O.2       20 UNK        -0.5000 
    114 N         -5.1571  -20.5989  -55.3516 N.am      21 UNK        -0.5000 
    115 CA        -4.9816  -21.8469  -56.0912 C.3       21 UNK         0.1400 
    116 CB        -6.1000  -22.8200  -55.6776 C.3       21 UNK        -0.1800 
    117 C         -3.5698  -22.4329  -55.8972 C.2       21 UNK         0.5000 
    118 O         -3.4079  -23.6545  -55.9068 O.2       21 UNK        -0.5000 
    119 N         -2.5719  -21.5499  -55.7517 N.am      22 UNK        -0.5000 
    120 CA        -1.1350  -21.8697  -55.7485 C.3       22 UNK         0.1400 
    121 C         -0.6857  -22.6230  -57.0350 C.2       22 UNK         0.5000 
    122 N          0.1503  -23.6442  -56.9059 N.am      22 UNK        -0.7600 
    123 O         -1.0499  -22.2564  -58.1506 O.2       22 UNK        -0.5000 
    124 C124       -0.2809  -20.5873  -55.5765 C.3       23 UNK        -0.0398 
    125 S125       -0.3280  -19.8992  -53.8847 S.3       23 UNK        -0.2404 
    126 C126        1.4231  -20.0976  -53.4208 C.3       23 UNK        -0.0205 
    127 H127        0.0282  -11.1528  -46.7240 H         1 UNK         0.0600 
    128 H128        0.0904  -10.8096  -48.4561 H         1 UNK         0.0600 
    129 H129        1.5042  -11.4799  -47.6355 H         1 UNK         0.0600 
    130 H130        1.7768  -13.6132  -48.1365 H         1 UNK         0.3000 
    131 H131        1.5170  -15.7660  -48.4176 H         1 UNK         0.0600 
    132 H132       -1.0323  -15.1049  -49.9862 H         1 UNK         0.0800 
    133 H133       -0.1370  -16.6021  -50.0670 H         1 UNK         0.0800 
    134 H134        3.1575  -15.4629  -51.9973 H         1 UNK         0.0800 
    135 H135        3.0888  -15.3617  -50.2603 H         1 UNK         0.0800 
    136 H136        1.7117  -17.4067  -53.1185 H         1 UNK         0.1150 
    137 H137        2.0150  -21.0883  -50.9458 H         1 UNK         0.1150 
    138 H138        3.0630  -17.3989  -49.0495 H         1 UNK         0.1150 
    139 H139        2.6642  -21.1348  -48.6674 H         1 UNK         0.0800 
    140 H140        4.0120  -20.0467  -48.4772 H         1 UNK         0.0800 
    141 H141        0.1761  -19.1627  -48.3766 H         1 UNK         0.0800 
    142 H142       -0.1343  -18.9741  -46.6732 H         1 UNK         0.0800 
    143 H143        0.4169  -21.6103  -48.1116 H         1 UNK         0.0600 
    144 H144        0.6213  -21.1367  -45.3200 H         1 UNK         0.3000 
    145 H145       -0.1556  -24.4681  -44.2743 H         1 UNK         0.0600 
    146 H146        2.0947  -24.1996  -43.2331 H         1 UNK         0.0600 
    147 H147        2.2274  -24.5687  -44.9458 H         1 UNK         0.0600 
    148 H148        2.4919  -22.9241  -44.3843 H         1 UNK         0.0600 
    149 H149        0.6446  -22.0076  -42.9665 H         1 UNK         0.3000 
    150 H150       -2.6759  -20.8634  -42.3052 H         1 UNK         0.0600 
    151 H151       -2.2490  -22.5960  -40.5527 H         1 UNK         0.0600 
    152 H152       -1.8680  -20.9850  -39.9662 H         1 UNK         0.0600 
    153 H153       -0.5699  -22.0824  -40.4377 H         1 UNK         0.0600 
    154 H154       -0.1421  -19.8643  -41.4936 H         1 UNK         0.3000 
    155 H155        0.6853  -18.0093  -44.3792 H         1 UNK         0.0600 
    156 H156        0.4678  -16.0489  -42.9072 H         1 UNK         0.0600 
    157 H157       -0.5078  -16.9568  -41.7540 H         1 UNK         0.0600 
    158 H158       -1.1324  -16.6002  -43.3558 H         1 UNK         0.0600 
    159 H159        1.8360  -17.7797  -41.8841 H         1 UNK         0.3000 
    160 H160        3.6192  -20.4374  -41.3037 H         1 UNK         0.0600 
    161 H161        5.0804  -18.7841  -43.4265 H         1 UNK         0.0600 
    162 H162        4.9402  -20.5331  -43.3731 H         1 UNK         0.0600 
    163 H163        5.8610  -19.6960  -42.1340 H         1 UNK         0.0600 
    164 H164        3.7406  -18.7231  -39.9464 H         1 UNK         0.3000 
    165 H165        3.2201  -16.5885  -39.2163 H         1 UNK         0.0600 
    166 H166        6.1926  -16.0848  -39.7657 H         1 UNK         0.0600 
    167 H167        5.3665  -15.6643  -38.2647 H         1 UNK         0.0600 
    168 H168        5.5000  -17.3429  -38.7605 H         1 UNK         0.0600 
    169 H169        2.6673  -14.6002  -39.9663 H         1 UNK         0.3000 
    170 H170        2.8274  -12.4234  -40.2972 H         1 UNK         0.0600 
    171 H171        5.0317  -11.2855  -39.9924 H         1 UNK         0.0600 
    172 H172        5.3259  -11.3655  -41.7254 H         1 UNK         0.0600 
    173 H173        3.9901  -10.4024  -41.0976 H         1 UNK         0.0600 
    174 H174        3.5518  -12.2012  -43.1282 H         1 UNK         0.3000 
    175 H175        1.7465  -12.3625  -44.6372 H         1 UNK         0.0600 
    176 H176        2.2261  -15.3908  -44.4730 H         1 UNK         0.0600 
    177 H177        2.2887  -14.4060  -45.9324 H         1 UNK         0.0600 
    178 H178        3.4859  -14.1856  -44.6753 H         1 UNK         0.0600 
    179 H179       -0.0576  -14.5720  -44.8370 H         1 UNK         0.3000 
    180 H180       -2.7211  -13.7575  -43.5588 H         1 UNK         0.0600 
    181 H181       -2.8951  -11.7336  -45.8556 H         1 UNK         0.0600 
    182 H182       -3.3627  -11.4487  -44.1814 H         1 UNK         0.0600 
    183 H183       -4.2681  -12.5915  -45.1578 H         1 UNK         0.0600 
    184 H184       -1.8728  -14.1195  -46.4035 H         1 UNK         0.3000 
    185 H185       -2.1776  -17.5259  -46.1439 H         1 UNK         0.0600 
    186 H186       -4.6441  -17.2735  -46.5990 H         1 UNK         0.0600 
    187 H187       -4.2827  -16.0741  -47.8322 H         1 UNK         0.0600 
    188 H188       -3.7340  -17.7401  -48.0248 H         1 UNK         0.0600 
    189 H189       -1.9877  -15.8143  -48.4502 H         1 UNK         0.3000 
    190 H190       -2.0052  -20.5067  -45.7092 H         1 UNK         0.3000 
    191 H191       -4.1812  -20.2682  -47.4824 H         1 UNK         0.0600 
    192 H192       -4.1448  -20.8291  -44.4704 H         1 UNK         0.0600 
    193 H193       -5.5415  -20.2722  -45.3838 H         1 UNK         0.0600 
    194 H194       -4.1261  -19.2417  -45.2275 H         1 UNK         0.0600 
    195 H195       -3.2910  -23.0384  -45.3310 H         1 UNK         0.3000 
    196 H196       -5.5861  -24.5691  -46.2371 H         1 UNK         0.0600 
    197 H197       -4.8143  -26.2048  -44.5596 H         1 UNK         0.0600 
    198 H198       -4.8478  -24.5876  -43.8732 H         1 UNK         0.0600 
    199 H199       -3.3125  -25.3188  -44.3338 H         1 UNK         0.0600 
    200 H200       -1.9914  -25.0574  -46.4990 H         1 UNK         0.3000 
    201 H201       -2.4613  -27.5821  -47.9199 H         1 UNK         0.0600 
    202 H202       -0.7822  -27.4423  -46.0811 H         1 UNK         0.0600 
    203 H203        0.1724  -26.3061  -47.0316 H         1 UNK         0.0600 
    204 H204       -0.0703  -27.9452  -47.6058 H         1 UNK         0.0600 
    205 H205       -0.8471  -24.4257  -48.5801 H         1 UNK         0.3000 
    206 H206       -0.2757  -25.1755  -51.3494 H         1 UNK         0.0600 
    207 H207        1.1705  -23.6154  -49.9029 H         1 UNK         0.0600 
    208 H208        0.7943  -23.0604  -51.5285 H         1 UNK         0.0600 
    209 H209       -0.0655  -22.3796  -50.1666 H         1 UNK         0.0600 
    210 H210       -2.9737  -23.8445  -49.7136 H         1 UNK         0.3000 
    211 H211       -4.9882  -23.1365  -50.2667 H         1 UNK         0.0600 
    212 H212       -4.4754  -24.1261  -53.1112 H         1 UNK         0.0600 
    213 H213       -6.0387  -23.8266  -52.3578 H         1 UNK         0.0600 
    214 H214       -5.0247  -25.1334  -51.7728 H         1 UNK         0.0600 
    215 H215       -2.8236  -21.2583  -50.3140 H         1 UNK         0.3000 
    216 H216       -3.0919  -19.3796  -52.4530 H         1 UNK         0.0600 
    217 H217       -1.1015  -19.5728  -50.8877 H         1 UNK         0.0600 
    218 H218       -2.0850  -18.8711  -49.6023 H         1 UNK         0.0600 
    219 H219       -1.7234  -17.9391  -51.0513 H         1 UNK         0.0600 
    220 H220       -4.9745  -19.9427  -49.5618 H         1 UNK         0.3000 
    221 H221       -6.3085  -17.4023  -49.3702 H         1 UNK         0.0600 
    222 H222       -7.0881  -20.2027  -48.3896 H         1 UNK         0.0600 
    223 H223       -6.2490  -18.9579  -47.4634 H         1 UNK         0.0600 
    224 H224       -7.9172  -18.7165  -47.9420 H         1 UNK         0.0600 
    225 H225       -6.7587  -20.2219  -51.4168 H         1 UNK         0.3000 
    226 H226       -9.3326  -19.2326  -52.5309 H         1 UNK         0.0600 
    227 H227       -9.1374  -21.6582  -51.9297 H         1 UNK         0.0600 
    228 H228       -9.3485  -21.4428  -53.6593 H         1 UNK         0.0600 
    229 H229       -7.7571  -21.8215  -53.0144 H         1 UNK         0.0600 
    230 H230       -6.1138  -18.5886  -52.9219 H         1 UNK         0.3000 
    231 H231       -4.6799  -17.9310  -54.4519 H         1 UNK         0.0600 
    232 H232       -5.4540  -16.5780  -56.3556 H         1 UNK         0.0600 
    233 H233       -6.4201  -16.1941  -54.9411 H         1 UNK         0.0600 
    234 H234       -7.0846  -17.2186  -56.2132 H         1 UNK         0.0600 
    235 H235       -5.2551  -20.7028  -54.3445 H         1 UNK         0.3000 
    236 H236       -5.0895  -21.6685  -57.1628 H         1 UNK         0.0600 
    237 H237       -7.0830  -22.3924  -55.8763 H         1 UNK         0.0600 
    238 H238       -6.0376  -23.7577  -56.2307 H         1 UNK         0.0600 
    239 H239       -6.0513  -23.0559  -54.6162 H         1 UNK         0.0600 
    240 H240       -2.8075  -20.5697  -55.7550 H         1 UNK         0.3000 
    241 H241       -0.9517  -22.5260  -54.8966 H         1 UNK         0.0600 
    242 H242        0.4610  -23.9613  -56.0005 H         1 UNK         0.3800 
    243 H243        0.4618  -24.1302  -57.7327 H         1 UNK         0.3800 
    244 H244        0.7598  -20.7874  -55.8383 H         1 UNK         0.0800 
    245 H245       -0.6085  -19.8145  -56.2739 H         1 UNK         0.0800 
    246 H246        2.0578  -19.7429  -54.2343 H         1 UNK         0.0800 
    247 H247        1.6396  -21.1607  -53.3044 H         1 UNK         0.0800 
@<TRIPOS>BOND
     1    1    2 1    
     2    1  127 1    
     3    1  128 1    
     4    1  129 1    
     5    2    3 2    
     6    2    4 am   BACKBONE|DICT|INTERRES
     7    4    5 1    
     8    4  130 1    
     9    5    6 1    
    10    5   65 1    
    11    5  131 1    
    12    6    7 1    
    13    6  132 1    
    14    6  133 1    
    15    7    8 1    
    16    8    9 1    
    17    8  134 1    
    18    8  135 1    
    19    9   10 ar   
    20    9   14 ar   
    21   10   11 ar   
    22   10  136 1    
    23   11   12 ar   
    24   11  126 1    
    25   12   13 ar   
    26   12  137 1    
    27   13   14 ar   
    28   13   15 1    
    29   14  138 1    
    30   15   16 1    
    31   15  139 1    
    32   15  140 1    
    33   16   17 1    
    34   17   18 1    
    35   17  141 1    
    36   17  142 1    
    37   18   19 1    
    38   18   67 1    
    39   18  143 1    
    40   19   20 am   BACKBONE|DICT|INTERRES
    41   19  144 1    
    42   20   21 2    
    43   20   22 1    
    44   22   23 1    
    45   22   24 1    
    46   22  145 1    
    47   23  146 1    
    48   23  147 1    
    49   23  148 1    
    50   24   25 am   BACKBONE|DICT|INTERRES
    51   24  149 1    
    52   25   26 2    
    53   25   27 1    
    54   27   28 1    
    55   27   29 1    
    56   27  150 1    
    57   28  151 1    
    58   28  152 1    
    59   28  153 1    
    60   29   30 am   BACKBONE|DICT|INTERRES
    61   29  154 1    
    62   30   31 2    
    63   30   32 1    
    64   32   33 1    
    65   32   34 1    
    66   32  155 1    
    67   33  156 1    
    68   33  157 1    
    69   33  158 1    
    70   34   35 am   BACKBONE|DICT|INTERRES
    71   34  159 1    
    72   35   36 2    
    73   35   37 1    
    74   37   38 1    
    75   37   39 1    
    76   37  160 1    
    77   38  161 1    
    78   38  162 1    
    79   38  163 1    
    80   39   40 am   BACKBONE|DICT|INTERRES
    81   39  164 1    
    82   40   41 2    
    83   40   42 1    
    84   42   43 1    
    85   42   44 1    
    86   42  165 1    
    87   43  166 1    
    88   43  167 1    
    89   43  168 1    
    90   44   45 am   BACKBONE|DICT|INTERRES
    91   44  169 1    
    92   45   46 2    
    93   45   47 1    
    94   47   48 1    
    95   47   49 1    
    96   47  170 1    
    97   48  171 1    
    98   48  172 1    
    99   48  173 1    
   100   49   50 am   BACKBONE|DICT|INTERRES
   101   49  174 1    
   102   50   51 2    
   103   50   52 1    
   104   52   53 1    
   105   52   54 1    
   106   52  175 1    
   107   53  176 1    
   108   53  177 1    
   109   53  178 1    
   110   54   55 am   BACKBONE|DICT|INTERRES
   111   54  179 1    
   112   55   56 2    
   113   55   57 1    
   114   57   58 1    
   115   57   59 1    
   116   57  180 1    
   117   58  181 1    
   118   58  182 1    
   119   58  183 1    
   120   59   60 am   BACKBONE|DICT|INTERRES
   121   59  184 1    
   122   60   61 2    
   123   60   62 1    
   124   62   63 1    
   125   62   64 1    
   126   62  185 1    
   127   63  186 1    
   128   63  187 1    
   129   63  188 1    
   130   64   65 am   BACKBONE|DICT|INTERRES
   131   64  189 1    
   132   65   66 2    
   133   67   68 2    
   134   67   69 am   BACKBONE|DICT|INTERRES
   135   69   70 1    
   136   69  190 1    
   137   70   71 1    
   138   70   72 1    
   139   70  191 1    
   140   71  192 1    
   141   71  193 1    
   142   71  194 1    
   143   72   73 2    
   144   72   74 am   BACKBONE|DICT|INTERRES
   145   74   75 1    
   146   74  195 1    
   147   75   76 1    
   148   75   77 1    
   149   75  196 1    
   150   76  197 1    
   151   76  198 1    
   152   76  199 1    
   153   77   78 2    
   154   77   79 am   BACKBONE|DICT|INTERRES
   155   79   80 1    
   156   79  200 1    
   157   80   81 1    
   158   80   82 1    
   159   80  201 1    
   160   81  202 1    
   161   81  203 1    
   162   81  204 1    
   163   82   83 2    
   164   82   84 am   BACKBONE|DICT|INTERRES
   165   84   85 1    
   166   84  205 1    
   167   85   86 1    
   168   85   87 1    
   169   85  206 1    
   170   86  207 1    
   171   86  208 1    
   172   86  209 1    
   173   87   88 2    
   174   87   89 am   BACKBONE|DICT|INTERRES
   175   89   90 1    
   176   89  210 1    
   177   90   91 1    
   178   90   92 1    
   179   90  211 1    
   180   91  212 1    
   181   91  213 1    
   182   91  214 1    
   183   92   93 2    
   184   92   94 am   BACKBONE|DICT|INTERRES
   185   94   95 1    
   186   94  215 1    
   187   95   96 1    
   188   95   97 1    
   189   95  216 1    
   190   96  217 1    
   191   96  218 1    
   192   96  219 1    
   193   97   98 2    
   194   97   99 am   BACKBONE|DICT|INTERRES
   195   99  100 1    
   196   99  220 1    
   197  100  101 1    
   198  100  102 1    
   199  100  221 1    
   200  101  222 1    
   201  101  223 1    
   202  101  224 1    
   203  102  103 2    
   204  102  104 am   BACKBONE|DICT|INTERRES
   205  104  105 1    
   206  104  225 1    
   207  105  106 1    
   208  105  107 1    
   209  105  226 1    
   210  106  227 1    
   211  106  228 1    
   212  106  229 1    
   213  107  108 2    
   214  107  109 am   BACKBONE|DICT|INTERRES
   215  109  110 1    
   216  109  230 1    
   217  110  111 1    
   218  110  112 1    
   219  110  231 1    
   220  111  232 1    
   221  111  233 1    
   222  111  234 1    
   223  112  113 2    
   224  112  114 am   BACKBONE|DICT|INTERRES
   225  114  115 1    
   226  114  235 1    
   227  115  116 1    
   228  115  117 1    
   229  115  236 1    
   230  116  237 1    
   231  116  238 1    
   232  116  239 1    
   233  117  118 2    
   234  117  119 am   BACKBONE|DICT|INTERRES
   235  119  120 1    
   236  119  240 1    
   237  120  121 1    
   238  120  124 1    
   239  120  241 1    
   240  121  122 am   BACKBONE|DICT|INTERRES
   241  121  123 2    
   242  122  242 1    
   243  122  243 1    
   244  124  125 1    
   245  124  244 1    
   246  124  245 1    
   247  125  126 1    
   248  126  246 1    
   249  126  247 1    
@<TRIPOS>SUBSTRUCTURE
     1 UNK         1 GROUP             0       ****    0 ROOT    
