@<TRIPOS>MOLECULE
3R540
247   249    1
SMALL
USER_CHARGES


@<TRIPOS>ATOM
      1 CA          4.7779  -19.1596  -41.1965 C.3       0 UNK        -0.1800 
      2 C           4.4644  -18.1584  -42.2990 C.2       0 UNK         0.5000 
      3 O           5.3802  -17.6726  -42.9623 O.2       0 UNK        -0.5000 
      4 N           3.1735  -17.8520  -42.4945 N.am      1 UNK        -0.5000 
      5 CA          2.6500  -16.9105  -43.4967 C.3       1 UNK         0.1400 
      6 C6          2.9430  -17.3639  -44.9596 C.3       23 UNK        -0.0398 
      7 S7          1.4717  -17.3326  -46.0374 S.3       23 UNK        -0.2404 
      8 C8          2.2797  -17.5643  -47.6496 C.3       23 UNK        -0.0205 
      9 C9          1.2818  -17.8215  -48.7687 C.ar      23 UNK        -0.0193 
     10 C10         0.6017  -16.7491  -49.3468 C.ar      23 UNK        -0.1150 
     11 C11        -0.2352  -16.9448  -50.4459 C.ar      23 UNK        -0.0193 
     12 C12        -0.4183  -18.2333  -50.9509 C.ar      23 UNK        -0.1150 
     13 C13         0.2422  -19.3211  -50.3746 C.ar      23 UNK        -0.0193 
     14 C14         1.0885  -19.1102  -49.2796 C.ar      23 UNK        -0.1150 
     15 C15         0.0832  -20.7121  -50.9748 C.3       23 UNK        -0.0205 
     16 S16        -1.6381  -21.3121  -50.9418 S.3       23 UNK        -0.2404 
     17 C17        -1.9593  -21.3640  -49.1534 C.3       23 UNK        -0.0398 
     18 CA         -1.1651  -22.4766  -48.4107 C.3       11 UNK         0.1400 
     19 N          -0.2438  -21.9272  -47.4126 N.am      11 UNK        -0.5000 
     20 C           0.6866  -22.6282  -46.7479 C.2       10 UNK         0.5000 
     21 O           0.9371  -23.8114  -46.9679 O.2       10 UNK        -0.5000 
     22 CA          1.4153  -21.9000  -45.6026 C.3       10 UNK         0.1400 
     23 CB          2.7316  -21.2800  -46.0873 C.3       10 UNK        -0.1800 
     24 N           0.5797  -20.8672  -44.9866 N.am      10 UNK        -0.5000 
     25 C          -0.4906  -21.1391  -44.2261 C.2       9 UNK         0.5000 
     26 O          -0.8381  -22.2803  -43.9209 O.2       9 UNK        -0.5000 
     27 CA         -1.3453  -19.9358  -43.7937 C.3       9 UNK         0.1400 
     28 CB         -0.7190  -19.2322  -42.5811 C.3       9 UNK        -0.1800 
     29 N          -1.5364  -18.9646  -44.8742 N.am      9 UNK        -0.5000 
     30 C          -2.2355  -19.1906  -45.9961 C.2       8 UNK         0.5000 
     31 O          -2.7482  -20.2803  -46.2529 O.2       8 UNK        -0.5000 
     32 CA         -2.3444  -18.0379  -47.0218 C.3       8 UNK         0.1400 
     33 CB         -3.7413  -17.9672  -47.6710 C.3       8 UNK        -0.1800 
     34 N          -1.9201  -16.7329  -46.5013 N.am      8 UNK        -0.5000 
     35 C          -2.4967  -15.9987  -45.5376 C.2       7 UNK         0.5000 
     36 O          -3.5587  -16.2847  -44.9857 O.2       7 UNK        -0.5000 
     37 CA         -1.7003  -14.7725  -45.0541 C.3       7 UNK         0.1400 
     38 CB         -0.8551  -15.1726  -43.8326 C.3       7 UNK        -0.1800 
     39 N          -0.8149  -14.2233  -46.0850 N.am      7 UNK        -0.5000 
     40 C          -1.2315  -13.4689  -47.1137 C.2       6 UNK         0.5000 
     41 O          -2.4140  -13.1809  -47.3018 O.2       6 UNK        -0.5000 
     42 CA         -0.1537  -12.9386  -48.0803 C.3       6 UNK         0.1400 
     43 CB         -0.4373  -11.4963  -48.5361 C.3       6 UNK        -0.1800 
     44 N           1.1753  -12.9911  -47.4718 N.am      6 UNK        -0.5000 
     45 C           2.2948  -13.4206  -48.0692 C.2       5 UNK         0.5000 
     46 O           2.3349  -13.8307  -49.2296 O.2       5 UNK        -0.5000 
     47 CA          3.5833  -13.3857  -47.2181 C.3       5 UNK         0.1400 
     48 CB          4.8740  -13.4293  -48.0628 C.3       5 UNK        -0.1800 
     49 N           3.6067  -12.2666  -46.2683 N.am      5 UNK        -0.5000 
     50 C           3.5600  -10.9590  -46.5717 C.2       4 UNK         0.5000 
     51 O           3.6031  -10.5250  -47.7242 O.2       4 UNK        -0.5000 
     52 CA          3.4272   -9.9693  -45.3930 C.3       4 UNK         0.1400 
     53 CB          2.7253   -8.6590  -45.8075 C.3       4 UNK        -0.1800 
     54 N           2.7796  -10.5207  -44.1960 N.am      4 UNK        -0.5000 
     55 C           1.5547  -11.0542  -44.0870 C.2       3 UNK         0.5000 
     56 O           0.8200  -11.2967  -45.0462 O.2       3 UNK        -0.5000 
     57 CA          1.1109  -11.4106  -42.6534 C.3       3 UNK         0.1400 
     58 CB         -0.4080  -11.6319  -42.5362 C.3       3 UNK        -0.1800 
     59 N           1.8281  -12.5876  -42.1564 N.am      3 UNK        -0.5000 
     60 C           3.1010  -12.5779  -41.7356 C.2       2 UNK         0.5000 
     61 O           3.7830  -11.5530  -41.6742 O.2       2 UNK        -0.5000 
     62 CA          3.7374  -13.9176  -41.3186 C.3       2 UNK         0.1400 
     63 CB          3.7500  -14.0466  -39.7875 C.3       2 UNK        -0.1800 
     64 N           3.1325  -15.1270  -41.8849 N.am      2 UNK        -0.5000 
     65 C           3.0563  -15.4460  -43.1862 C.2       1 UNK         0.5000 
     66 O           3.3029  -14.6525  -44.0953 O.2       1 UNK        -0.5000 
     67 C          -2.1056  -23.5139  -47.7713 C.2       11 UNK         0.5000 
     68 O          -2.2555  -24.6095  -48.3092 O.2       11 UNK        -0.5000 
     69 N          -2.6915  -23.1668  -46.6173 N.am      12 UNK        -0.5000 
     70 CA         -3.5447  -24.0502  -45.8221 C.3       12 UNK         0.1400 
     71 CB         -4.1864  -23.2543  -44.6765 C.3       12 UNK        -0.1800 
     72 C          -2.7956  -25.2874  -45.2967 C.2       12 UNK         0.5000 
     73 O          -3.3388  -26.3904  -45.3588 O.2       12 UNK        -0.5000 
     74 N          -1.5498  -25.0930  -44.8410 N.am      13 UNK        -0.5000 
     75 CA         -0.6563  -26.1629  -44.3901 C.3       13 UNK         0.1400 
     76 CB          0.5895  -25.5474  -43.7358 C.3       13 UNK        -0.1800 
     77 C          -0.2565  -27.1344  -45.5193 C.2       13 UNK         0.5000 
     78 O          -0.2172  -28.3444  -45.2941 O.2       13 UNK        -0.5000 
     79 N           0.0122  -26.5924  -46.7149 N.am      14 UNK        -0.5000 
     80 CA          0.3723  -27.3490  -47.9172 C.3       14 UNK         0.1400 
     81 CB          1.0961  -26.4037  -48.8902 C.3       14 UNK        -0.1800 
     82 C          -0.8294  -28.0085  -48.6246 C.2       14 UNK         0.5000 
     83 O          -0.6168  -28.8290  -49.5178 O.2       14 UNK        -0.5000 
     84 N          -2.0548  -27.6094  -48.2513 N.am      15 UNK        -0.5000 
     85 CA         -3.3388  -27.9259  -48.8928 C.3       15 UNK         0.1400 
     86 CB         -3.6266  -29.4413  -48.8830 C.3       15 UNK        -0.1800 
     87 C          -3.4913  -27.2907  -50.2949 C.2       15 UNK         0.5000 
     88 O          -4.3342  -27.7191  -51.0842 O.2       15 UNK        -0.5000 
     89 N          -2.7053  -26.2394  -50.5591 N.am      16 UNK        -0.5000 
     90 CA         -2.7614  -25.3937  -51.7505 C.3       16 UNK         0.1400 
     91 CB         -1.3747  -24.7784  -51.9843 C.3       16 UNK        -0.1800 
     92 C          -3.8495  -24.3061  -51.6441 C.2       16 UNK         0.5000 
     93 O          -4.1638  -23.6601  -52.6446 O.2       16 UNK        -0.5000 
     94 N          -4.4582  -24.1553  -50.4572 N.am      17 UNK        -0.5000 
     95 CA         -5.6211  -23.3020  -50.1876 C.3       17 UNK         0.1400 
     96 CB         -5.8870  -23.2685  -48.6760 C.3       17 UNK        -0.1800 
     97 C          -6.8992  -23.7009  -50.9600 C.2       17 UNK         0.5000 
     98 O          -7.8548  -22.9263  -50.9858 O.2       17 UNK        -0.5000 
     99 N          -6.8915  -24.8760  -51.6059 N.am      18 UNK        -0.5000 
    100 CA        -7.8712  -25.2744  -52.6171 C.3       18 UNK         0.1400 
    101 CB        -7.6443  -26.7504  -52.9773 C.3       18 UNK        -0.1800 
    102 C         -7.8083  -24.3897  -53.8817 C.2       18 UNK         0.5000 
    103 O         -8.8403  -24.1797  -54.5202 O.2       18 UNK        -0.5000 
    104 N         -6.6124  -23.8744  -54.2047 N.am      19 UNK        -0.5000 
    105 CA        -6.3883  -22.8743  -55.2453 C.3       19 UNK         0.1400 
    106 CB        -5.0547  -23.1544  -55.9584 C.3       19 UNK        -0.1800 
    107 C         -6.4078  -21.4628  -54.6350 C.2       19 UNK         0.5000 
    108 O         -7.1618  -20.6184  -55.1179 O.2       19 UNK        -0.5000 
    109 N         -5.6027  -21.2568  -53.5768 N.am      20 UNK        -0.5000 
    110 CA        -5.4383  -20.0243  -52.7924 C.3       20 UNK         0.1400 
    111 CB        -6.6824  -19.7579  -51.9207 C.3       20 UNK        -0.1800 
    112 C         -5.0828  -18.7986  -53.6584 C.2       20 UNK         0.5000 
    113 O         -5.9588  -17.9918  -53.9775 O.2       20 UNK        -0.5000 
    114 N         -3.7963  -18.6711  -54.0122 N.am      21 UNK        -0.5000 
    115 CA        -3.2482  -17.6261  -54.8912 C.3       21 UNK         0.1400 
    116 CB        -1.7381  -17.8597  -55.0546 C.3       21 UNK        -0.1800 
    117 C         -3.5221  -16.1669  -54.4568 C.2       21 UNK         0.5000 
    118 O         -3.5239  -15.2768  -55.3081 O.2       21 UNK        -0.5000 
    119 N         -3.7620  -15.9549  -53.1588 N.am      22 UNK        -0.5000 
    120 CA        -4.1754  -14.6829  -52.5423 C.3       22 UNK         0.1400 
    121 C         -5.5939  -14.7482  -51.9000 C.2       22 UNK         0.5000 
    122 N         -6.4064  -15.7620  -52.1760 N.am      22 UNK        -0.7600 
    123 O         -5.9854  -13.8495  -51.1602 O.2       22 UNK        -0.5000 
    124 C124       -3.0900  -14.1238  -51.5801 C.3       23 UNK        -0.0398 
    125 S125       -2.4802  -15.3365  -50.3563 S.3       23 UNK        -0.2404 
    126 C126       -0.8911  -15.7583  -51.1252 C.3       23 UNK        -0.0205 
    127 H127        5.4202  -18.7005  -40.4450 H         1 UNK         0.0600 
    128 H128        5.2991  -20.0226  -41.6111 H         1 UNK         0.0600 
    129 H129        3.8741  -19.5147  -40.7007 H         1 UNK         0.0600 
    130 H130        2.4791  -18.2918  -41.9068 H         1 UNK         0.3000 
    131 H131        1.5745  -16.9387  -43.3392 H         1 UNK         0.0600 
    132 H132        3.3007  -18.3938  -44.9707 H         1 UNK         0.0800 
    133 H133        3.7494  -16.7856  -45.4141 H         1 UNK         0.0800 
    134 H134        2.9976  -18.3825  -47.5908 H         1 UNK         0.0800 
    135 H135        2.8635  -16.6731  -47.8852 H         1 UNK         0.0800 
    136 H136        0.7510  -15.7542  -48.9611 H         1 UNK         0.1150 
    137 H137       -1.0602  -18.3908  -51.8054 H         1 UNK         0.1150 
    138 H138        1.6244  -19.9446  -48.8523 H         1 UNK         0.1150 
    139 H139        0.7262  -21.4310  -50.4653 H         1 UNK         0.0800 
    140 H140        0.4218  -20.6858  -52.0113 H         1 UNK         0.0800 
    141 H141       -3.0389  -21.4643  -49.0252 H         1 UNK         0.0800 
    142 H142       -1.7269  -20.3797  -48.7540 H         1 UNK         0.0800 
    143 H143       -0.5507  -23.0242  -49.1272 H         1 UNK         0.0600 
    144 H144       -0.4074  -20.9751  -47.1267 H         1 UNK         0.3000 
    145 H145        1.6583  -22.6435  -44.8411 H         1 UNK         0.0600 
    146 H146        3.3696  -22.0325  -46.5527 H         1 UNK         0.0600 
    147 H147        3.2919  -20.8489  -45.2577 H         1 UNK         0.0600 
    148 H148        2.5592  -20.4966  -46.8214 H         1 UNK         0.0600 
    149 H149        0.7998  -19.9051  -45.1988 H         1 UNK         0.3000 
    150 H150       -2.3280  -20.3124  -43.5018 H         1 UNK         0.0600 
    151 H151        0.2744  -18.8477  -42.8083 H         1 UNK         0.0600 
    152 H152       -0.6193  -19.9210  -41.7411 H         1 UNK         0.0600 
    153 H153       -1.3356  -18.3981  -42.2453 H         1 UNK         0.0600 
    154 H154       -1.1341  -18.0499  -44.7448 H         1 UNK         0.3000 
    155 H155       -1.6314  -18.2706  -47.8126 H         1 UNK         0.0600 
    156 H156       -3.8083  -17.1414  -48.3781 H         1 UNK         0.0600 
    157 H157       -4.5283  -17.8366  -46.9282 H         1 UNK         0.0600 
    158 H158       -3.9634  -18.8819  -48.2218 H         1 UNK         0.0600 
    159 H159       -1.0451  -16.3914  -46.8732 H         1 UNK         0.3000 
    160 H160       -2.4043  -13.9941  -44.7517 H         1 UNK         0.0600 
    161 H161       -0.3948  -16.1484  -43.9705 H         1 UNK         0.0600 
    162 H162       -1.4761  -15.2351  -42.9383 H         1 UNK         0.0600 
    163 H163       -0.0550  -14.4623  -43.6325 H         1 UNK         0.0600 
    164 H164        0.1714  -14.4172  -45.9974 H         1 UNK         0.3000 
    165 H165       -0.1902  -13.5845  -48.9582 H         1 UNK         0.0600 
    166 H166       -1.3983  -11.4245  -49.0468 H         1 UNK         0.0600 
    167 H167       -0.4577  -10.8084  -47.6898 H         1 UNK         0.0600 
    168 H168        0.3256  -11.1471  -49.2322 H         1 UNK         0.0600 
    169 H169        1.2374  -12.5841  -46.5426 H         1 UNK         0.3000 
    170 H170        3.5632  -14.2978  -46.6225 H         1 UNK         0.0600 
    171 H171        5.7602  -13.4095  -47.4287 H         1 UNK         0.0600 
    172 H172        4.9368  -12.5899  -48.7555 H         1 UNK         0.0600 
    173 H173        4.9210  -14.3438  -48.6551 H         1 UNK         0.0600 
    174 H174        3.5585  -12.5324  -45.2930 H         1 UNK         0.3000 
    175 H175        4.4469   -9.7188  -45.0976 H         1 UNK         0.0600 
    176 H176        1.7143   -8.8433  -46.1730 H         1 UNK         0.0600 
    177 H177        3.2737   -8.1507  -46.6015 H         1 UNK         0.0600 
    178 H178        2.6578   -7.9651  -44.9697 H         1 UNK         0.0600 
    179 H179        3.3287  -10.4754  -43.3431 H         1 UNK         0.3000 
    180 H180        1.3565  -10.5602  -42.0135 H         1 UNK         0.0600 
    181 H181       -0.7729  -12.3933  -43.2223 H         1 UNK         0.0600 
    182 H182       -0.9459  -10.7123  -42.7693 H         1 UNK         0.0600 
    183 H183       -0.6904  -11.9241  -41.5247 H         1 UNK         0.0600 
    184 H184        1.3443  -13.4713  -42.1959 H         1 UNK         0.3000 
    185 H185        4.7736  -13.8906  -41.6620 H         1 UNK         0.0600 
    186 H186        4.2249  -13.1808  -39.3238 H         1 UNK         0.0600 
    187 H187        2.7398  -14.1225  -39.3831 H         1 UNK         0.0600 
    188 H188        4.3075  -14.9278  -39.4693 H         1 UNK         0.0600 
    189 H189        2.8960  -15.8468  -41.2180 H         1 UNK         0.3000 
    190 H190       -2.5640  -22.2206  -46.2704 H         1 UNK         0.3000 
    191 H191       -4.3455  -24.4118  -46.4686 H         1 UNK         0.0600 
    192 H192       -4.7680  -22.4152  -45.0592 H         1 UNK         0.0600 
    193 H193       -4.8632  -23.8828  -44.0965 H         1 UNK         0.0600 
    194 H194       -3.4391  -22.8565  -43.9903 H         1 UNK         0.0600 
    195 H195       -1.2010  -24.1428  -44.7750 H         1 UNK         0.3000 
    196 H196       -1.1874  -26.7389  -43.6294 H         1 UNK         0.0600 
    197 H197        1.2345  -26.3231  -43.3214 H         1 UNK         0.0600 
    198 H198        0.3182  -24.8779  -42.9192 H         1 UNK         0.0600 
    199 H199        1.1815  -24.9794  -44.4530 H         1 UNK         0.0600 
    200 H200        0.0256  -25.5807  -46.8016 H         1 UNK         0.3000 
    201 H201        1.0646  -28.1453  -47.6364 H         1 UNK         0.0600 
    202 H202        1.4090  -26.9292  -49.7933 H         1 UNK         0.0600 
    203 H203        1.9923  -25.9812  -48.4354 H         1 UNK         0.0600 
    204 H204        0.4549  -25.5762  -49.1970 H         1 UNK         0.0600 
    205 H205       -2.1029  -26.9109  -47.5207 H         1 UNK         0.3000 
    206 H206       -4.0977  -27.4495  -48.2707 H         1 UNK         0.0600 
    207 H207       -3.4960  -29.8609  -47.8855 H         1 UNK         0.0600 
    208 H208       -4.6541  -29.6439  -49.1871 H         1 UNK         0.0600 
    209 H209       -2.9746  -29.9857  -49.5661 H         1 UNK         0.0600 
    210 H210       -2.1257  -25.8964  -49.8001 H         1 UNK         0.3000 
    211 H211       -3.0087  -26.0115  -52.6160 H         1 UNK         0.0600 
    212 H212       -0.6349  -25.5510  -52.1944 H         1 UNK         0.0600 
    213 H213       -1.3826  -24.0950  -52.8346 H         1 UNK         0.0600 
    214 H214       -1.0310  -24.2205  -51.1146 H         1 UNK         0.0600 
    215 H215       -4.1026  -24.6951  -49.6802 H         1 UNK         0.3000 
    216 H216       -5.3616  -22.2912  -50.5061 H         1 UNK         0.0600 
    217 H217       -6.0420  -24.2695  -48.2722 H         1 UNK         0.0600 
    218 H218       -6.7756  -22.6798  -48.4440 H         1 UNK         0.0600 
    219 H219       -5.0574  -22.8066  -48.1436 H         1 UNK         0.0600 
    220 H220       -6.0857  -25.4749  -51.4996 H         1 UNK         0.3000 
    221 H221       -8.8693  -25.1731  -52.1860 H         1 UNK         0.0600 
    222 H222       -6.6497  -26.9151  -53.3941 H         1 UNK         0.0600 
    223 H223       -7.7500  -27.3909  -52.1015 H         1 UNK         0.0600 
    224 H224       -8.3715  -27.0882  -53.7168 H         1 UNK         0.0600 
    225 H225       -5.8191  -24.0652  -53.6024 H         1 UNK         0.3000 
    226 H226       -7.1812  -22.9314  -55.9943 H         1 UNK         0.0600 
    227 H227       -5.0608  -24.1387  -56.4266 H         1 UNK         0.0600 
    228 H228       -4.8741  -22.4212  -56.7454 H         1 UNK         0.0600 
    229 H229       -4.2057  -23.1166  -55.2754 H         1 UNK         0.0600 
    230 H230       -5.0141  -22.0328  -53.2868 H         1 UNK         0.3000 
    231 H231       -4.5990  -20.1940  -52.1158 H         1 UNK         0.0600 
    232 H232       -7.5908  -19.6774  -52.5184 H         1 UNK         0.0600 
    233 H233       -6.5757  -18.8275  -51.3615 H         1 UNK         0.0600 
    234 H234       -6.8334  -20.5483  -51.1896 H         1 UNK         0.0600 
    235 H235       -3.1438  -19.3803  -53.7106 H         1 UNK         0.3000 
    236 H236       -3.7175  -17.7561  -55.8684 H         1 UNK         0.0600 
    237 H237       -1.2111  -17.7683  -54.1050 H         1 UNK         0.0600 
    238 H238       -1.5318  -18.8502  -55.4606 H         1 UNK         0.0600 
    239 H239       -1.3019  -17.1328  -55.7412 H         1 UNK         0.0600 
    240 H240       -3.7392  -16.7449  -52.5316 H         1 UNK         0.3000 
    241 H241       -4.2952  -13.9374  -53.3299 H         1 UNK         0.0600 
    242 H242       -6.1521  -16.4804  -52.8484 H         1 UNK         0.3800 
    243 H243       -7.3243  -15.7774  -51.7613 H         1 UNK         0.3800 
    244 H244       -2.2481  -13.7613  -52.1710 H         1 UNK         0.0800 
    245 H245       -3.4522  -13.2453  -51.0437 H         1 UNK         0.0800 
    246 H246       -1.0424  -15.9780  -52.1830 H         1 UNK         0.0800 
    247 H247       -0.2269  -14.8935  -51.0860 H         1 UNK         0.0800 
@<TRIPOS>BOND
     1    1    2 1    
     2    1  127 1    
     3    1  128 1    
     4    1  129 1    
     5    2    3 2    
     6    2    4 am   BACKBONE|DICT|INTERRES
     7    4    5 1    
     8    4  130 1    
     9    5    6 1    
    10    5   65 1    
    11    5  131 1    
    12    6    7 1    
    13    6  132 1    
    14    6  133 1    
    15    7    8 1    
    16    8    9 1    
    17    8  134 1    
    18    8  135 1    
    19    9   10 ar   
    20    9   14 ar   
    21   10   11 ar   
    22   10  136 1    
    23   11   12 ar   
    24   11  126 1    
    25   12   13 ar   
    26   12  137 1    
    27   13   14 ar   
    28   13   15 1    
    29   14  138 1    
    30   15   16 1    
    31   15  139 1    
    32   15  140 1    
    33   16   17 1    
    34   17   18 1    
    35   17  141 1    
    36   17  142 1    
    37   18   19 1    
    38   18   67 1    
    39   18  143 1    
    40   19   20 am   BACKBONE|DICT|INTERRES
    41   19  144 1    
    42   20   21 2    
    43   20   22 1    
    44   22   23 1    
    45   22   24 1    
    46   22  145 1    
    47   23  146 1    
    48   23  147 1    
    49   23  148 1    
    50   24   25 am   BACKBONE|DICT|INTERRES
    51   24  149 1    
    52   25   26 2    
    53   25   27 1    
    54   27   28 1    
    55   27   29 1    
    56   27  150 1    
    57   28  151 1    
    58   28  152 1    
    59   28  153 1    
    60   29   30 am   BACKBONE|DICT|INTERRES
    61   29  154 1    
    62   30   31 2    
    63   30   32 1    
    64   32   33 1    
    65   32   34 1    
    66   32  155 1    
    67   33  156 1    
    68   33  157 1    
    69   33  158 1    
    70   34   35 am   BACKBONE|DICT|INTERRES
    71   34  159 1    
    72   35   36 2    
    73   35   37 1    
    74   37   38 1    
    75   37   39 1    
    76   37  160 1    
    77   38  161 1    
    78   38  162 1    
    79   38  163 1    
    80   39   40 am   BACKBONE|DICT|INTERRES
    81   39  164 1    
    82   40   41 2    
    83   40   42 1    
    84   42   43 1    
    85   42   44 1    
    86   42  165 1    
    87   43  166 1    
    88   43  167 1    
    89   43  168 1    
    90   44   45 am   BACKBONE|DICT|INTERRES
    91   44  169 1    
    92   45   46 2    
    93   45   47 1    
    94   47   48 1    
    95   47   49 1    
    96   47  170 1    
    97   48  171 1    
    98   48  172 1    
    99   48  173 1    
   100   49   50 am   BACKBONE|DICT|INTERRES
   101   49  174 1    
   102   50   51 2    
   103   50   52 1    
   104   52   53 1    
   105   52   54 1    
   106   52  175 1    
   107   53  176 1    
   108   53  177 1    
   109   53  178 1    
   110   54   55 am   BACKBONE|DICT|INTERRES
   111   54  179 1    
   112   55   56 2    
   113   55   57 1    
   114   57   58 1    
   115   57   59 1    
   116   57  180 1    
   117   58  181 1    
   118   58  182 1    
   119   58  183 1    
   120   59   60 am   BACKBONE|DICT|INTERRES
   121   59  184 1    
   122   60   61 2    
   123   60   62 1    
   124   62   63 1    
   125   62   64 1    
   126   62  185 1    
   127   63  186 1    
   128   63  187 1    
   129   63  188 1    
   130   64   65 am   BACKBONE|DICT|INTERRES
   131   64  189 1    
   132   65   66 2    
   133   67   68 2    
   134   67   69 am   BACKBONE|DICT|INTERRES
   135   69   70 1    
   136   69  190 1    
   137   70   71 1    
   138   70   72 1    
   139   70  191 1    
   140   71  192 1    
   141   71  193 1    
   142   71  194 1    
   143   72   73 2    
   144   72   74 am   BACKBONE|DICT|INTERRES
   145   74   75 1    
   146   74  195 1    
   147   75   76 1    
   148   75   77 1    
   149   75  196 1    
   150   76  197 1    
   151   76  198 1    
   152   76  199 1    
   153   77   78 2    
   154   77   79 am   BACKBONE|DICT|INTERRES
   155   79   80 1    
   156   79  200 1    
   157   80   81 1    
   158   80   82 1    
   159   80  201 1    
   160   81  202 1    
   161   81  203 1    
   162   81  204 1    
   163   82   83 2    
   164   82   84 am   BACKBONE|DICT|INTERRES
   165   84   85 1    
   166   84  205 1    
   167   85   86 1    
   168   85   87 1    
   169   85  206 1    
   170   86  207 1    
   171   86  208 1    
   172   86  209 1    
   173   87   88 2    
   174   87   89 am   BACKBONE|DICT|INTERRES
   175   89   90 1    
   176   89  210 1    
   177   90   91 1    
   178   90   92 1    
   179   90  211 1    
   180   91  212 1    
   181   91  213 1    
   182   91  214 1    
   183   92   93 2    
   184   92   94 am   BACKBONE|DICT|INTERRES
   185   94   95 1    
   186   94  215 1    
   187   95   96 1    
   188   95   97 1    
   189   95  216 1    
   190   96  217 1    
   191   96  218 1    
   192   96  219 1    
   193   97   98 2    
   194   97   99 am   BACKBONE|DICT|INTERRES
   195   99  100 1    
   196   99  220 1    
   197  100  101 1    
   198  100  102 1    
   199  100  221 1    
   200  101  222 1    
   201  101  223 1    
   202  101  224 1    
   203  102  103 2    
   204  102  104 am   BACKBONE|DICT|INTERRES
   205  104  105 1    
   206  104  225 1    
   207  105  106 1    
   208  105  107 1    
   209  105  226 1    
   210  106  227 1    
   211  106  228 1    
   212  106  229 1    
   213  107  108 2    
   214  107  109 am   BACKBONE|DICT|INTERRES
   215  109  110 1    
   216  109  230 1    
   217  110  111 1    
   218  110  112 1    
   219  110  231 1    
   220  111  232 1    
   221  111  233 1    
   222  111  234 1    
   223  112  113 2    
   224  112  114 am   BACKBONE|DICT|INTERRES
   225  114  115 1    
   226  114  235 1    
   227  115  116 1    
   228  115  117 1    
   229  115  236 1    
   230  116  237 1    
   231  116  238 1    
   232  116  239 1    
   233  117  118 2    
   234  117  119 am   BACKBONE|DICT|INTERRES
   235  119  120 1    
   236  119  240 1    
   237  120  121 1    
   238  120  124 1    
   239  120  241 1    
   240  121  122 am   BACKBONE|DICT|INTERRES
   241  121  123 2    
   242  122  242 1    
   243  122  243 1    
   244  124  125 1    
   245  124  244 1    
   246  124  245 1    
   247  125  126 1    
   248  126  246 1    
   249  126  247 1    
@<TRIPOS>SUBSTRUCTURE
     1 UNK         1 GROUP             0       ****    0 ROOT    
