@<TRIPOS>MOLECULE
3R540
247   249    1
SMALL
USER_CHARGES


@<TRIPOS>ATOM
      1 CA          1.7611  -14.2485  -51.1848 C.3       0 UNK        -0.1800 
      2 C           1.1395  -14.7050  -49.8739 C.2       0 UNK         0.5000 
      3 O           1.8577  -15.1310  -48.9684 O.2       0 UNK        -0.5000 
      4 N          -0.1921  -14.6093  -49.7568 N.am      1 UNK        -0.5000 
      5 CA         -0.9529  -15.0698  -48.5886 C.3       1 UNK         0.1400 
      6 C6         -2.4778  -15.1324  -48.8409 C.3       23 UNK        -0.0398 
      7 S7         -2.8890  -16.4143  -50.0691 S.3       23 UNK        -0.2404 
      8 C8         -2.8723  -17.9020  -49.0187 C.3       23 UNK        -0.0205 
      9 C9         -4.2716  -18.3309  -48.6116 C.ar      23 UNK        -0.0193 
     10 C10        -4.9340  -19.2980  -49.3663 C.ar      23 UNK        -0.1150 
     11 C11        -6.2136  -19.7305  -49.0171 C.ar      23 UNK        -0.0193 
     12 C12        -6.8342  -19.1857  -47.8905 C.ar      23 UNK        -0.1150 
     13 C13        -6.1842  -18.2128  -47.1227 C.ar      23 UNK        -0.0193 
     14 C14        -4.9017  -17.7880  -47.4880 C.ar      23 UNK        -0.1150 
     15 C15        -6.8786  -17.6100  -45.9095 C.3       23 UNK        -0.0205 
     16 S16        -6.1432  -18.1555  -44.3346 S.3       23 UNK        -0.2404 
     17 C17        -6.3245  -19.9704  -44.4288 C.3       23 UNK        -0.0398 
     18 CA         -4.9471  -20.6605  -44.5824 C.3       11 UNK         0.1400 
     19 N          -4.1452  -20.5115  -43.3646 N.am      11 UNK        -0.5000 
     20 C          -2.8283  -20.3007  -43.2444 C.2       10 UNK         0.5000 
     21 O          -2.3040  -20.2062  -42.1333 O.2       10 UNK        -0.5000 
     22 CA         -1.9506  -20.1288  -44.5035 C.3       10 UNK         0.1400 
     23 CB         -2.0393  -18.6910  -45.0412 C.3       10 UNK        -0.1800 
     24 N          -0.5530  -20.4286  -44.1943 N.am      10 UNK        -0.5000 
     25 C          -0.0258  -21.6607  -44.1833 C.2       9 UNK         0.5000 
     26 O          -0.6199  -22.6616  -44.5824 O.2       9 UNK        -0.5000 
     27 CA          1.3976  -21.8017  -43.6145 C.3       9 UNK         0.1400 
     28 CB          2.4449  -21.6187  -44.7226 C.3       9 UNK        -0.1800 
     29 N           1.6510  -20.8190  -42.5637 N.am      9 UNK        -0.5000 
     30 C           1.3944  -20.9865  -41.2610 C.2       8 UNK         0.5000 
     31 O           0.9833  -22.0435  -40.7790 O.2       8 UNK        -0.5000 
     32 CA          1.6296  -19.7564  -40.3542 C.3       8 UNK         0.1400 
     33 CB          1.8747  -20.1282  -38.8771 C.3       8 UNK        -0.1800 
     34 N           2.6760  -18.8558  -40.8549 N.am      8 UNK        -0.5000 
     35 C           3.9837  -19.1155  -41.0090 C.2       7 UNK         0.5000 
     36 O           4.5182  -20.1698  -40.6638 O.2       7 UNK        -0.5000 
     37 CA          4.8454  -18.0307  -41.6917 C.3       7 UNK         0.1400 
     38 CB          5.2737  -18.4995  -43.0916 C.3       7 UNK        -0.1800 
     39 N           4.1724  -16.7360  -41.8212 N.am      7 UNK        -0.5000 
     40 C           3.9864  -15.8583  -40.8260 C.2       6 UNK         0.5000 
     41 O           4.4237  -16.0142  -39.6856 O.2       6 UNK        -0.5000 
     42 CA          3.1274  -14.6194  -41.1517 C.3       6 UNK         0.1400 
     43 CB          3.9849  -13.4944  -41.7507 C.3       6 UNK        -0.1800 
     44 N           2.0156  -14.9253  -42.0568 N.am      6 UNK        -0.5000 
     45 C           0.9872  -15.7274  -41.7439 C.2       5 UNK         0.5000 
     46 O           0.8425  -16.2544  -40.6413 O.2       5 UNK        -0.5000 
     47 CA         -0.0164  -16.0461  -42.8634 C.3       5 UNK         0.1400 
     48 CB         -1.0605  -14.9290  -43.0019 C.3       5 UNK        -0.1800 
     49 N           0.6414  -16.2792  -44.1500 N.am      5 UNK        -0.5000 
     50 C           1.4282  -17.3301  -44.4165 C.2       4 UNK         0.5000 
     51 O           1.6048  -18.2565  -43.6284 O.2       4 UNK        -0.5000 
     52 CA          2.1600  -17.3547  -45.7701 C.3       4 UNK         0.1400 
     53 CB          1.2870  -18.0125  -46.8420 C.3       4 UNK        -0.1800 
     54 N           2.5874  -16.0284  -46.2134 N.am      4 UNK        -0.5000 
     55 C           3.4994  -15.2860  -45.5698 C.2       3 UNK         0.5000 
     56 O           4.0934  -15.6614  -44.5595 O.2       3 UNK        -0.5000 
     57 CA          3.7484  -13.8701  -46.1131 C.3       3 UNK         0.1400 
     58 CB          4.7267  -13.8966  -47.2969 C.3       3 UNK        -0.1800 
     59 N           2.5008  -13.2219  -46.5153 N.am      3 UNK        -0.5000 
     60 C           1.5696  -12.7834  -45.6563 C.2       2 UNK         0.5000 
     61 O           1.6866  -12.8439  -44.4316 O.2       2 UNK        -0.5000 
     62 CA          0.2722  -12.2281  -46.2758 C.3       2 UNK         0.1400 
     63 CB          0.4632  -10.7725  -46.7273 C.3       2 UNK        -0.1800 
     64 N          -0.1956  -13.0331  -47.4075 N.am      2 UNK        -0.5000 
     65 C          -0.6321  -14.2958  -47.2953 C.2       1 UNK         0.5000 
     66 O          -0.7429  -14.8779  -46.2187 O.2       1 UNK        -0.5000 
     67 C          -5.0973  -22.1642  -44.8660 C.2       11 UNK         0.5000 
     68 O          -5.8803  -22.8364  -44.1924 O.2       11 UNK        -0.5000 
     69 N          -4.3209  -22.6650  -45.8311 N.am      12 UNK        -0.5000 
     70 CA         -4.2445  -24.0591  -46.2519 C.3       12 UNK         0.1400 
     71 CB         -3.5613  -24.9139  -45.1646 C.3       12 UNK        -0.1800 
     72 C          -3.4421  -24.1121  -47.5597 C.2       12 UNK         0.5000 
     73 O          -2.8057  -23.1209  -47.9296 O.2       12 UNK        -0.5000 
     74 N          -3.4415  -25.2817  -48.2142 N.am      13 UNK        -0.5000 
     75 CA         -2.6853  -25.5611  -49.4423 C.3       13 UNK         0.1400 
     76 CB         -3.0242  -26.9767  -49.9317 C.3       13 UNK        -0.1800 
     77 C          -1.1588  -25.3951  -49.2885 C.2       13 UNK         0.5000 
     78 O          -0.4787  -25.0637  -50.2608 O.2       13 UNK        -0.5000 
     79 N          -0.6622  -25.5727  -48.0549 N.am      14 UNK        -0.5000 
     80 CA          0.7265  -25.3678  -47.6358 C.3       14 UNK         0.1400 
     81 CB          0.8576  -25.7677  -46.1579 C.3       14 UNK        -0.1800 
     82 C           1.2547  -23.9340  -47.8502 C.2       14 UNK         0.5000 
     83 O           2.4707  -23.7462  -47.8931 O.2       14 UNK        -0.5000 
     84 N           0.3493  -22.9560  -48.0059 N.am      15 UNK        -0.5000 
     85 CA          0.6628  -21.5679  -48.3428 C.3       15 UNK         0.1400 
     86 CB         -0.6196  -20.7307  -48.2282 C.3       15 UNK        -0.1800 
     87 C           1.2689  -21.3837  -49.7473 C.2       15 UNK         0.5000 
     88 O           1.8667  -20.3376  -49.9996 O.2       15 UNK        -0.5000 
     89 N           1.0627  -22.3610  -50.6466 N.am      16 UNK        -0.5000 
     90 CA          1.4639  -22.4172  -52.0616 C.3       16 UNK         0.1400 
     91 CB          2.9893  -22.2926  -52.2321 C.3       16 UNK        -0.1800 
     92 C           0.7110  -21.4175  -52.9617 C.2       16 UNK         0.5000 
     93 O           0.2333  -21.8033  -54.0292 O.2       16 UNK        -0.5000 
     94 N           0.5412  -20.1769  -52.4831 N.am      17 UNK        -0.5000 
     95 CA         -0.2813  -19.1145  -53.0709 C.3       17 UNK         0.1400 
     96 CB         -0.1344  -17.8443  -52.2189 C.3       17 UNK        -0.1800 
     97 C          -1.7674  -19.5000  -53.2154 C.2       17 UNK         0.5000 
     98 O          -2.4560  -18.9564  -54.0784 O.2       17 UNK        -0.5000 
     99 N          -2.2119  -20.4816  -52.4167 N.am      18 UNK        -0.5000 
    100 CA        -3.5120  -21.1499  -52.4767 C.3       18 UNK         0.1400 
    101 CB        -3.5359  -22.2593  -51.4150 C.3       18 UNK        -0.1800 
    102 C         -3.8766  -21.7279  -53.8548 C.2       18 UNK         0.5000 
    103 O         -5.0624  -21.7812  -54.1764 O.2       18 UNK        -0.5000 
    104 N         -2.8699  -22.0998  -54.6594 N.am      19 UNK        -0.5000 
    105 CA        -3.0433  -22.5536  -56.0410 C.3       19 UNK         0.1400 
    106 CB        -1.6966  -23.0662  -56.5726 C.3       19 UNK        -0.1800 
    107 C         -3.6153  -21.4683  -56.9771 C.2       19 UNK         0.5000 
    108 O         -4.2741  -21.8098  -57.9600 O.2       19 UNK        -0.5000 
    109 N         -3.3661  -20.1924  -56.6522 N.am      20 UNK        -0.5000 
    110 CA        -3.9060  -19.0322  -57.3553 C.3       20 UNK         0.1400 
    111 CB        -2.7874  -17.9963  -57.5526 C.3       20 UNK        -0.1800 
    112 C         -5.0809  -18.4186  -56.5769 C.2       20 UNK         0.5000 
    113 O         -6.1105  -18.1119  -57.1785 O.2       20 UNK        -0.5000 
    114 N         -4.9088  -18.2463  -55.2585 N.am      21 UNK        -0.5000 
    115 CA        -5.8525  -17.5585  -54.3759 C.3       21 UNK         0.1400 
    116 CB        -5.1645  -17.2616  -53.0334 C.3       21 UNK        -0.1800 
    117 C         -7.1711  -18.3180  -54.1461 C.2       21 UNK         0.5000 
    118 O         -8.2116  -17.6747  -53.9992 O.2       21 UNK        -0.5000 
    119 N         -7.1068  -19.6545  -54.1130 N.am      22 UNK        -0.5000 
    120 CA        -8.2374  -20.5522  -53.8183 C.3       22 UNK         0.1400 
    121 C         -8.4844  -21.5984  -54.9445 C.2       22 UNK         0.5000 
    122 N         -7.8969  -21.4531  -56.1266 N.am      22 UNK        -0.7600 
    123 O         -9.2430  -22.5464  -54.7588 O.2       22 UNK        -0.5000 
    124 C124       -8.1018  -21.2123  -52.4167 C.3       23 UNK        -0.0398 
    125 S125       -8.0323  -19.9803  -51.0673 S.3       23 UNK        -0.2404 
    126 C126       -6.9190  -20.7741  -49.8682 C.3       23 UNK        -0.0205 
    127 H127        2.4648  -13.4363  -51.0031 H         1 UNK         0.0600 
    128 H128        1.0076  -13.8975  -51.8901 H         1 UNK         0.0600 
    129 H129        2.3024  -15.0736  -51.6476 H         1 UNK         0.0600 
    130 H130       -0.7392  -14.2605  -50.5310 H         1 UNK         0.3000 
    131 H131       -0.6176  -16.0895  -48.4038 H         1 UNK         0.0600 
    132 H132       -2.8496  -14.1700  -49.1956 H         1 UNK         0.0800 
    133 H133       -3.0252  -15.3491  -47.9219 H         1 UNK         0.0800 
    134 H134       -2.2587  -17.7484  -48.1311 H         1 UNK         0.0800 
    135 H135       -2.3911  -18.7040  -49.5798 H         1 UNK         0.0800 
    136 H136       -4.4466  -19.7086  -50.2327 H         1 UNK         0.1150 
    137 H137       -7.8289  -19.5123  -47.6212 H         1 UNK         0.1150 
    138 H138       -4.3979  -17.0379  -46.8955 H         1 UNK         0.1150 
    139 H139       -7.9417  -17.8558  -45.9100 H         1 UNK         0.0800 
    140 H140       -6.8190  -16.5223  -45.9677 H         1 UNK         0.0800 
    141 H141       -6.9864  -20.2293  -45.2561 H         1 UNK         0.0800 
    142 H142       -6.8323  -20.3117  -43.5250 H         1 UNK         0.0800 
    143 H143       -4.4570  -20.2031  -45.4418 H         1 UNK         0.0600 
    144 H144       -4.6711  -20.6326  -42.5122 H         1 UNK         0.3000 
    145 H145       -2.2878  -20.8184  -45.2761 H         1 UNK         0.0600 
    146 H146       -1.6783  -17.9671  -44.3139 H         1 UNK         0.0600 
    147 H147       -1.4547  -18.5751  -45.9515 H         1 UNK         0.0600 
    148 H148       -3.0642  -18.4114  -45.2801 H         1 UNK         0.0600 
    149 H149       -0.0051  -19.6745  -43.8012 H         1 UNK         0.3000 
    150 H150        1.5022  -22.8096  -43.2076 H         1 UNK         0.0600 
    151 H151        2.3125  -22.3626  -45.5074 H         1 UNK         0.0600 
    152 H152        3.4555  -21.7371  -44.3316 H         1 UNK         0.0600 
    153 H153        2.3793  -20.6335  -45.1847 H         1 UNK         0.0600 
    154 H154        1.9220  -19.8890  -42.8744 H         1 UNK         0.3000 
    155 H155        0.7032  -19.1816  -40.3945 H         1 UNK         0.0600 
    156 H156        2.0322  -19.2379  -38.2683 H         1 UNK         0.0600 
    157 H157        2.7443  -20.7750  -38.7591 H         1 UNK         0.0600 
    158 H158        1.0169  -20.6571  -38.4603 H         1 UNK         0.0600 
    159 H159        2.3431  -17.9595  -41.1847 H         1 UNK         0.3000 
    160 H160        5.7440  -17.8957  -41.0864 H         1 UNK         0.0600 
    161 H161        4.4121  -18.6777  -43.7352 H         1 UNK         0.0600 
    162 H162        5.8398  -19.4302  -43.0380 H         1 UNK         0.0600 
    163 H163        5.9094  -17.7602  -43.5793 H         1 UNK         0.0600 
    164 H164        3.8502  -16.4845  -42.7506 H         1 UNK         0.3000 
    165 H165        2.7027  -14.2563  -40.2135 H         1 UNK         0.0600 
    166 H166        4.4432  -13.7916  -42.6937 H         1 UNK         0.0600 
    167 H167        3.3886  -12.6009  -41.9367 H         1 UNK         0.0600 
    168 H168        4.7894  -13.2137  -41.0699 H         1 UNK         0.0600 
    169 H169        2.0485  -14.5086  -42.9795 H         1 UNK         0.3000 
    170 H170       -0.5385  -16.9605  -42.5751 H         1 UNK         0.0600 
    171 H171       -1.5510  -14.7305  -42.0482 H         1 UNK         0.0600 
    172 H172       -0.6108  -13.9961  -43.3425 H         1 UNK         0.0600 
    173 H173       -1.8378  -15.2057  -43.7144 H         1 UNK         0.0600 
    174 H174        0.4528  -15.6029  -44.8838 H         1 UNK         0.3000 
    175 H175        3.0559  -17.9666  -45.6492 H         1 UNK         0.0600 
    176 H176        0.3575  -17.4668  -46.9862 H         1 UNK         0.0600 
    177 H177        1.8019  -18.0689  -47.8016 H         1 UNK         0.0600 
    178 H178        1.0257  -19.0285  -46.5479 H         1 UNK         0.0600 
    179 H179        2.1799  -15.6680  -47.0709 H         1 UNK         0.3000 
    180 H180        4.2013  -13.2799  -45.3135 H         1 UNK         0.0600 
    181 H181        4.3348  -14.4716  -48.1363 H         1 UNK         0.0600 
    182 H182        5.6758  -14.3484  -47.0058 H         1 UNK         0.0600 
    183 H183        4.9422  -12.8889  -47.6523 H         1 UNK         0.0600 
    184 H184        2.3023  -13.1975  -47.5051 H         1 UNK         0.3000 
    185 H185       -0.4992  -12.2465  -45.5027 H         1 UNK         0.0600 
    186 H186        0.7985  -10.1482  -45.8980 H         1 UNK         0.0600 
    187 H187        1.2056  -10.6892  -47.5221 H         1 UNK         0.0600 
    188 H188       -0.4713  -10.3482  -47.0948 H         1 UNK         0.0600 
    189 H189       -0.1235  -12.6242  -48.3277 H         1 UNK         0.3000 
    190 H190       -3.7191  -22.0650  -46.3828 H         1 UNK         0.3000 
    191 H191       -5.2526  -24.4309  -46.4449 H         1 UNK         0.0600 
    192 H192       -3.4868  -25.9585  -45.4683 H         1 UNK         0.0600 
    193 H193       -4.1197  -24.8968  -44.2290 H         1 UNK         0.0600 
    194 H194       -2.5513  -24.5603  -44.9543 H         1 UNK         0.0600 
    195 H195       -3.9867  -26.0472  -47.8443 H         1 UNK         0.3000 
    196 H196       -3.0164  -24.8523  -50.2015 H         1 UNK         0.0600 
    197 H197       -2.4973  -27.2062  -50.8590 H         1 UNK         0.0600 
    198 H198       -4.0907  -27.0804  -50.1323 H         1 UNK         0.0600 
    199 H199       -2.7439  -27.7341  -49.1986 H         1 UNK         0.0600 
    200 H200       -1.3092  -25.8346  -47.3265 H         1 UNK         0.3000 
    201 H201        1.3525  -26.0349  -48.2315 H         1 UNK         0.0600 
    202 H202        0.5814  -26.8110  -46.0042 H         1 UNK         0.0600 
    203 H203        0.2221  -25.1534  -45.5187 H         1 UNK         0.0600 
    204 H204        1.8843  -25.6501  -45.8088 H         1 UNK         0.0600 
    205 H205       -0.6352  -23.1874  -47.9364 H         1 UNK         0.3000 
    206 H206        1.3901  -21.1981  -47.6182 H         1 UNK         0.0600 
    207 H207       -1.0392  -20.7928  -47.2265 H         1 UNK         0.0600 
    208 H208       -0.4232  -19.6793  -48.4372 H         1 UNK         0.0600 
    209 H209       -1.3830  -21.0647  -48.9317 H         1 UNK         0.0600 
    210 H210        0.5383  -23.1710  -50.3332 H         1 UNK         0.3000 
    211 H211        1.1806  -23.4149  -52.4014 H         1 UNK         0.0600 
    212 H212        3.3553  -21.3038  -51.9550 H         1 UNK         0.0600 
    213 H213        3.2774  -22.4647  -53.2698 H         1 UNK         0.0600 
    214 H214        3.5144  -23.0278  -51.6222 H         1 UNK         0.0600 
    215 H215        0.9960  -19.9660  -51.5979 H         1 UNK         0.3000 
    216 H216        0.1009  -18.9093  -54.0725 H         1 UNK         0.0600 
    217 H217       -0.4388  -18.0156  -51.1857 H         1 UNK         0.0600 
    218 H218       -0.7479  -17.0323  -52.6119 H         1 UNK         0.0600 
    219 H219        0.8979  -17.4944  -52.2071 H         1 UNK         0.0600 
    220 H220       -1.5521  -20.8622  -51.7561 H         1 UNK         0.3000 
    221 H221       -4.2809  -20.4144  -52.2456 H         1 UNK         0.0600 
    222 H222       -2.7378  -22.9824  -51.5862 H         1 UNK         0.0600 
    223 H223       -3.4095  -21.8574  -50.4097 H         1 UNK         0.0600 
    224 H224       -4.4806  -22.8041  -51.4310 H         1 UNK         0.0600 
    225 H225       -1.9153  -22.0103  -54.3307 H         1 UNK         0.3000 
    226 H226       -3.7490  -23.3868  -56.0337 H         1 UNK         0.0600 
    227 H227       -1.3103  -23.8765  -55.9541 H         1 UNK         0.0600 
    228 H228       -1.7975  -23.4512  -57.5881 H         1 UNK         0.0600 
    229 H229       -0.9464  -22.2746  -56.5938 H         1 UNK         0.0600 
    230 H230       -2.8461  -19.9992  -55.8044 H         1 UNK         0.3000 
    231 H231       -4.2720  -19.3197  -58.3432 H         1 UNK         0.0600 
    232 H232       -3.1607  -17.1130  -58.0723 H         1 UNK         0.0600 
    233 H233       -1.9748  -18.4069  -58.1521 H         1 UNK         0.0600 
    234 H234       -2.3664  -17.6655  -56.6023 H         1 UNK         0.0600 
    235 H235       -4.0184  -18.5093  -54.8413 H         1 UNK         0.3000 
    236 H236       -6.1034  -16.6029  -54.8412 H         1 UNK         0.0600 
    237 H237       -4.8794  -18.1755  -52.5132 H         1 UNK         0.0600 
    238 H238       -4.2637  -16.6636  -53.1726 H         1 UNK         0.0600 
    239 H239       -5.8253  -16.7037  -52.3687 H         1 UNK         0.0600 
    240 H240       -6.2203  -20.1233  -54.2632 H         1 UNK         0.3000 
    241 H241       -9.1605  -19.9706  -53.8039 H         1 UNK         0.0600 
    242 H242       -7.2959  -20.6645  -56.3050 H         1 UNK         0.3800 
    243 H243       -8.0655  -22.1318  -56.8520 H         1 UNK         0.3800 
    244 H244       -8.9495  -21.8688  -52.2145 H         1 UNK         0.0800 
    245 H245       -7.2127  -21.8436  -52.3915 H         1 UNK         0.0800 
    246 H246       -6.1797  -21.3843  -50.3864 H         1 UNK         0.0800 
    247 H247       -7.4915  -21.4541  -49.2358 H         1 UNK         0.0800 
@<TRIPOS>BOND
     1    1    2 1    
     2    1  127 1    
     3    1  128 1    
     4    1  129 1    
     5    2    3 2    
     6    2    4 am   BACKBONE|DICT|INTERRES
     7    4    5 1    
     8    4  130 1    
     9    5    6 1    
    10    5   65 1    
    11    5  131 1    
    12    6    7 1    
    13    6  132 1    
    14    6  133 1    
    15    7    8 1    
    16    8    9 1    
    17    8  134 1    
    18    8  135 1    
    19    9   10 ar   
    20    9   14 ar   
    21   10   11 ar   
    22   10  136 1    
    23   11   12 ar   
    24   11  126 1    
    25   12   13 ar   
    26   12  137 1    
    27   13   14 ar   
    28   13   15 1    
    29   14  138 1    
    30   15   16 1    
    31   15  139 1    
    32   15  140 1    
    33   16   17 1    
    34   17   18 1    
    35   17  141 1    
    36   17  142 1    
    37   18   19 1    
    38   18   67 1    
    39   18  143 1    
    40   19   20 am   BACKBONE|DICT|INTERRES
    41   19  144 1    
    42   20   21 2    
    43   20   22 1    
    44   22   23 1    
    45   22   24 1    
    46   22  145 1    
    47   23  146 1    
    48   23  147 1    
    49   23  148 1    
    50   24   25 am   BACKBONE|DICT|INTERRES
    51   24  149 1    
    52   25   26 2    
    53   25   27 1    
    54   27   28 1    
    55   27   29 1    
    56   27  150 1    
    57   28  151 1    
    58   28  152 1    
    59   28  153 1    
    60   29   30 am   BACKBONE|DICT|INTERRES
    61   29  154 1    
    62   30   31 2    
    63   30   32 1    
    64   32   33 1    
    65   32   34 1    
    66   32  155 1    
    67   33  156 1    
    68   33  157 1    
    69   33  158 1    
    70   34   35 am   BACKBONE|DICT|INTERRES
    71   34  159 1    
    72   35   36 2    
    73   35   37 1    
    74   37   38 1    
    75   37   39 1    
    76   37  160 1    
    77   38  161 1    
    78   38  162 1    
    79   38  163 1    
    80   39   40 am   BACKBONE|DICT|INTERRES
    81   39  164 1    
    82   40   41 2    
    83   40   42 1    
    84   42   43 1    
    85   42   44 1    
    86   42  165 1    
    87   43  166 1    
    88   43  167 1    
    89   43  168 1    
    90   44   45 am   BACKBONE|DICT|INTERRES
    91   44  169 1    
    92   45   46 2    
    93   45   47 1    
    94   47   48 1    
    95   47   49 1    
    96   47  170 1    
    97   48  171 1    
    98   48  172 1    
    99   48  173 1    
   100   49   50 am   BACKBONE|DICT|INTERRES
   101   49  174 1    
   102   50   51 2    
   103   50   52 1    
   104   52   53 1    
   105   52   54 1    
   106   52  175 1    
   107   53  176 1    
   108   53  177 1    
   109   53  178 1    
   110   54   55 am   BACKBONE|DICT|INTERRES
   111   54  179 1    
   112   55   56 2    
   113   55   57 1    
   114   57   58 1    
   115   57   59 1    
   116   57  180 1    
   117   58  181 1    
   118   58  182 1    
   119   58  183 1    
   120   59   60 am   BACKBONE|DICT|INTERRES
   121   59  184 1    
   122   60   61 2    
   123   60   62 1    
   124   62   63 1    
   125   62   64 1    
   126   62  185 1    
   127   63  186 1    
   128   63  187 1    
   129   63  188 1    
   130   64   65 am   BACKBONE|DICT|INTERRES
   131   64  189 1    
   132   65   66 2    
   133   67   68 2    
   134   67   69 am   BACKBONE|DICT|INTERRES
   135   69   70 1    
   136   69  190 1    
   137   70   71 1    
   138   70   72 1    
   139   70  191 1    
   140   71  192 1    
   141   71  193 1    
   142   71  194 1    
   143   72   73 2    
   144   72   74 am   BACKBONE|DICT|INTERRES
   145   74   75 1    
   146   74  195 1    
   147   75   76 1    
   148   75   77 1    
   149   75  196 1    
   150   76  197 1    
   151   76  198 1    
   152   76  199 1    
   153   77   78 2    
   154   77   79 am   BACKBONE|DICT|INTERRES
   155   79   80 1    
   156   79  200 1    
   157   80   81 1    
   158   80   82 1    
   159   80  201 1    
   160   81  202 1    
   161   81  203 1    
   162   81  204 1    
   163   82   83 2    
   164   82   84 am   BACKBONE|DICT|INTERRES
   165   84   85 1    
   166   84  205 1    
   167   85   86 1    
   168   85   87 1    
   169   85  206 1    
   170   86  207 1    
   171   86  208 1    
   172   86  209 1    
   173   87   88 2    
   174   87   89 am   BACKBONE|DICT|INTERRES
   175   89   90 1    
   176   89  210 1    
   177   90   91 1    
   178   90   92 1    
   179   90  211 1    
   180   91  212 1    
   181   91  213 1    
   182   91  214 1    
   183   92   93 2    
   184   92   94 am   BACKBONE|DICT|INTERRES
   185   94   95 1    
   186   94  215 1    
   187   95   96 1    
   188   95   97 1    
   189   95  216 1    
   190   96  217 1    
   191   96  218 1    
   192   96  219 1    
   193   97   98 2    
   194   97   99 am   BACKBONE|DICT|INTERRES
   195   99  100 1    
   196   99  220 1    
   197  100  101 1    
   198  100  102 1    
   199  100  221 1    
   200  101  222 1    
   201  101  223 1    
   202  101  224 1    
   203  102  103 2    
   204  102  104 am   BACKBONE|DICT|INTERRES
   205  104  105 1    
   206  104  225 1    
   207  105  106 1    
   208  105  107 1    
   209  105  226 1    
   210  106  227 1    
   211  106  228 1    
   212  106  229 1    
   213  107  108 2    
   214  107  109 am   BACKBONE|DICT|INTERRES
   215  109  110 1    
   216  109  230 1    
   217  110  111 1    
   218  110  112 1    
   219  110  231 1    
   220  111  232 1    
   221  111  233 1    
   222  111  234 1    
   223  112  113 2    
   224  112  114 am   BACKBONE|DICT|INTERRES
   225  114  115 1    
   226  114  235 1    
   227  115  116 1    
   228  115  117 1    
   229  115  236 1    
   230  116  237 1    
   231  116  238 1    
   232  116  239 1    
   233  117  118 2    
   234  117  119 am   BACKBONE|DICT|INTERRES
   235  119  120 1    
   236  119  240 1    
   237  120  121 1    
   238  120  124 1    
   239  120  241 1    
   240  121  122 am   BACKBONE|DICT|INTERRES
   241  121  123 2    
   242  122  242 1    
   243  122  243 1    
   244  124  125 1    
   245  124  244 1    
   246  124  245 1    
   247  125  126 1    
   248  126  246 1    
   249  126  247 1    
@<TRIPOS>SUBSTRUCTURE
     1 UNK         1 GROUP             0       ****    0 ROOT    
