@<TRIPOS>MOLECULE
3R540
247   249    1
SMALL
USER_CHARGES


@<TRIPOS>ATOM
      1 CA          6.2068  -14.4184  -45.2960 C.3       0 UNK        -0.1800 
      2 C           4.6859  -14.4312  -45.3296 C.2       0 UNK         0.5000 
      3 O           4.0596  -14.9510  -44.4065 O.2       0 UNK        -0.5000 
      4 N           4.0917  -13.8871  -46.3993 N.am      1 UNK        -0.5000 
      5 CA          2.6400  -13.7141  -46.5373 C.3       1 UNK         0.1400 
      6 C6          2.1850  -13.7150  -48.0192 C.3       23 UNK        -0.0398 
      7 S7          2.2345  -15.3652  -48.8004 S.3       23 UNK        -0.2404 
      8 C8          0.5736  -15.4130  -49.5548 C.3       23 UNK        -0.0205 
      9 C9          0.4408  -16.5125  -50.5975 C.ar      23 UNK        -0.0193 
     10 C10         0.8798  -16.2875  -51.9059 C.ar      23 UNK        -0.1150 
     11 C11         0.7394  -17.2702  -52.8909 C.ar      23 UNK        -0.0193 
     12 C12         0.1667  -18.4989  -52.5420 C.ar      23 UNK        -0.1150 
     13 C13        -0.2940  -18.7314  -51.2439 C.ar      23 UNK        -0.0193 
     14 C14        -0.1551  -17.7347  -50.2733 C.ar      23 UNK        -0.1150 
     15 C15        -0.9550  -20.0585  -50.9111 C.3       23 UNK        -0.0205 
     16 S16         0.2762  -21.3402  -50.5446 S.3       23 UNK        -0.2404 
     17 C17         0.5721  -21.0123  -48.7757 C.3       23 UNK        -0.0398 
     18 CA          0.0232  -22.1256  -47.8576 C.3       11 UNK         0.1400 
     19 N           0.5341  -22.0032  -46.4937 N.am      11 UNK        -0.5000 
     20 C           0.4543  -22.9743  -45.5744 C.2       10 UNK         0.5000 
     21 O          -0.0620  -24.0721  -45.7845 O.2       10 UNK        -0.5000 
     22 CA          1.0124  -22.6530  -44.1786 C.3       10 UNK         0.1400 
     23 CB          2.5463  -22.7299  -44.1777 C.3       10 UNK        -0.1800 
     24 N           0.5819  -21.3427  -43.6908 N.am      10 UNK        -0.5000 
     25 C          -0.6916  -21.0172  -43.4246 C.2       9 UNK         0.5000 
     26 O          -1.6379  -21.7968  -43.5477 O.2       9 UNK        -0.5000 
     27 CA         -0.9572  -19.5647  -42.9869 C.3       9 UNK         0.1400 
     28 CB         -0.5243  -19.3377  -41.5305 C.3       9 UNK        -0.1800 
     29 N          -0.3011  -18.5807  -43.8475 N.am      9 UNK        -0.5000 
     30 C          -0.5362  -18.4345  -45.1584 C.2       8 UNK         0.5000 
     31 O          -1.3348  -19.1149  -45.7968 O.2       8 UNK        -0.5000 
     32 CA          0.2998  -17.3809  -45.8965 C.3       8 UNK         0.1400 
     33 CB         -0.2451  -15.9690  -45.6270 C.3       8 UNK        -0.1800 
     34 N           1.7175  -17.4780  -45.5475 N.am      8 UNK        -0.5000 
     35 C           2.4804  -18.5417  -45.8437 C.2       7 UNK         0.5000 
     36 O           2.0872  -19.5074  -46.4966 O.2       7 UNK        -0.5000 
     37 CA          3.9010  -18.5688  -45.2626 C.3       7 UNK         0.1400 
     38 CB          4.8899  -17.8609  -46.1985 C.3       7 UNK        -0.1800 
     39 N           3.9499  -18.0051  -43.9098 N.am      7 UNK        -0.5000 
     40 C           3.4695  -18.6654  -42.8452 C.2       6 UNK         0.5000 
     41 O           2.9210  -19.7653  -42.9206 O.2       6 UNK        -0.5000 
     42 CA          3.6042  -18.0050  -41.4625 C.3       6 UNK         0.1400 
     43 CB          5.0198  -18.2193  -40.9055 C.3       6 UNK        -0.1800 
     44 N           3.2714  -16.5818  -41.3879 N.am      6 UNK        -0.5000 
     45 C           2.1581  -15.9894  -41.8398 C.2       5 UNK         0.5000 
     46 O           1.3287  -16.5560  -42.5553 O.2       5 UNK        -0.5000 
     47 CA          1.9239  -14.5398  -41.3528 C.3       5 UNK         0.1400 
     48 CB          3.2149  -13.7028  -41.2679 C.3       5 UNK        -0.1800 
     49 N           0.9407  -13.8118  -42.1538 N.am      5 UNK        -0.5000 
     50 C          -0.3880  -13.9744  -42.0880 C.2       4 UNK         0.5000 
     51 O          -0.9472  -14.7463  -41.3060 O.2       4 UNK        -0.5000 
     52 CA         -1.2217  -13.1002  -43.0495 C.3       4 UNK         0.1400 
     53 CB         -2.7360  -13.1351  -42.7543 C.3       4 UNK        -0.1800 
     54 N          -0.7294  -11.7203  -43.1242 N.am      4 UNK        -0.5000 
     55 C          -0.6496  -10.8282  -42.1227 C.2       3 UNK         0.5000 
     56 O          -1.0606  -11.0433  -40.9812 O.2       3 UNK        -0.5000 
     57 CA         -0.0079   -9.4605  -42.4573 C.3       3 UNK         0.1400 
     58 CB          0.6575   -8.7998  -41.2311 C.3       3 UNK        -0.1800 
     59 N           0.9231   -9.5009  -43.5937 N.am      3 UNK        -0.5000 
     60 C           2.0528  -10.2169  -43.6830 C.2       2 UNK         0.5000 
     61 O           2.4945  -10.9342  -42.7854 O.2       2 UNK        -0.5000 
     62 CA          2.7967  -10.1470  -45.0280 C.3       2 UNK         0.1400 
     63 CB          4.1246   -9.3897  -44.8747 C.3       2 UNK        -0.1800 
     64 N           3.0636  -11.4717  -45.5928 N.am      2 UNK        -0.5000 
     65 C           2.1502  -12.4223  -45.8466 C.2       1 UNK         0.5000 
     66 O           0.9515  -12.3042  -45.5860 O.2       1 UNK        -0.5000 
     67 C          -1.5165  -22.2316  -47.8891 C.2       11 UNK         0.5000 
     68 O          -2.0397  -23.0496  -48.6420 O.2       11 UNK        -0.5000 
     69 N          -2.2244  -21.4647  -47.0470 N.am      12 UNK        -0.5000 
     70 CA         -3.6794  -21.5454  -46.8999 C.3       12 UNK         0.1400 
     71 CB         -4.1867  -20.4248  -45.9816 C.3       12 UNK        -0.1800 
     72 C          -4.1587  -22.9175  -46.3948 C.2       12 UNK         0.5000 
     73 O          -5.1874  -23.4024  -46.8656 O.2       12 UNK        -0.5000 
     74 N          -3.3969  -23.5347  -45.4829 N.am      13 UNK        -0.5000 
     75 CA         -3.6418  -24.8970  -45.0140 C.3       13 UNK         0.1400 
     76 CB         -2.8040  -25.1672  -43.7546 C.3       13 UNK        -0.1800 
     77 C          -3.3617  -25.9486  -46.1052 C.2       13 UNK         0.5000 
     78 O          -4.1697  -26.8590  -46.2917 O.2       13 UNK        -0.5000 
     79 N          -2.2288  -25.8030  -46.8057 N.am      14 UNK        -0.5000 
     80 CA         -1.7598  -26.7386  -47.8279 C.3       14 UNK         0.1400 
     81 CB         -0.2764  -26.4649  -48.1207 C.3       14 UNK        -0.1800 
     82 C          -2.5789  -26.7017  -49.1315 C.2       14 UNK         0.5000 
     83 O          -2.9211  -27.7601  -49.6599 O.2       14 UNK        -0.5000 
     84 N          -2.8586  -25.4940  -49.6363 N.am      15 UNK        -0.5000 
     85 CA         -3.4603  -25.2481  -50.9488 C.3       15 UNK         0.1400 
     86 CB         -2.6367  -24.1737  -51.6823 C.3       15 UNK        -0.1800 
     87 C          -4.9500  -24.8656  -50.8708 C.2       15 UNK         0.5000 
     88 O          -5.4821  -24.3505  -51.8553 O.2       15 UNK        -0.5000 
     89 N          -5.5941  -25.1251  -49.7222 N.am      16 UNK        -0.5000 
     90 CA         -7.0266  -24.9563  -49.4462 C.3       16 UNK         0.1400 
     91 CB         -7.8512  -25.9699  -50.2669 C.3       16 UNK        -0.1800 
     92 C          -7.4977  -23.5039  -49.6544 C.2       16 UNK         0.5000 
     93 O          -8.2299  -23.2116  -50.6001 O.2       16 UNK        -0.5000 
     94 N          -7.0108  -22.6076  -48.7866 N.am      17 UNK        -0.5000 
     95 CA         -7.2145  -21.1529  -48.8120 C.3       17 UNK         0.1400 
     96 CB         -8.6941  -20.7945  -48.5609 C.3       17 UNK        -0.1800 
     97 C          -6.6382  -20.4983  -50.0862 C.2       17 UNK         0.5000 
     98 O          -7.1926  -19.5200  -50.5879 O.2       17 UNK        -0.5000 
     99 N          -5.5349  -21.0785  -50.5831 N.am      18 UNK        -0.5000 
    100 CA        -4.7974  -20.7314  -51.8015 C.3       18 UNK         0.1400 
    101 CB        -4.2950  -19.2723  -51.7629 C.3       18 UNK        -0.1800 
    102 C         -5.5431  -21.0457  -53.1142 C.2       18 UNK         0.5000 
    103 O         -5.0494  -20.6625  -54.1752 O.2       18 UNK        -0.5000 
    104 N         -6.6798  -21.7563  -53.0558 N.am      19 UNK        -0.5000 
    105 CA        -7.4982  -22.1146  -54.2187 C.3       19 UNK         0.1400 
    106 CB        -8.8097  -22.7570  -53.7453 C.3       19 UNK        -0.1800 
    107 C         -6.7795  -23.0398  -55.2186 C.2       19 UNK         0.5000 
    108 O         -7.0212  -22.9348  -56.4215 O.2       19 UNK        -0.5000 
    109 N         -5.8906  -23.9030  -54.7105 N.am      20 UNK        -0.5000 
    110 CA        -5.0319  -24.7812  -55.5071 C.3       20 UNK         0.1400 
    111 CB        -4.8014  -26.0840  -54.7233 C.3       20 UNK        -0.1800 
    112 C         -3.6897  -24.1202  -55.8921 C.2       20 UNK         0.5000 
    113 O         -2.8440  -24.7920  -56.4852 O.2       20 UNK        -0.5000 
    114 N         -3.4980  -22.8422  -55.5400 N.am      21 UNK        -0.5000 
    115 CA        -2.2776  -22.0744  -55.7607 C.3       21 UNK         0.1400 
    116 CB        -1.4926  -21.9913  -54.4357 C.3       21 UNK        -0.1800 
    117 C         -2.6351  -20.7108  -56.3818 C.2       21 UNK         0.5000 
    118 O         -3.2354  -20.6807  -57.4577 O.2       21 UNK        -0.5000 
    119 N         -2.2348  -19.6155  -55.7250 N.am      22 UNK        -0.5000 
    120 CA        -2.3374  -18.2325  -56.2222 C.3       22 UNK         0.1400 
    121 C         -3.7654  -17.6105  -56.1995 C.2       22 UNK         0.5000 
    122 N         -4.7762  -18.2458  -55.6220 N.am      22 UNK        -0.7600 
    123 O         -3.9637  -16.5209  -56.7304 O.2       22 UNK        -0.5000 
    124 C124       -1.3177  -17.2958  -55.5196 C.3       23 UNK        -0.0398 
    125 S125        0.4022  -17.9023  -55.6459 S.3       23 UNK        -0.2404 
    126 C126        1.2322  -16.9721  -54.3082 C.3       23 UNK        -0.0205 
    127 H127        6.6301  -14.0433  -46.2279 H         1 UNK         0.0600 
    128 H128        6.5892  -15.4251  -45.1301 H         1 UNK         0.0600 
    129 H129        6.5555  -13.7835  -44.4816 H         1 UNK         0.0600 
    130 H130        4.6561  -13.5263  -47.1555 H         1 UNK         0.3000 
    131 H131        2.1484  -14.5410  -46.0264 H         1 UNK         0.0600 
    132 H132        1.1637  -13.3376  -48.1005 H         1 UNK         0.0800 
    133 H133        2.7974  -13.0324  -48.6106 H         1 UNK         0.0800 
    134 H134        0.3619  -14.4537  -50.0300 H         1 UNK         0.0800 
    135 H135       -0.1774  -15.5387  -48.7741 H         1 UNK         0.0800 
    136 H136        1.3311  -15.3377  -52.1575 H         1 UNK         0.1150 
    137 H137        0.0708  -19.2825  -53.2786 H         1 UNK         0.1150 
    138 H138       -0.5156  -17.9065  -49.2696 H         1 UNK         0.1150 
    139 H139       -1.6495  -19.9518  -50.0765 H         1 UNK         0.0800 
    140 H140       -1.5530  -20.3868  -51.7589 H         1 UNK         0.0800 
    141 H141        0.1759  -20.0397  -48.4826 H         1 UNK         0.0800 
    142 H142        1.6535  -20.9409  -48.6546 H         1 UNK         0.0800 
    143 H143        0.4078  -23.0718  -48.2442 H         1 UNK         0.0600 
    144 H144        0.9856  -21.1240  -46.2589 H         1 UNK         0.3000 
    145 H145        0.6337  -23.4091  -43.4877 H         1 UNK         0.0600 
    146 H146        2.9460  -22.5946  -43.1726 H         1 UNK         0.0600 
    147 H147        2.8901  -23.7009  -44.5365 H         1 UNK         0.0600 
    148 H148        2.9883  -21.9657  -44.8184 H         1 UNK         0.0600 
    149 H149        1.3130  -20.6539  -43.5349 H         1 UNK         0.3000 
    150 H150       -2.0334  -19.3921  -43.0517 H         1 UNK         0.0600 
    151 H151       -1.0208  -20.0409  -40.8608 H         1 UNK         0.0600 
    152 H152       -0.7805  -18.3317  -41.1968 H         1 UNK         0.0600 
    153 H153        0.5511  -19.4656  -41.4047 H         1 UNK         0.0600 
    154 H154        0.3636  -17.9520  -43.4020 H         1 UNK         0.3000 
    155 H155        0.2012  -17.5785  -46.9657 H         1 UNK         0.0600 
    156 H156       -1.3357  -15.9548  -45.6493 H         1 UNK         0.0600 
    157 H157        0.0865  -15.2646  -46.3862 H         1 UNK         0.0600 
    158 H158        0.0670  -15.5931  -44.6540 H         1 UNK         0.0600 
    159 H159        2.0958  -16.7671  -44.9361 H         1 UNK         0.3000 
    160 H160        4.2135  -19.6137  -45.1989 H         1 UNK         0.0600 
    161 H161        5.8640  -17.7261  -45.7289 H         1 UNK         0.0600 
    162 H162        4.5201  -16.8894  -46.5205 H         1 UNK         0.0600 
    163 H163        5.0438  -18.4510  -47.1026 H         1 UNK         0.0600 
    164 H164        4.3023  -17.0614  -43.8018 H         1 UNK         0.3000 
    165 H165        2.9058  -18.5193  -40.7995 H         1 UNK         0.0600 
    166 H166        5.0915  -17.8900  -39.8688 H         1 UNK         0.0600 
    167 H167        5.2946  -19.2748  -40.9282 H         1 UNK         0.0600 
    168 H168        5.7658  -17.6732  -41.4844 H         1 UNK         0.0600 
    169 H169        3.9043  -16.0195  -40.8389 H         1 UNK         0.3000 
    170 H170        1.5294  -14.6246  -40.3384 H         1 UNK         0.0600 
    171 H171        3.9632  -14.1592  -40.6202 H         1 UNK         0.0600 
    172 H172        3.6664  -13.5536  -42.2482 H         1 UNK         0.0600 
    173 H173        3.0071  -12.7180  -40.8494 H         1 UNK         0.0600 
    174 H174        1.3125  -13.1305  -42.8009 H         1 UNK         0.3000 
    175 H175       -1.0783  -13.5233  -44.0441 H         1 UNK         0.0600 
    176 H176       -3.2901  -12.5210  -43.4640 H         1 UNK         0.0600 
    177 H177       -3.1239  -14.1513  -42.8337 H         1 UNK         0.0600 
    178 H178       -2.9641  -12.7771  -41.7501 H         1 UNK         0.0600 
    179 H179       -0.3190  -11.4677  -44.0159 H         1 UNK         0.3000 
    180 H180       -0.8319   -8.8161  -42.7667 H         1 UNK         0.0600 
    181 H181        1.4446   -9.4263  -40.8104 H         1 UNK         0.0600 
    182 H182       -0.0709   -8.6172  -40.4402 H         1 UNK         0.0600 
    183 H183        1.0976   -7.8373  -41.4915 H         1 UNK         0.0600 
    184 H184        0.6391   -8.9580  -44.3977 H         1 UNK         0.3000 
    185 H185        2.1770   -9.6072  -45.7468 H         1 UNK         0.0600 
    186 H186        3.9596   -8.3901  -44.4703 H         1 UNK         0.0600 
    187 H187        4.8068   -9.9082  -44.1996 H         1 UNK         0.0600 
    188 H188        4.6266   -9.2718  -45.8352 H         1 UNK         0.0600 
    189 H189        4.0275  -11.6761  -45.8080 H         1 UNK         0.3000 
    190 H190       -1.7513  -20.7672  -46.4757 H         1 UNK         0.3000 
    191 H191       -4.1152  -21.3915  -47.8886 H         1 UNK         0.0600 
    192 H192       -3.7215  -20.4725  -44.9963 H         1 UNK         0.0600 
    193 H193       -5.2660  -20.4897  -45.8384 H         1 UNK         0.0600 
    194 H194       -3.9750  -19.4433  -46.4056 H         1 UNK         0.0600 
    195 H195       -2.5838  -23.0562  -45.1129 H         1 UNK         0.3000 
    196 H196       -4.6953  -24.9770  -44.7374 H         1 UNK         0.0600 
    197 H197       -2.9925  -26.1696  -43.3685 H         1 UNK         0.0600 
    198 H198       -3.0485  -24.4606  -42.9612 H         1 UNK         0.0600 
    199 H199       -1.7350  -25.0873  -43.9523 H         1 UNK         0.0600 
    200 H200       -1.5985  -25.0449  -46.5613 H         1 UNK         0.3000 
    201 H201       -1.8371  -27.7482  -47.4187 H         1 UNK         0.0600 
    202 H202        0.3295  -26.5726  -47.2208 H         1 UNK         0.0600 
    203 H203       -0.1226  -25.4573  -48.5081 H         1 UNK         0.0600 
    204 H204        0.1128  -27.1650  -48.8610 H         1 UNK         0.0600 
    205 H205       -2.5465  -24.6612  -49.1360 H         1 UNK         0.3000 
    206 H206       -3.4121  -26.1574  -51.5503 H         1 UNK         0.0600 
    207 H207       -1.5934  -24.4749  -51.7766 H         1 UNK         0.0600 
    208 H208       -3.0143  -24.0027  -52.6905 H         1 UNK         0.0600 
    209 H209       -2.6580  -23.2195  -51.1582 H         1 UNK         0.0600 
    210 H210       -5.0452  -25.5056  -48.9638 H         1 UNK         0.3000 
    211 H211       -7.1728  -25.1893  -48.3903 H         1 UNK         0.0600 
    212 H212       -7.7532  -25.8028  -51.3403 H         1 UNK         0.0600 
    213 H213       -8.9114  -25.8978  -50.0216 H         1 UNK         0.0600 
    214 H214       -7.5377  -26.9927  -50.0582 H         1 UNK         0.0600 
    215 H215       -6.3940  -22.9520  -48.0498 H         1 UNK         0.3000 
    216 H216       -6.6375  -20.7501  -47.9792 H         1 UNK         0.0600 
    217 H217       -8.8183  -19.7190  -48.4300 H         1 UNK         0.0600 
    218 H218       -9.0679  -21.2754  -47.6570 H         1 UNK         0.0600 
    219 H219       -9.3330  -21.0968  -49.3911 H         1 UNK         0.0600 
    220 H220       -5.2068  -21.9067  -50.1079 H         1 UNK         0.3000 
    221 H221       -3.9189  -21.3753  -51.8041 H         1 UNK         0.0600 
    222 H222       -5.1085  -18.5596  -51.8997 H         1 UNK         0.0600 
    223 H223       -3.8073  -19.0426  -50.8161 H         1 UNK         0.0600 
    224 H224       -3.5707  -19.0852  -52.5567 H         1 UNK         0.0600 
    225 H225       -7.0027  -22.0960  -52.1578 H         1 UNK         0.3000 
    226 H226       -7.7434  -21.1895  -54.7444 H         1 UNK         0.0600 
    227 H227       -9.4693  -22.9658  -54.5884 H         1 UNK         0.0600 
    228 H228       -8.6285  -23.7008  -53.2292 H         1 UNK         0.0600 
    229 H229       -9.3494  -22.0995  -53.0635 H         1 UNK         0.0600 
    230 H230       -5.7673  -23.9411  -53.7006 H         1 UNK         0.3000 
    231 H231       -5.5417  -25.0399  -56.4373 H         1 UNK         0.0600 
    232 H232       -5.7457  -26.5385  -54.4232 H         1 UNK         0.0600 
    233 H233       -4.2114  -25.9115  -53.8245 H         1 UNK         0.0600 
    234 H234       -4.2669  -26.8169  -55.3288 H         1 UNK         0.0600 
    235 H235       -4.2630  -22.3268  -55.1194 H         1 UNK         0.3000 
    236 H236       -1.6427  -22.5743  -56.4947 H         1 UNK         0.0600 
    237 H237       -0.5755  -21.4112  -54.5445 H         1 UNK         0.0600 
    238 H238       -2.0932  -21.5428  -53.6455 H         1 UNK         0.0600 
    239 H239       -1.1963  -22.9848  -54.0993 H         1 UNK         0.0600 
    240 H240       -1.7553  -19.7295  -54.8462 H         1 UNK         0.3000 
    241 H241       -2.0611  -18.2611  -57.2780 H         1 UNK         0.0600 
    242 H242       -4.6597  -19.1560  -55.1834 H         1 UNK         0.3800 
    243 H243       -5.6881  -17.8195  -55.6308 H         1 UNK         0.3800 
    244 H244       -1.3478  -16.2965  -55.9574 H         1 UNK         0.0800 
    245 H245       -1.5856  -17.1766  -54.4687 H         1 UNK         0.0800 
    246 H246        2.2999  -17.1900  -54.3499 H         1 UNK         0.0800 
    247 H247        1.1267  -15.9070  -54.5207 H         1 UNK         0.0800 
@<TRIPOS>BOND
     1    1    2 1    
     2    1  127 1    
     3    1  128 1    
     4    1  129 1    
     5    2    3 2    
     6    2    4 am   BACKBONE|DICT|INTERRES
     7    4    5 1    
     8    4  130 1    
     9    5    6 1    
    10    5   65 1    
    11    5  131 1    
    12    6    7 1    
    13    6  132 1    
    14    6  133 1    
    15    7    8 1    
    16    8    9 1    
    17    8  134 1    
    18    8  135 1    
    19    9   10 ar   
    20    9   14 ar   
    21   10   11 ar   
    22   10  136 1    
    23   11   12 ar   
    24   11  126 1    
    25   12   13 ar   
    26   12  137 1    
    27   13   14 ar   
    28   13   15 1    
    29   14  138 1    
    30   15   16 1    
    31   15  139 1    
    32   15  140 1    
    33   16   17 1    
    34   17   18 1    
    35   17  141 1    
    36   17  142 1    
    37   18   19 1    
    38   18   67 1    
    39   18  143 1    
    40   19   20 am   BACKBONE|DICT|INTERRES
    41   19  144 1    
    42   20   21 2    
    43   20   22 1    
    44   22   23 1    
    45   22   24 1    
    46   22  145 1    
    47   23  146 1    
    48   23  147 1    
    49   23  148 1    
    50   24   25 am   BACKBONE|DICT|INTERRES
    51   24  149 1    
    52   25   26 2    
    53   25   27 1    
    54   27   28 1    
    55   27   29 1    
    56   27  150 1    
    57   28  151 1    
    58   28  152 1    
    59   28  153 1    
    60   29   30 am   BACKBONE|DICT|INTERRES
    61   29  154 1    
    62   30   31 2    
    63   30   32 1    
    64   32   33 1    
    65   32   34 1    
    66   32  155 1    
    67   33  156 1    
    68   33  157 1    
    69   33  158 1    
    70   34   35 am   BACKBONE|DICT|INTERRES
    71   34  159 1    
    72   35   36 2    
    73   35   37 1    
    74   37   38 1    
    75   37   39 1    
    76   37  160 1    
    77   38  161 1    
    78   38  162 1    
    79   38  163 1    
    80   39   40 am   BACKBONE|DICT|INTERRES
    81   39  164 1    
    82   40   41 2    
    83   40   42 1    
    84   42   43 1    
    85   42   44 1    
    86   42  165 1    
    87   43  166 1    
    88   43  167 1    
    89   43  168 1    
    90   44   45 am   BACKBONE|DICT|INTERRES
    91   44  169 1    
    92   45   46 2    
    93   45   47 1    
    94   47   48 1    
    95   47   49 1    
    96   47  170 1    
    97   48  171 1    
    98   48  172 1    
    99   48  173 1    
   100   49   50 am   BACKBONE|DICT|INTERRES
   101   49  174 1    
   102   50   51 2    
   103   50   52 1    
   104   52   53 1    
   105   52   54 1    
   106   52  175 1    
   107   53  176 1    
   108   53  177 1    
   109   53  178 1    
   110   54   55 am   BACKBONE|DICT|INTERRES
   111   54  179 1    
   112   55   56 2    
   113   55   57 1    
   114   57   58 1    
   115   57   59 1    
   116   57  180 1    
   117   58  181 1    
   118   58  182 1    
   119   58  183 1    
   120   59   60 am   BACKBONE|DICT|INTERRES
   121   59  184 1    
   122   60   61 2    
   123   60   62 1    
   124   62   63 1    
   125   62   64 1    
   126   62  185 1    
   127   63  186 1    
   128   63  187 1    
   129   63  188 1    
   130   64   65 am   BACKBONE|DICT|INTERRES
   131   64  189 1    
   132   65   66 2    
   133   67   68 2    
   134   67   69 am   BACKBONE|DICT|INTERRES
   135   69   70 1    
   136   69  190 1    
   137   70   71 1    
   138   70   72 1    
   139   70  191 1    
   140   71  192 1    
   141   71  193 1    
   142   71  194 1    
   143   72   73 2    
   144   72   74 am   BACKBONE|DICT|INTERRES
   145   74   75 1    
   146   74  195 1    
   147   75   76 1    
   148   75   77 1    
   149   75  196 1    
   150   76  197 1    
   151   76  198 1    
   152   76  199 1    
   153   77   78 2    
   154   77   79 am   BACKBONE|DICT|INTERRES
   155   79   80 1    
   156   79  200 1    
   157   80   81 1    
   158   80   82 1    
   159   80  201 1    
   160   81  202 1    
   161   81  203 1    
   162   81  204 1    
   163   82   83 2    
   164   82   84 am   BACKBONE|DICT|INTERRES
   165   84   85 1    
   166   84  205 1    
   167   85   86 1    
   168   85   87 1    
   169   85  206 1    
   170   86  207 1    
   171   86  208 1    
   172   86  209 1    
   173   87   88 2    
   174   87   89 am   BACKBONE|DICT|INTERRES
   175   89   90 1    
   176   89  210 1    
   177   90   91 1    
   178   90   92 1    
   179   90  211 1    
   180   91  212 1    
   181   91  213 1    
   182   91  214 1    
   183   92   93 2    
   184   92   94 am   BACKBONE|DICT|INTERRES
   185   94   95 1    
   186   94  215 1    
   187   95   96 1    
   188   95   97 1    
   189   95  216 1    
   190   96  217 1    
   191   96  218 1    
   192   96  219 1    
   193   97   98 2    
   194   97   99 am   BACKBONE|DICT|INTERRES
   195   99  100 1    
   196   99  220 1    
   197  100  101 1    
   198  100  102 1    
   199  100  221 1    
   200  101  222 1    
   201  101  223 1    
   202  101  224 1    
   203  102  103 2    
   204  102  104 am   BACKBONE|DICT|INTERRES
   205  104  105 1    
   206  104  225 1    
   207  105  106 1    
   208  105  107 1    
   209  105  226 1    
   210  106  227 1    
   211  106  228 1    
   212  106  229 1    
   213  107  108 2    
   214  107  109 am   BACKBONE|DICT|INTERRES
   215  109  110 1    
   216  109  230 1    
   217  110  111 1    
   218  110  112 1    
   219  110  231 1    
   220  111  232 1    
   221  111  233 1    
   222  111  234 1    
   223  112  113 2    
   224  112  114 am   BACKBONE|DICT|INTERRES
   225  114  115 1    
   226  114  235 1    
   227  115  116 1    
   228  115  117 1    
   229  115  236 1    
   230  116  237 1    
   231  116  238 1    
   232  116  239 1    
   233  117  118 2    
   234  117  119 am   BACKBONE|DICT|INTERRES
   235  119  120 1    
   236  119  240 1    
   237  120  121 1    
   238  120  124 1    
   239  120  241 1    
   240  121  122 am   BACKBONE|DICT|INTERRES
   241  121  123 2    
   242  122  242 1    
   243  122  243 1    
   244  124  125 1    
   245  124  244 1    
   246  124  245 1    
   247  125  126 1    
   248  126  246 1    
   249  126  247 1    
@<TRIPOS>SUBSTRUCTURE
     1 UNK         1 GROUP             0       ****    0 ROOT    
