@<TRIPOS>MOLECULE
3R540
247   249    1
SMALL
USER_CHARGES


@<TRIPOS>ATOM
      1 CA          6.0207  -15.0586  -45.6310 C.3       0 UNK        -0.1800 
      2 C           4.7004  -14.3315  -45.4281 C.2       0 UNK         0.5000 
      3 O           4.4656  -13.7813  -44.3533 O.2       0 UNK        -0.5000 
      4 N           3.8441  -14.3125  -46.4579 N.am      1 UNK        -0.5000 
      5 CA          2.4929  -13.7285  -46.4476 C.3       1 UNK         0.1400 
      6 C6          1.7636  -13.9516  -47.7944 C.3       23 UNK        -0.0398 
      7 S7          1.5978  -15.7154  -48.2176 S.3       23 UNK        -0.2404 
      8 C8          0.6392  -15.6036  -49.7607 C.3       23 UNK        -0.0205 
      9 C9         -0.1821  -16.8617  -49.9981 C.ar      23 UNK        -0.0193 
     10 C10        -1.5784  -16.8140  -49.9435 C.ar      23 UNK        -0.1150 
     11 C11        -2.3383  -17.9647  -50.1717 C.ar      23 UNK        -0.0193 
     12 C12        -1.6906  -19.1781  -50.4162 C.ar      23 UNK        -0.1150 
     13 C13        -0.2947  -19.2403  -50.4781 C.ar      23 UNK        -0.0193 
     14 C14         0.4519  -18.0731  -50.2865 C.ar      23 UNK        -0.1150 
     15 C15         0.3935  -20.5707  -50.7637 C.3       23 UNK        -0.0205 
     16 S16         1.7512  -20.9745  -49.6093 S.3       23 UNK        -0.2404 
     17 C17         1.0078  -20.6725  -47.9679 C.3       23 UNK        -0.0398 
     18 CA          0.3975  -21.9304  -47.3120 C.3       11 UNK         0.1400 
     19 N           0.2195  -21.7402  -45.8704 N.am      11 UNK        -0.5000 
     20 C          -0.1496  -22.6953  -45.0066 C.2       10 UNK         0.5000 
     21 O          -0.3482  -23.8658  -45.3270 O.2       10 UNK        -0.5000 
     22 CA         -0.3915  -22.2591  -43.5513 C.3       10 UNK         0.1400 
     23 CB          0.9374  -22.0840  -42.8019 C.3       10 UNK        -0.1800 
     24 N          -1.1797  -21.0291  -43.4646 N.am      10 UNK        -0.5000 
     25 C          -2.4467  -20.9140  -43.8887 C.2       9 UNK         0.5000 
     26 O          -3.1013  -21.8536  -44.3415 O.2       9 UNK        -0.5000 
     27 CA         -3.0733  -19.5074  -43.8414 C.3       9 UNK         0.1400 
     28 CB         -3.5681  -19.1746  -42.4262 C.3       9 UNK        -0.1800 
     29 N          -2.1588  -18.4605  -44.2999 N.am      9 UNK        -0.5000 
     30 C          -1.6473  -18.3816  -45.5366 C.2       8 UNK         0.5000 
     31 O          -1.9164  -19.1697  -46.4397 O.2       8 UNK        -0.5000 
     32 CA         -0.6118  -17.2752  -45.7912 C.3       8 UNK         0.1400 
     33 CB         -1.2947  -15.9170  -46.0187 C.3       8 UNK        -0.1800 
     34 N           0.3594  -17.1772  -44.7008 N.am      8 UNK        -0.5000 
     35 C           1.2377  -18.1418  -44.3881 C.2       7 UNK         0.5000 
     36 O           1.3565  -19.1916  -45.0190 O.2       7 UNK        -0.5000 
     37 CA          2.0839  -17.9240  -43.1227 C.3       7 UNK         0.1400 
     38 CB          3.3112  -17.0565  -43.4294 C.3       7 UNK        -0.1800 
     39 N           1.3054  -17.3133  -42.0457 N.am      7 UNK        -0.5000 
     40 C           0.3245  -17.9424  -41.3811 C.2       6 UNK         0.5000 
     41 O           0.0129  -19.1165  -41.5768 O.2       6 UNK        -0.5000 
     42 CA         -0.4749  -17.1079  -40.3626 C.3       6 UNK         0.1400 
     43 CB          0.2101  -17.1344  -38.9883 C.3       6 UNK        -0.1800 
     44 N          -0.6562  -15.7183  -40.7843 N.am      6 UNK        -0.5000 
     45 C          -1.3166  -15.3296  -41.8850 C.2       5 UNK         0.5000 
     46 O          -1.9090  -16.1096  -42.6293 O.2       5 UNK        -0.5000 
     47 CA         -1.2715  -13.8294  -42.2371 C.3       5 UNK         0.1400 
     48 CB         -2.5617  -13.1317  -41.7827 C.3       5 UNK        -0.1800 
     49 N          -0.1172  -13.1395  -41.6523 N.am      5 UNK        -0.5000 
     50 C           1.1543  -13.3413  -42.0222 C.2       4 UNK         0.5000 
     51 O           1.4907  -14.1029  -42.9304 O.2       4 UNK        -0.5000 
     52 CA          2.2213  -12.6496  -41.1673 C.3       4 UNK         0.1400 
     53 CB          2.7376  -13.6118  -40.0811 C.3       4 UNK        -0.1800 
     54 N           3.3311  -12.1977  -42.0002 N.am      4 UNK        -0.5000 
     55 C           4.1602  -11.1994  -41.6664 C.2       3 UNK         0.5000 
     56 O           4.0701  -10.5599  -40.6171 O.2       3 UNK        -0.5000 
     57 CA          5.2681  -10.8350  -42.6669 C.3       3 UNK         0.1400 
     58 CB          6.4822  -11.7637  -42.5036 C.3       3 UNK        -0.1800 
     59 N           4.7871  -10.8877  -44.0457 N.am      3 UNK        -0.5000 
     60 C           4.1911   -9.8662  -44.6773 C.2       2 UNK         0.5000 
     61 O           4.0020   -8.7640  -44.1608 O.2       2 UNK        -0.5000 
     62 CA          3.7430  -10.0947  -46.1346 C.3       2 UNK         0.1400 
     63 CB          4.7753   -9.5080  -47.1099 C.3       2 UNK        -0.1800 
     64 N           3.5410  -11.5065  -46.4574 N.am      2 UNK        -0.5000 
     65 C           2.4718  -12.2257  -46.0901 C.2       1 UNK         0.5000 
     66 O           1.5053  -11.7534  -45.4910 O.2       1 UNK        -0.5000 
     67 C          -0.9155  -22.3558  -48.0024 C.2       11 UNK         0.5000 
     68 O          -0.9040  -23.2897  -48.8060 O.2       11 UNK        -0.5000 
     69 N          -2.0290  -21.6981  -47.6512 N.am      12 UNK        -0.5000 
     70 CA         -3.3761  -22.0068  -48.1295 C.3       12 UNK         0.1400 
     71 CB         -4.3652  -20.9667  -47.5832 C.3       12 UNK        -0.1800 
     72 C          -3.8297  -23.4347  -47.7730 C.2       12 UNK         0.5000 
     73 O          -4.4738  -24.0853  -48.5939 O.2       12 UNK        -0.5000 
     74 N          -3.4619  -23.9062  -46.5755 N.am      13 UNK        -0.5000 
     75 CA         -3.7140  -25.2717  -46.1246 C.3       13 UNK         0.1400 
     76 CB         -3.5796  -25.3353  -44.5949 C.3       13 UNK        -0.1800 
     77 C          -2.7873  -26.2998  -46.8020 C.2       13 UNK         0.5000 
     78 O          -3.2675  -27.3382  -47.2582 O.2       13 UNK        -0.5000 
     79 N          -1.4788  -26.0127  -46.8246 N.am      14 UNK        -0.5000 
     80 CA         -0.4402  -26.9484  -47.2546 C.3       14 UNK         0.1400 
     81 CB          0.9069  -26.5296  -46.6436 C.3       14 UNK        -0.1800 
     82 C          -0.3156  -27.0839  -48.7812 C.2       14 UNK         0.5000 
     83 O          -0.2730  -28.2075  -49.2846 O.2       14 UNK        -0.5000 
     84 N          -0.2160  -25.9483  -49.4818 N.am      15 UNK        -0.5000 
     85 CA          0.0820  -25.8811  -50.9142 C.3       15 UNK         0.1400 
     86 CB          1.2413  -24.8944  -51.1305 C.3       15 UNK        -0.1800 
     87 C          -1.1353  -25.4462  -51.7422 C.2       15 UNK         0.5000 
     88 O          -1.2578  -25.8574  -52.8962 O.2       15 UNK        -0.5000 
     89 N          -1.9924  -24.5975  -51.1559 N.am      16 UNK        -0.5000 
     90 CA         -3.2141  -24.0218  -51.7345 C.3       16 UNK         0.1400 
     91 CB         -4.2430  -25.1231  -52.0632 C.3       16 UNK        -0.1800 
     92 C          -2.9747  -23.0664  -52.9247 C.2       16 UNK         0.5000 
     93 O          -3.9272  -22.7295  -53.6338 O.2       16 UNK        -0.5000 
     94 N          -1.7107  -22.6606  -53.1305 N.am      17 UNK        -0.5000 
     95 CA         -1.1845  -21.7648  -54.1736 C.3       17 UNK         0.1400 
     96 CB         -1.7622  -20.3456  -53.9945 C.3       17 UNK        -0.1800 
     97 C          -1.3768  -22.2564  -55.6259 C.2       17 UNK         0.5000 
     98 O          -1.0624  -21.5123  -56.5556 O.2       17 UNK        -0.5000 
     99 N          -1.9275  -23.4688  -55.7989 N.am      18 UNK        -0.5000 
    100 CA        -2.5318  -23.9950  -57.0293 C.3       18 UNK         0.1400 
    101 CB        -1.4558  -24.2787  -58.0980 C.3       18 UNK        -0.1800 
    102 C         -3.6819  -23.0960  -57.5464 C.2       18 UNK         0.5000 
    103 O         -3.9082  -23.0154  -58.7552 O.2       18 UNK        -0.5000 
    104 N         -4.3719  -22.4181  -56.6175 N.am      19 UNK        -0.5000 
    105 CA        -5.3637  -21.3803  -56.8878 C.3       19 UNK         0.1400 
    106 CB        -4.6671  -20.0082  -56.9684 C.3       19 UNK        -0.1800 
    107 C         -6.4823  -21.4296  -55.8352 C.2       19 UNK         0.5000 
    108 O         -6.8953  -20.3904  -55.3164 O.2       19 UNK        -0.5000 
    109 N         -6.9408  -22.6536  -55.5314 N.am      20 UNK        -0.5000 
    110 CA        -8.0814  -22.9861  -54.6682 C.3       20 UNK         0.1400 
    111 CB        -9.4011  -22.6122  -55.3750 C.3       20 UNK        -0.1800 
    112 C         -7.9848  -22.3969  -53.2447 C.2       20 UNK         0.5000 
    113 O         -8.9928  -21.9510  -52.6916 O.2       20 UNK        -0.5000 
    114 N         -6.7624  -22.3730  -52.6903 N.am      21 UNK        -0.5000 
    115 CA        -6.4184  -21.8600  -51.3580 C.3       21 UNK         0.1400 
    116 CB        -7.0427  -22.7512  -50.2638 C.3       21 UNK        -0.1800 
    117 C         -6.7388  -20.3621  -51.1737 C.2       21 UNK         0.5000 
    118 O         -7.0100  -19.9258  -50.0545 O.2       21 UNK        -0.5000 
    119 N         -6.7085  -19.6110  -52.2832 N.am      22 UNK        -0.5000 
    120 CA        -7.1051  -18.1983  -52.3939 C.3       22 UNK         0.1400 
    121 C         -8.6409  -17.9553  -52.2541 C.2       22 UNK         0.5000 
    122 N         -9.4910  -18.9756  -52.3080 N.am      22 UNK        -0.7600 
    123 O         -9.0802  -16.8155  -52.1255 O.2       22 UNK        -0.5000 
    124 C124       -6.2647  -17.2356  -51.5036 C.3       23 UNK        -0.0398 
    125 S125       -4.4673  -17.3536  -51.8086 S.3       23 UNK        -0.2404 
    126 C126       -3.8568  -17.8884  -50.1791 C.3       23 UNK        -0.0205 
    127 H127        6.8531  -14.3698  -45.4879 H         1 UNK         0.0600 
    128 H128        6.1163  -15.8660  -44.9051 H         1 UNK         0.0600 
    129 H129        6.0987  -15.4872  -46.6304 H         1 UNK         0.0600 
    130 H130        4.0929  -14.7936  -47.3106 H         1 UNK         0.3000 
    131 H131        1.9310  -14.2457  -45.6667 H         1 UNK         0.0600 
    132 H132        0.7610  -13.5209  -47.7565 H         1 UNK         0.0800 
    133 H133        2.2884  -13.4465  -48.6076 H         1 UNK         0.0800 
    134 H134        1.3203  -15.4463  -50.5981 H         1 UNK         0.0800 
    135 H135       -0.0146  -14.7308  -49.7262 H         1 UNK         0.0800 
    136 H136       -2.0786  -15.8769  -49.7434 H         1 UNK         0.1150 
    137 H137       -2.2772  -20.0700  -50.5831 H         1 UNK         0.1150 
    138 H138        1.5311  -18.1109  -50.3371 H         1 UNK         0.1150 
    139 H139       -0.3296  -21.3864  -50.7484 H         1 UNK         0.0800 
    140 H140        0.7971  -20.5420  -51.7763 H         1 UNK         0.0800 
    141 H141        0.2884  -19.8539  -47.9959 H         1 UNK         0.0800 
    142 H142        1.8258  -20.3077  -47.3462 H         1 UNK         0.0800 
    143 H143        1.1068  -22.7522  -47.4317 H         1 UNK         0.0600 
    144 H144        0.3966  -20.8043  -45.5158 H         1 UNK         0.3000 
    145 H145       -0.9561  -23.0526  -43.0573 H         1 UNK         0.0600 
    146 H146        0.7681  -21.8550  -41.7497 H         1 UNK         0.0600 
    147 H147        1.5328  -22.9969  -42.8445 H         1 UNK         0.0600 
    148 H148        1.5383  -21.2794  -43.2259 H         1 UNK         0.0600 
    149 H149       -0.7249  -20.2239  -43.0455 H         1 UNK         0.3000 
    150 H150       -3.9360  -19.5063  -44.5105 H         1 UNK         0.0600 
    151 H151       -4.2902  -19.9158  -42.0816 H         1 UNK         0.0600 
    152 H152       -4.0601  -18.2021  -42.3989 H         1 UNK         0.0600 
    153 H153       -2.7494  -19.1550  -41.7070 H         1 UNK         0.0600 
    154 H154       -1.9211  -17.7339  -43.6300 H         1 UNK         0.3000 
    155 H155       -0.0683  -17.5408  -46.6996 H         1 UNK         0.0600 
    156 H156       -1.9432  -15.6383  -45.1890 H         1 UNK         0.0600 
    157 H157       -1.9111  -15.9449  -46.9179 H         1 UNK         0.0600 
    158 H158       -0.5636  -15.1204  -46.1507 H         1 UNK         0.0600 
    159 H159        0.3115  -16.3567  -44.1147 H         1 UNK         0.3000 
    160 H160        2.4355  -18.8998  -42.7810 H         1 UNK         0.0600 
    161 H161        3.9389  -16.9280  -42.5476 H         1 UNK         0.0600 
    162 H162        3.0192  -16.0675  -43.7795 H         1 UNK         0.0600 
    163 H163        3.9270  -17.5105  -44.2068 H         1 UNK         0.0600 
    164 H164        1.4752  -16.3345  -41.8622 H         1 UNK         0.3000 
    165 H165       -1.4634  -17.5606  -40.2631 H         1 UNK         0.0600 
    166 H166       -0.3852  -16.6103  -38.2404 H         1 UNK         0.0600 
    167 H167        0.3409  -18.1592  -38.6378 H         1 UNK         0.0600 
    168 H168        1.1964  -16.6697  -39.0196 H         1 UNK         0.0600 
    169 H169       -0.2138  -15.0104  -40.2185 H         1 UNK         0.3000 
    170 H170       -1.2025  -13.7497  -43.3243 H         1 UNK         0.0600 
    171 H171       -3.4386  -13.6078  -42.2237 H         1 UNK         0.0600 
    172 H172       -2.6793  -13.1668  -40.6989 H         1 UNK         0.0600 
    173 H173       -2.5734  -12.0855  -42.0892 H         1 UNK         0.0600 
    174 H174       -0.3138  -12.5045  -40.8917 H         1 UNK         0.3000 
    175 H175        1.7616  -11.7826  -40.6875 H         1 UNK         0.0600 
    176 H176        3.2257  -14.4837  -40.5190 H         1 UNK         0.0600 
    177 H177        3.4571  -13.1218  -39.4250 H         1 UNK         0.0600 
    178 H178        1.9224  -13.9711  -39.4521 H         1 UNK         0.0600 
    179 H179        3.4637  -12.7029  -42.8725 H         1 UNK         0.3000 
    180 H180        5.6014   -9.8194  -42.4417 H         1 UNK         0.0600 
    181 H181        6.2231  -12.8097  -42.6673 H         1 UNK         0.0600 
    182 H182        6.8960  -11.6858  -41.4974 H         1 UNK         0.0600 
    183 H183        7.2763  -11.5014  -43.2027 H         1 UNK         0.0600 
    184 H184        4.8292  -11.7936  -44.4977 H         1 UNK         0.3000 
    185 H185        2.7997   -9.5632  -46.2776 H         1 UNK         0.0600 
    186 H186        4.9323   -8.4453  -46.9202 H         1 UNK         0.0600 
    187 H187        5.7425  -10.0039  -47.0193 H         1 UNK         0.0600 
    188 H188        4.4421   -9.6061  -48.1433 H         1 UNK         0.0600 
    189 H189        4.2906  -11.9745  -46.9459 H         1 UNK         0.3000 
    190 H190       -1.9493  -20.8942  -47.0308 H         1 UNK         0.3000 
    191 H191       -3.3624  -21.9171  -49.2160 H         1 UNK         0.0600 
    192 H192       -4.4364  -21.0101  -46.4970 H         1 UNK         0.0600 
    193 H193       -5.3666  -21.1244  -47.9810 H         1 UNK         0.0600 
    194 H194       -4.0667  -19.9551  -47.8549 H         1 UNK         0.0600 
    195 H195       -2.9738  -23.2904  -45.9350 H         1 UNK         0.3000 
    196 H196       -4.7436  -25.5335  -46.3784 H         1 UNK         0.0600 
    197 H197       -2.5790  -25.0565  -44.2632 H         1 UNK         0.0600 
    198 H198       -3.7800  -26.3420  -44.2264 H         1 UNK         0.0600 
    199 H199       -4.2885  -24.6635  -44.1104 H         1 UNK         0.0600 
    200 H200       -1.1574  -25.1481  -46.3945 H         1 UNK         0.3000 
    201 H201       -0.6859  -27.9355  -46.8564 H         1 UNK         0.0600 
    202 H202        1.6991  -27.2233  -46.9279 H         1 UNK         0.0600 
    203 H203        0.8587  -26.5200  -45.5545 H         1 UNK         0.0600 
    204 H204        1.2077  -25.5340  -46.9724 H         1 UNK         0.0600 
    205 H205       -0.3255  -25.0586  -49.0029 H         1 UNK         0.3000 
    206 H206        0.3996  -26.8569  -51.2876 H         1 UNK         0.0600 
    207 H207        2.1365  -25.2192  -50.6000 H         1 UNK         0.0600 
    208 H208        1.5005  -24.8184  -52.1874 H         1 UNK         0.0600 
    209 H209        0.9927  -23.8922  -50.7794 H         1 UNK         0.0600 
    210 H210       -1.7615  -24.2766  -50.2197 H         1 UNK         0.3000 
    211 H211       -3.6415  -23.4029  -50.9510 H         1 UNK         0.0600 
    212 H212       -3.9180  -25.7524  -52.8917 H         1 UNK         0.0600 
    213 H213       -5.2068  -24.6970  -52.3400 H         1 UNK         0.0600 
    214 H214       -4.4153  -25.7655  -51.1995 H         1 UNK         0.0600 
    215 H215       -1.0143  -23.0443  -52.5088 H         1 UNK         0.3000 
    216 H216       -0.1065  -21.7094  -54.0164 H         1 UNK         0.0600 
    217 H217       -1.3361  -19.6470  -54.7153 H         1 UNK         0.0600 
    218 H218       -1.5384  -19.9518  -53.0071 H         1 UNK         0.0600 
    219 H219       -2.8443  -20.3255  -54.1221 H         1 UNK         0.0600 
    220 H220       -2.1154  -24.0047  -54.9630 H         1 UNK         0.3000 
    221 H221       -2.9898  -24.9479  -56.7610 H         1 UNK         0.0600 
    222 H222       -1.0062  -23.3607  -58.4770 H         1 UNK         0.0600 
    223 H223       -0.6574  -24.9029  -57.6970 H         1 UNK         0.0600 
    224 H224       -1.8828  -24.8078  -58.9506 H         1 UNK         0.0600 
    225 H225       -4.1414  -22.5563  -55.6373 H         1 UNK         0.3000 
    226 H226       -5.8452  -21.5752  -57.8481 H         1 UNK         0.0600 
    227 H227       -3.8897  -20.0036  -57.7326 H         1 UNK         0.0600 
    228 H228       -5.3776  -19.2214  -57.2243 H         1 UNK         0.0600 
    229 H229       -4.2036  -19.7383  -56.0195 H         1 UNK         0.0600 
    230 H230       -6.4988  -23.4388  -55.9888 H         1 UNK         0.3000 
    231 H231       -8.0686  -24.0699  -54.5450 H         1 UNK         0.0600 
    232 H232       -9.4603  -23.0644  -56.3649 H         1 UNK         0.0600 
    233 H233       -9.5031  -21.5327  -55.4927 H         1 UNK         0.0600 
    234 H234      -10.2644  -22.9635  -54.8086 H         1 UNK         0.0600 
    235 H235       -5.9760  -22.6866  -53.2494 H         1 UNK         0.3000 
    236 H236       -5.3364  -21.9314  -51.2670 H         1 UNK         0.0600 
    237 H237       -6.7003  -22.4620  -49.2715 H         1 UNK         0.0600 
    238 H238       -8.1309  -22.6884  -50.2593 H         1 UNK         0.0600 
    239 H239       -6.7668  -23.7964  -50.4033 H         1 UNK         0.0600 
    240 H240       -6.5211  -20.0679  -53.1677 H         1 UNK         0.3000 
    241 H241       -6.8902  -17.9343  -53.4299 H         1 UNK         0.0600 
    242 H242       -9.1657  -19.9295  -52.4217 H         1 UNK         0.3800 
    243 H243      -10.4792  -18.7965  -52.2273 H         1 UNK         0.3800 
    244 H244       -6.5478  -16.2004  -51.7004 H         1 UNK         0.0800 
    245 H245       -6.4775  -17.4020  -50.4472 H         1 UNK         0.0800 
    246 H246       -4.1958  -17.1928  -49.4100 H         1 UNK         0.0800 
    247 H247       -4.2894  -18.8592  -49.9363 H         1 UNK         0.0800 
@<TRIPOS>BOND
     1    1    2 1    
     2    1  127 1    
     3    1  128 1    
     4    1  129 1    
     5    2    3 2    
     6    2    4 am   BACKBONE|DICT|INTERRES
     7    4    5 1    
     8    4  130 1    
     9    5    6 1    
    10    5   65 1    
    11    5  131 1    
    12    6    7 1    
    13    6  132 1    
    14    6  133 1    
    15    7    8 1    
    16    8    9 1    
    17    8  134 1    
    18    8  135 1    
    19    9   10 ar   
    20    9   14 ar   
    21   10   11 ar   
    22   10  136 1    
    23   11   12 ar   
    24   11  126 1    
    25   12   13 ar   
    26   12  137 1    
    27   13   14 ar   
    28   13   15 1    
    29   14  138 1    
    30   15   16 1    
    31   15  139 1    
    32   15  140 1    
    33   16   17 1    
    34   17   18 1    
    35   17  141 1    
    36   17  142 1    
    37   18   19 1    
    38   18   67 1    
    39   18  143 1    
    40   19   20 am   BACKBONE|DICT|INTERRES
    41   19  144 1    
    42   20   21 2    
    43   20   22 1    
    44   22   23 1    
    45   22   24 1    
    46   22  145 1    
    47   23  146 1    
    48   23  147 1    
    49   23  148 1    
    50   24   25 am   BACKBONE|DICT|INTERRES
    51   24  149 1    
    52   25   26 2    
    53   25   27 1    
    54   27   28 1    
    55   27   29 1    
    56   27  150 1    
    57   28  151 1    
    58   28  152 1    
    59   28  153 1    
    60   29   30 am   BACKBONE|DICT|INTERRES
    61   29  154 1    
    62   30   31 2    
    63   30   32 1    
    64   32   33 1    
    65   32   34 1    
    66   32  155 1    
    67   33  156 1    
    68   33  157 1    
    69   33  158 1    
    70   34   35 am   BACKBONE|DICT|INTERRES
    71   34  159 1    
    72   35   36 2    
    73   35   37 1    
    74   37   38 1    
    75   37   39 1    
    76   37  160 1    
    77   38  161 1    
    78   38  162 1    
    79   38  163 1    
    80   39   40 am   BACKBONE|DICT|INTERRES
    81   39  164 1    
    82   40   41 2    
    83   40   42 1    
    84   42   43 1    
    85   42   44 1    
    86   42  165 1    
    87   43  166 1    
    88   43  167 1    
    89   43  168 1    
    90   44   45 am   BACKBONE|DICT|INTERRES
    91   44  169 1    
    92   45   46 2    
    93   45   47 1    
    94   47   48 1    
    95   47   49 1    
    96   47  170 1    
    97   48  171 1    
    98   48  172 1    
    99   48  173 1    
   100   49   50 am   BACKBONE|DICT|INTERRES
   101   49  174 1    
   102   50   51 2    
   103   50   52 1    
   104   52   53 1    
   105   52   54 1    
   106   52  175 1    
   107   53  176 1    
   108   53  177 1    
   109   53  178 1    
   110   54   55 am   BACKBONE|DICT|INTERRES
   111   54  179 1    
   112   55   56 2    
   113   55   57 1    
   114   57   58 1    
   115   57   59 1    
   116   57  180 1    
   117   58  181 1    
   118   58  182 1    
   119   58  183 1    
   120   59   60 am   BACKBONE|DICT|INTERRES
   121   59  184 1    
   122   60   61 2    
   123   60   62 1    
   124   62   63 1    
   125   62   64 1    
   126   62  185 1    
   127   63  186 1    
   128   63  187 1    
   129   63  188 1    
   130   64   65 am   BACKBONE|DICT|INTERRES
   131   64  189 1    
   132   65   66 2    
   133   67   68 2    
   134   67   69 am   BACKBONE|DICT|INTERRES
   135   69   70 1    
   136   69  190 1    
   137   70   71 1    
   138   70   72 1    
   139   70  191 1    
   140   71  192 1    
   141   71  193 1    
   142   71  194 1    
   143   72   73 2    
   144   72   74 am   BACKBONE|DICT|INTERRES
   145   74   75 1    
   146   74  195 1    
   147   75   76 1    
   148   75   77 1    
   149   75  196 1    
   150   76  197 1    
   151   76  198 1    
   152   76  199 1    
   153   77   78 2    
   154   77   79 am   BACKBONE|DICT|INTERRES
   155   79   80 1    
   156   79  200 1    
   157   80   81 1    
   158   80   82 1    
   159   80  201 1    
   160   81  202 1    
   161   81  203 1    
   162   81  204 1    
   163   82   83 2    
   164   82   84 am   BACKBONE|DICT|INTERRES
   165   84   85 1    
   166   84  205 1    
   167   85   86 1    
   168   85   87 1    
   169   85  206 1    
   170   86  207 1    
   171   86  208 1    
   172   86  209 1    
   173   87   88 2    
   174   87   89 am   BACKBONE|DICT|INTERRES
   175   89   90 1    
   176   89  210 1    
   177   90   91 1    
   178   90   92 1    
   179   90  211 1    
   180   91  212 1    
   181   91  213 1    
   182   91  214 1    
   183   92   93 2    
   184   92   94 am   BACKBONE|DICT|INTERRES
   185   94   95 1    
   186   94  215 1    
   187   95   96 1    
   188   95   97 1    
   189   95  216 1    
   190   96  217 1    
   191   96  218 1    
   192   96  219 1    
   193   97   98 2    
   194   97   99 am   BACKBONE|DICT|INTERRES
   195   99  100 1    
   196   99  220 1    
   197  100  101 1    
   198  100  102 1    
   199  100  221 1    
   200  101  222 1    
   201  101  223 1    
   202  101  224 1    
   203  102  103 2    
   204  102  104 am   BACKBONE|DICT|INTERRES
   205  104  105 1    
   206  104  225 1    
   207  105  106 1    
   208  105  107 1    
   209  105  226 1    
   210  106  227 1    
   211  106  228 1    
   212  106  229 1    
   213  107  108 2    
   214  107  109 am   BACKBONE|DICT|INTERRES
   215  109  110 1    
   216  109  230 1    
   217  110  111 1    
   218  110  112 1    
   219  110  231 1    
   220  111  232 1    
   221  111  233 1    
   222  111  234 1    
   223  112  113 2    
   224  112  114 am   BACKBONE|DICT|INTERRES
   225  114  115 1    
   226  114  235 1    
   227  115  116 1    
   228  115  117 1    
   229  115  236 1    
   230  116  237 1    
   231  116  238 1    
   232  116  239 1    
   233  117  118 2    
   234  117  119 am   BACKBONE|DICT|INTERRES
   235  119  120 1    
   236  119  240 1    
   237  120  121 1    
   238  120  124 1    
   239  120  241 1    
   240  121  122 am   BACKBONE|DICT|INTERRES
   241  121  123 2    
   242  122  242 1    
   243  122  243 1    
   244  124  125 1    
   245  124  244 1    
   246  124  245 1    
   247  125  126 1    
   248  126  246 1    
   249  126  247 1    
@<TRIPOS>SUBSTRUCTURE
     1 UNK         1 GROUP             0       ****    0 ROOT    
