@<TRIPOS>MOLECULE
3R540
247   249    1
SMALL
USER_CHARGES


@<TRIPOS>ATOM
      1 CA          4.7925  -11.0571  -45.1773 C.3       0 UNK        -0.1800 
      2 C           3.6489  -11.8777  -45.7568 C.2       0 UNK         0.5000 
      3 O           2.4834  -11.5502  -45.5327 O.2       0 UNK        -0.5000 
      4 N           3.9764  -12.9475  -46.4900 N.am      1 UNK        -0.5000 
      5 CA          3.0177  -13.8107  -47.1815 C.3       1 UNK         0.1400 
      6 C6          3.6270  -15.1962  -47.5159 C.3       23 UNK        -0.0398 
      7 S7          5.1637  -15.1583  -48.5053 S.3       23 UNK        -0.2404 
      8 C8          4.5485  -15.5137  -50.1852 C.3       23 UNK        -0.0205 
      9 C9          3.9304  -16.8998  -50.3063 C.ar      23 UNK        -0.0193 
     10 C10         2.5712  -17.0473  -50.5951 C.ar      23 UNK        -0.1150 
     11 C11         2.0092  -18.3188  -50.7384 C.ar      23 UNK        -0.0193 
     12 C12         2.8175  -19.4500  -50.5797 C.ar      23 UNK        -0.1150 
     13 C13         4.1807  -19.3185  -50.2786 C.ar      23 UNK        -0.0193 
     14 C14         4.7255  -18.0376  -50.1524 C.ar      23 UNK        -0.1150 
     15 C15         5.1115  -20.5226  -50.1242 C.3       23 UNK        -0.0205 
     16 S16         4.3325  -22.0491  -49.4995 S.3       23 UNK        -0.2404 
     17 C17         3.7507  -21.5174  -47.8512 C.3       23 UNK        -0.0398 
     18 CA          3.1835  -22.6656  -46.9731 C.3       11 UNK         0.1400 
     19 N           2.6748  -22.1576  -45.7027 N.am      11 UNK        -0.5000 
     20 C           2.6269  -22.8562  -44.5612 C.2       10 UNK         0.5000 
     21 O           3.0975  -23.9863  -44.4288 O.2       10 UNK        -0.5000 
     22 CA          1.9310  -22.1820  -43.3625 C.3       10 UNK         0.1400 
     23 CB          2.9621  -21.4501  -42.4900 C.3       10 UNK        -0.1800 
     24 N           0.8815  -21.2421  -43.7625 N.am      10 UNK        -0.5000 
     25 C          -0.2650  -21.5959  -44.3600 C.2       9 UNK         0.5000 
     26 O          -0.5994  -22.7627  -44.5528 O.2       9 UNK        -0.5000 
     27 CA         -1.1833  -20.4638  -44.8513 C.3       9 UNK         0.1400 
     28 CB         -2.1849  -20.0753  -43.7566 C.3       9 UNK        -0.1800 
     29 N          -0.4639  -19.2682  -45.2887 N.am      9 UNK        -0.5000 
     30 C           0.3897  -19.2078  -46.3190 C.2       8 UNK         0.5000 
     31 O           0.6924  -20.1751  -47.0164 O.2       8 UNK        -0.5000 
     32 CA          1.0336  -17.8408  -46.5926 C.3       8 UNK         0.1400 
     33 CB          0.0468  -16.8965  -47.2982 C.3       8 UNK        -0.1800 
     34 N           1.4910  -17.2246  -45.3492 N.am      8 UNK        -0.5000 
     35 C           2.6214  -17.5626  -44.7134 C.2       7 UNK         0.5000 
     36 O           3.4305  -18.3824  -45.1469 O.2       7 UNK        -0.5000 
     37 CA          2.8885  -16.8723  -43.3617 C.3       7 UNK         0.1400 
     38 CB          3.6327  -15.5444  -43.5735 C.3       7 UNK        -0.1800 
     39 N           1.6682  -16.6193  -42.5927 N.am      7 UNK        -0.5000 
     40 C           0.8867  -17.5772  -42.0750 C.2       6 UNK         0.5000 
     41 O           1.1182  -18.7801  -42.1826 O.2       6 UNK        -0.5000 
     42 CA         -0.3983  -17.1145  -41.3624 C.3       6 UNK         0.1400 
     43 CB         -0.1014  -16.7587  -39.8980 C.3       6 UNK        -0.1800 
     44 N          -1.0765  -15.9850  -42.0084 N.am      6 UNK        -0.5000 
     45 C          -1.4735  -15.9463  -43.2876 C.2       5 UNK         0.5000 
     46 O          -1.2197  -16.8274  -44.1112 O.2       5 UNK        -0.5000 
     47 CA         -2.2252  -14.6809  -43.7326 C.3       5 UNK         0.1400 
     48 CB         -1.2199  -13.5923  -44.1416 C.3       5 UNK        -0.1800 
     49 N          -3.1178  -14.9298  -44.8630 N.am      5 UNK        -0.5000 
     50 C          -4.1801  -15.7426  -44.8858 C.2       4 UNK         0.5000 
     51 O          -4.5797  -16.3605  -43.8978 O.2       4 UNK        -0.5000 
     52 CA         -4.9502  -15.8799  -46.2206 C.3       4 UNK         0.1400 
     53 CB         -6.1253  -14.8858  -46.2701 C.3       4 UNK        -0.1800 
     54 N          -4.1570  -15.7950  -47.4591 N.am      4 UNK        -0.5000 
     55 C          -3.4181  -14.7839  -47.9321 C.2       3 UNK         0.5000 
     56 O          -3.2365  -13.7177  -47.3369 O.2       3 UNK        -0.5000 
     57 CA         -2.7586  -14.9944  -49.3013 C.3       3 UNK         0.1400 
     58 CB         -3.7433  -14.6681  -50.4386 C.3       3 UNK        -0.1800 
     59 N          -1.5979  -14.1142  -49.3607 N.am      3 UNK        -0.5000 
     60 C          -0.6107  -14.1414  -50.2601 C.2       2 UNK         0.5000 
     61 O          -0.5410  -14.9424  -51.1898 O.2       2 UNK        -0.5000 
     62 CA          0.5237  -13.1376  -50.0285 C.3       2 UNK         0.1400 
     63 CB          0.0152  -11.6828  -49.9662 C.3       2 UNK        -0.1800 
     64 N           1.2077  -13.5155  -48.7959 N.am      2 UNK        -0.5000 
     65 C           2.4352  -13.1268  -48.4378 C.2       1 UNK         0.5000 
     66 O           3.1104  -12.3131  -49.0735 O.2       1 UNK        -0.5000 
     67 C           2.0734  -23.4759  -47.6729 C.2       11 UNK         0.5000 
     68 O           2.2264  -24.6814  -47.8765 O.2       11 UNK        -0.5000 
     69 N           0.9771  -22.7970  -48.0283 N.am      12 UNK        -0.5000 
     70 CA         -0.0790  -23.3153  -48.8913 C.3       12 UNK         0.1400 
     71 CB         -0.3961  -22.2592  -49.9568 C.3       12 UNK        -0.1800 
     72 C          -1.3147  -23.7341  -48.0801 C.2       12 UNK         0.5000 
     73 O          -2.4321  -23.2966  -48.3675 O.2       12 UNK        -0.5000 
     74 N          -1.0993  -24.6101  -47.0909 N.am      13 UNK        -0.5000 
     75 CA         -2.1460  -25.1923  -46.2459 C.3       13 UNK         0.1400 
     76 CB         -1.5018  -26.0948  -45.1828 C.3       13 UNK        -0.1800 
     77 C          -3.1933  -25.9741  -47.0604 C.2       13 UNK         0.5000 
     78 O          -4.3925  -25.8322  -46.8166 O.2       13 UNK        -0.5000 
     79 N          -2.7079  -26.7275  -48.0582 N.am      14 UNK        -0.5000 
     80 CA         -3.4982  -27.5185  -49.0030 C.3       14 UNK         0.1400 
     81 CB         -2.5488  -28.4215  -49.8053 C.3       14 UNK        -0.1800 
     82 C          -4.3719  -26.6777  -49.9554 C.2       14 UNK         0.5000 
     83 O          -5.3449  -27.2048  -50.4943 O.2       14 UNK        -0.5000 
     84 N          -4.0484  -25.3870  -50.1212 N.am      15 UNK        -0.5000 
     85 CA         -4.8283  -24.4141  -50.8901 C.3       15 UNK         0.1400 
     86 CB         -3.8693  -23.4242  -51.5753 C.3       15 UNK        -0.1800 
     87 C          -5.8627  -23.6992  -49.9954 C.2       15 UNK         0.5000 
     88 O          -6.1001  -22.5042  -50.1713 O.2       15 UNK        -0.5000 
     89 N          -6.4373  -24.4395  -49.0342 N.am      16 UNK        -0.5000 
     90 CA         -7.4178  -24.0088  -48.0336 C.3       16 UNK         0.1400 
     91 CB         -8.7795  -23.7261  -48.7010 C.3       16 UNK        -0.1800 
     92 C          -6.9030  -22.8378  -47.1727 C.2       16 UNK         0.5000 
     93 O          -7.6064  -21.8413  -47.0007 O.2       16 UNK        -0.5000 
     94 N          -5.6680  -22.9877  -46.6677 N.am      17 UNK        -0.5000 
     95 CA         -4.9064  -21.9870  -45.9105 C.3       17 UNK         0.1400 
     96 CB         -5.5781  -21.6978  -44.5503 C.3       17 UNK        -0.1800 
     97 C          -4.6324  -20.7175  -46.7446 C.2       17 UNK         0.5000 
     98 O          -4.9093  -19.6044  -46.2959 O.2       17 UNK        -0.5000 
     99 N          -4.0874  -20.9319  -47.9512 N.am      18 UNK        -0.5000 
    100 CA        -3.7308  -19.9324  -48.9606 C.3       18 UNK         0.1400 
    101 CB        -2.5190  -19.1076  -48.4885 C.3       18 UNK        -0.1800 
    102 C         -4.9181  -19.0445  -49.3827 C.2       18 UNK         0.5000 
    103 O         -4.8205  -17.8149  -49.3318 O.2       18 UNK        -0.5000 
    104 N         -6.0313  -19.6765  -49.7744 N.am      19 UNK        -0.5000 
    105 CA        -7.2495  -19.0190  -50.2448 C.3       19 UNK         0.1400 
    106 CB        -8.4252  -20.0047  -50.1394 C.3       19 UNK        -0.1800 
    107 C         -7.0633  -18.4791  -51.6762 C.2       19 UNK         0.5000 
    108 O         -7.5340  -19.0901  -52.6378 O.2       19 UNK        -0.5000 
    109 N         -6.3284  -17.3643  -51.7858 N.am      20 UNK        -0.5000 
    110 CA        -5.9044  -16.6389  -52.9921 C.3       20 UNK         0.1400 
    111 CB        -7.1045  -16.1951  -53.8504 C.3       20 UNK        -0.1800 
    112 C         -4.8533  -17.3909  -53.8314 C.2       20 UNK         0.5000 
    113 O         -3.8564  -16.7891  -54.2316 O.2       20 UNK        -0.5000 
    114 N         -5.0799  -18.6864  -54.0678 N.am      21 UNK        -0.5000 
    115 CA        -4.1257  -19.6124  -54.6680 C.3       21 UNK         0.1400 
    116 CB        -4.8947  -20.8383  -55.1849 C.3       21 UNK        -0.1800 
    117 C         -3.0598  -20.0426  -53.6442 C.2       21 UNK         0.5000 
    118 O         -3.3454  -20.0901  -52.4454 O.2       21 UNK        -0.5000 
    119 N         -1.8707  -20.3896  -54.1478 N.am      22 UNK        -0.5000 
    120 CA        -0.7388  -20.9109  -53.3595 C.3       22 UNK         0.1400 
    121 C         -0.3880  -22.3888  -53.7056 C.2       22 UNK         0.5000 
    122 N         -1.1899  -23.0992  -54.4902 N.am      22 UNK        -0.7600 
    123 O          0.6218  -22.9120  -53.2444 O.2       22 UNK        -0.5000 
    124 C124        0.5088  -19.9895  -53.4364 C.3       23 UNK        -0.0398 
    125 S125        0.1771  -18.2996  -52.8332 S.3       23 UNK        -0.2404 
    126 C126        0.5263  -18.4571  -51.0532 C.3       23 UNK        -0.0205 
    127 H127        4.7226  -11.0319  -44.0897 H         1 UNK         0.0600 
    128 H128        4.7441  -10.0330  -45.5475 H         1 UNK         0.0600 
    129 H129        5.7650  -11.4706  -45.4461 H         1 UNK         0.0600 
    130 H130        4.9486  -13.1461  -46.6795 H         1 UNK         0.3000 
    131 H131        2.1866  -13.9858  -46.4942 H         1 UNK         0.0600 
    132 H132        3.8734  -15.7061  -46.5857 H         1 UNK         0.0800 
    133 H133        2.8893  -15.8346  -48.0004 H         1 UNK         0.0800 
    134 H134        3.8373  -14.7426  -50.4839 H         1 UNK         0.0800 
    135 H135        5.3828  -15.4396  -50.8840 H         1 UNK         0.0800 
    136 H136        1.9483  -16.1730  -50.7231 H         1 UNK         0.1150 
    137 H137        2.3828  -20.4319  -50.6943 H         1 UNK         0.1150 
    138 H138        5.7782  -17.9202  -49.9356 H         1 UNK         0.1150 
    139 H139        5.5536  -20.7371  -51.0978 H         1 UNK         0.0800 
    140 H140        5.9401  -20.2709  -49.4601 H         1 UNK         0.0800 
    141 H141        3.0055  -20.7349  -47.9923 H         1 UNK         0.0800 
    142 H142        4.5836  -21.0424  -47.3309 H         1 UNK         0.0800 
    143 H143        4.0092  -23.3518  -46.7715 H         1 UNK         0.0600 
    144 H144        2.2191  -21.2553  -45.7324 H         1 UNK         0.3000 
    145 H145        1.4712  -22.9696  -42.7619 H         1 UNK         0.0600 
    146 H146        2.5047  -21.0688  -41.5771 H         1 UNK         0.0600 
    147 H147        3.7702  -22.1191  -42.1912 H         1 UNK         0.0600 
    148 H148        3.4093  -20.6071  -43.0188 H         1 UNK         0.0600 
    149 H149        1.0391  -20.2637  -43.5433 H         1 UNK         0.3000 
    150 H150       -1.7393  -20.8459  -45.7096 H         1 UNK         0.0600 
    151 H151       -2.7261  -20.9495  -43.3944 H         1 UNK         0.0600 
    152 H152       -2.9190  -19.3592  -44.1278 H         1 UNK         0.0600 
    153 H153       -1.6829  -19.6271  -42.9000 H         1 UNK         0.0600 
    154 H154       -0.6804  -18.4065  -44.7906 H         1 UNK         0.3000 
    155 H155        1.8900  -17.9957  -47.2531 H         1 UNK         0.0600 
    156 H156       -0.2256  -17.2862  -48.2771 H         1 UNK         0.0600 
    157 H157       -0.8759  -16.7656  -46.7322 H         1 UNK         0.0600 
    158 H158        0.4825  -15.9119  -47.4513 H         1 UNK         0.0600 
    159 H159        0.8304  -16.6233  -44.8749 H         1 UNK         0.3000 
    160 H160        3.5280  -17.5343  -42.7739 H         1 UNK         0.0600 
    161 H161        3.0286  -14.8261  -44.1289 H         1 UNK         0.0600 
    162 H162        4.5577  -15.6979  -44.1309 H         1 UNK         0.0600 
    163 H163        3.9029  -15.0882  -42.6210 H         1 UNK         0.0600 
    164 H164        1.3997  -15.6555  -42.4604 H         1 UNK         0.3000 
    165 H165       -1.0945  -17.9545  -41.3678 H         1 UNK         0.0600 
    166 H166       -1.0183  -16.5374  -39.3515 H         1 UNK         0.0600 
    167 H167        0.3875  -17.5885  -39.3855 H         1 UNK         0.0600 
    168 H168        0.5552  -15.8913  -39.8189 H         1 UNK         0.0600 
    169 H169       -1.3040  -15.2052  -41.4086 H         1 UNK         0.3000 
    170 H170       -2.8294  -14.3184  -42.8988 H         1 UNK         0.0600 
    171 H171       -0.6029  -13.9104  -44.9834 H         1 UNK         0.0600 
    172 H172       -1.7303  -12.6736  -44.4316 H         1 UNK         0.0600 
    173 H173       -0.5493  -13.3431  -43.3183 H         1 UNK         0.0600 
    174 H174       -2.9181  -14.4245  -45.7220 H         1 UNK         0.3000 
    175 H175       -5.3742  -16.8852  -46.2222 H         1 UNK         0.0600 
    176 H176       -6.7371  -15.0442  -47.1583 H         1 UNK         0.0600 
    177 H177       -5.7811  -13.8512  -46.2790 H         1 UNK         0.0600 
    178 H178       -6.7752  -15.0061  -45.4024 H         1 UNK         0.0600 
    179 H179       -4.2634  -16.6076  -48.0645 H         1 UNK         0.3000 
    180 H180       -2.4281  -16.0316  -49.3810 H         1 UNK         0.0600 
    181 H181       -3.3161  -14.9032  -51.4135 H         1 UNK         0.0600 
    182 H182       -4.0209  -13.6134  -50.4378 H         1 UNK         0.0600 
    183 H183       -4.6610  -15.2472  -50.3383 H         1 UNK         0.0600 
    184 H184       -1.5896  -13.4228  -48.6199 H         1 UNK         0.3000 
    185 H185        1.2219  -13.2296  -50.8635 H         1 UNK         0.0600 
    186 H186        0.8442  -10.9756  -49.9426 H         1 UNK         0.0600 
    187 H187       -0.5871  -11.4424  -50.8432 H         1 UNK         0.0600 
    188 H188       -0.5984  -11.5009  -49.0834 H         1 UNK         0.0600 
    189 H189        0.7183  -14.1948  -48.2319 H         1 UNK         0.3000 
    190 H190        0.8827  -21.8245  -47.7397 H         1 UNK         0.3000 
    191 H191        0.2686  -24.2059  -49.4188 H         1 UNK         0.0600 
    192 H192        0.5007  -21.9813  -50.5101 H         1 UNK         0.0600 
    193 H193       -1.1118  -22.6489  -50.6786 H         1 UNK         0.0600 
    194 H194       -0.8170  -21.3556  -49.5211 H         1 UNK         0.0600 
    195 H195       -0.1482  -24.8937  -46.9014 H         1 UNK         0.3000 
    196 H196       -2.6571  -24.3759  -45.7345 H         1 UNK         0.0600 
    197 H197       -2.2589  -26.5263  -44.5267 H         1 UNK         0.0600 
    198 H198       -0.8121  -25.5316  -44.5539 H         1 UNK         0.0600 
    199 H199       -0.9471  -26.9190  -45.6328 H         1 UNK         0.0600 
    200 H200       -1.7064  -26.7577  -48.1809 H         1 UNK         0.3000 
    201 H201       -4.1701  -28.1555  -48.4242 H         1 UNK         0.0600 
    202 H202       -1.9833  -29.0828  -49.1485 H         1 UNK         0.0600 
    203 H203       -1.8368  -27.8376  -50.3900 H         1 UNK         0.0600 
    204 H204       -3.1034  -29.0539  -50.5000 H         1 UNK         0.0600 
    205 H205       -3.2797  -25.0070  -49.5851 H         1 UNK         0.3000 
    206 H206       -5.3844  -24.9292  -51.6758 H         1 UNK         0.0600 
    207 H207       -4.4055  -22.7877  -52.2800 H         1 UNK         0.0600 
    208 H208       -3.3894  -22.7671  -50.8514 H         1 UNK         0.0600 
    209 H209       -3.0897  -23.9416  -52.1343 H         1 UNK         0.0600 
    210 H210       -6.1460  -25.4043  -48.9637 H         1 UNK         0.3000 
    211 H211       -7.5539  -24.8498  -47.3521 H         1 UNK         0.0600 
    212 H212       -8.7241  -22.8889  -49.3960 H         1 UNK         0.0600 
    213 H213       -9.5386  -23.4844  -47.9563 H         1 UNK         0.0600 
    214 H214       -9.1340  -24.5957  -49.2542 H         1 UNK         0.0600 
    215 H215       -5.1853  -23.8577  -46.8646 H         1 UNK         0.3000 
    216 H216       -3.9303  -22.4260  -45.7037 H         1 UNK         0.0600 
    217 H217       -4.9848  -21.0039  -43.9563 H         1 UNK         0.0600 
    218 H218       -5.6918  -22.6108  -43.9661 H         1 UNK         0.0600 
    219 H219       -6.5646  -21.2493  -44.6670 H         1 UNK         0.0600 
    220 H220       -3.8554  -21.8879  -48.2012 H         1 UNK         0.3000 
    221 H221       -3.4262  -20.4909  -49.8455 H         1 UNK         0.0600 
    222 H222       -2.7588  -18.4811  -47.6287 H         1 UNK         0.0600 
    223 H223       -1.6973  -19.7588  -48.2025 H         1 UNK         0.0600 
    224 H224       -2.1592  -18.4593  -49.2873 H         1 UNK         0.0600 
    225 H225       -6.0267  -20.6940  -49.8248 H         1 UNK         0.3000 
    226 H226       -7.4686  -18.1727  -49.5902 H         1 UNK         0.0600 
    227 H227       -8.5715  -20.3327  -49.1104 H         1 UNK         0.0600 
    228 H228       -9.3553  -19.5403  -50.4686 H         1 UNK         0.0600 
    229 H229       -8.2643  -20.8911  -50.7539 H         1 UNK         0.0600 
    230 H230       -5.8980  -17.0428  -50.9254 H         1 UNK         0.3000 
    231 H231       -5.4201  -15.7310  -52.6317 H         1 UNK         0.0600 
    232 H232       -7.6292  -17.0415  -54.2940 H         1 UNK         0.0600 
    233 H233       -6.7766  -15.5540  -54.6695 H         1 UNK         0.0600 
    234 H234       -7.8227  -15.6262  -53.2599 H         1 UNK         0.0600 
    235 H235       -5.9201  -19.0905  -53.6652 H         1 UNK         0.3000 
    236 H236       -3.6353  -19.1207  -55.5108 H         1 UNK         0.0600 
    237 H237       -5.6489  -20.5500  -55.9174 H         1 UNK         0.0600 
    238 H238       -4.2244  -21.5472  -55.6720 H         1 UNK         0.0600 
    239 H239       -5.4000  -21.3659  -54.3744 H         1 UNK         0.0600 
    240 H240       -1.7163  -20.3247  -55.1437 H         1 UNK         0.3000 
    241 H241       -1.0315  -20.9461  -52.3111 H         1 UNK         0.0600 
    242 H242       -2.0367  -22.7028  -54.8628 H         1 UNK         0.3800 
    243 H243       -0.9493  -24.0546  -54.7023 H         1 UNK         0.3800 
    244 H244        1.3396  -20.4048  -52.8653 H         1 UNK         0.0800 
    245 H245        0.8598  -19.9186  -54.4668 H         1 UNK         0.0800 
    246 H246        0.1343  -19.4005  -50.6733 H         1 UNK         0.0800 
    247 H247       -0.0264  -17.6715  -50.5382 H         1 UNK         0.0800 
@<TRIPOS>BOND
     1    1    2 1    
     2    1  127 1    
     3    1  128 1    
     4    1  129 1    
     5    2    3 2    
     6    2    4 am   BACKBONE|DICT|INTERRES
     7    4    5 1    
     8    4  130 1    
     9    5    6 1    
    10    5   65 1    
    11    5  131 1    
    12    6    7 1    
    13    6  132 1    
    14    6  133 1    
    15    7    8 1    
    16    8    9 1    
    17    8  134 1    
    18    8  135 1    
    19    9   10 ar   
    20    9   14 ar   
    21   10   11 ar   
    22   10  136 1    
    23   11   12 ar   
    24   11  126 1    
    25   12   13 ar   
    26   12  137 1    
    27   13   14 ar   
    28   13   15 1    
    29   14  138 1    
    30   15   16 1    
    31   15  139 1    
    32   15  140 1    
    33   16   17 1    
    34   17   18 1    
    35   17  141 1    
    36   17  142 1    
    37   18   19 1    
    38   18   67 1    
    39   18  143 1    
    40   19   20 am   BACKBONE|DICT|INTERRES
    41   19  144 1    
    42   20   21 2    
    43   20   22 1    
    44   22   23 1    
    45   22   24 1    
    46   22  145 1    
    47   23  146 1    
    48   23  147 1    
    49   23  148 1    
    50   24   25 am   BACKBONE|DICT|INTERRES
    51   24  149 1    
    52   25   26 2    
    53   25   27 1    
    54   27   28 1    
    55   27   29 1    
    56   27  150 1    
    57   28  151 1    
    58   28  152 1    
    59   28  153 1    
    60   29   30 am   BACKBONE|DICT|INTERRES
    61   29  154 1    
    62   30   31 2    
    63   30   32 1    
    64   32   33 1    
    65   32   34 1    
    66   32  155 1    
    67   33  156 1    
    68   33  157 1    
    69   33  158 1    
    70   34   35 am   BACKBONE|DICT|INTERRES
    71   34  159 1    
    72   35   36 2    
    73   35   37 1    
    74   37   38 1    
    75   37   39 1    
    76   37  160 1    
    77   38  161 1    
    78   38  162 1    
    79   38  163 1    
    80   39   40 am   BACKBONE|DICT|INTERRES
    81   39  164 1    
    82   40   41 2    
    83   40   42 1    
    84   42   43 1    
    85   42   44 1    
    86   42  165 1    
    87   43  166 1    
    88   43  167 1    
    89   43  168 1    
    90   44   45 am   BACKBONE|DICT|INTERRES
    91   44  169 1    
    92   45   46 2    
    93   45   47 1    
    94   47   48 1    
    95   47   49 1    
    96   47  170 1    
    97   48  171 1    
    98   48  172 1    
    99   48  173 1    
   100   49   50 am   BACKBONE|DICT|INTERRES
   101   49  174 1    
   102   50   51 2    
   103   50   52 1    
   104   52   53 1    
   105   52   54 1    
   106   52  175 1    
   107   53  176 1    
   108   53  177 1    
   109   53  178 1    
   110   54   55 am   BACKBONE|DICT|INTERRES
   111   54  179 1    
   112   55   56 2    
   113   55   57 1    
   114   57   58 1    
   115   57   59 1    
   116   57  180 1    
   117   58  181 1    
   118   58  182 1    
   119   58  183 1    
   120   59   60 am   BACKBONE|DICT|INTERRES
   121   59  184 1    
   122   60   61 2    
   123   60   62 1    
   124   62   63 1    
   125   62   64 1    
   126   62  185 1    
   127   63  186 1    
   128   63  187 1    
   129   63  188 1    
   130   64   65 am   BACKBONE|DICT|INTERRES
   131   64  189 1    
   132   65   66 2    
   133   67   68 2    
   134   67   69 am   BACKBONE|DICT|INTERRES
   135   69   70 1    
   136   69  190 1    
   137   70   71 1    
   138   70   72 1    
   139   70  191 1    
   140   71  192 1    
   141   71  193 1    
   142   71  194 1    
   143   72   73 2    
   144   72   74 am   BACKBONE|DICT|INTERRES
   145   74   75 1    
   146   74  195 1    
   147   75   76 1    
   148   75   77 1    
   149   75  196 1    
   150   76  197 1    
   151   76  198 1    
   152   76  199 1    
   153   77   78 2    
   154   77   79 am   BACKBONE|DICT|INTERRES
   155   79   80 1    
   156   79  200 1    
   157   80   81 1    
   158   80   82 1    
   159   80  201 1    
   160   81  202 1    
   161   81  203 1    
   162   81  204 1    
   163   82   83 2    
   164   82   84 am   BACKBONE|DICT|INTERRES
   165   84   85 1    
   166   84  205 1    
   167   85   86 1    
   168   85   87 1    
   169   85  206 1    
   170   86  207 1    
   171   86  208 1    
   172   86  209 1    
   173   87   88 2    
   174   87   89 am   BACKBONE|DICT|INTERRES
   175   89   90 1    
   176   89  210 1    
   177   90   91 1    
   178   90   92 1    
   179   90  211 1    
   180   91  212 1    
   181   91  213 1    
   182   91  214 1    
   183   92   93 2    
   184   92   94 am   BACKBONE|DICT|INTERRES
   185   94   95 1    
   186   94  215 1    
   187   95   96 1    
   188   95   97 1    
   189   95  216 1    
   190   96  217 1    
   191   96  218 1    
   192   96  219 1    
   193   97   98 2    
   194   97   99 am   BACKBONE|DICT|INTERRES
   195   99  100 1    
   196   99  220 1    
   197  100  101 1    
   198  100  102 1    
   199  100  221 1    
   200  101  222 1    
   201  101  223 1    
   202  101  224 1    
   203  102  103 2    
   204  102  104 am   BACKBONE|DICT|INTERRES
   205  104  105 1    
   206  104  225 1    
   207  105  106 1    
   208  105  107 1    
   209  105  226 1    
   210  106  227 1    
   211  106  228 1    
   212  106  229 1    
   213  107  108 2    
   214  107  109 am   BACKBONE|DICT|INTERRES
   215  109  110 1    
   216  109  230 1    
   217  110  111 1    
   218  110  112 1    
   219  110  231 1    
   220  111  232 1    
   221  111  233 1    
   222  111  234 1    
   223  112  113 2    
   224  112  114 am   BACKBONE|DICT|INTERRES
   225  114  115 1    
   226  114  235 1    
   227  115  116 1    
   228  115  117 1    
   229  115  236 1    
   230  116  237 1    
   231  116  238 1    
   232  116  239 1    
   233  117  118 2    
   234  117  119 am   BACKBONE|DICT|INTERRES
   235  119  120 1    
   236  119  240 1    
   237  120  121 1    
   238  120  124 1    
   239  120  241 1    
   240  121  122 am   BACKBONE|DICT|INTERRES
   241  121  123 2    
   242  122  242 1    
   243  122  243 1    
   244  124  125 1    
   245  124  244 1    
   246  124  245 1    
   247  125  126 1    
   248  126  246 1    
   249  126  247 1    
@<TRIPOS>SUBSTRUCTURE
     1 UNK         1 GROUP             0       ****    0 ROOT    
