@<TRIPOS>MOLECULE
3R540
247   249    1
SMALL
USER_CHARGES


@<TRIPOS>ATOM
      1 CA          5.5336  -13.6930  -47.6952 C.3       0 UNK        -0.1800 
      2 C           4.1574  -13.1476  -47.3474 C.2       0 UNK         0.5000 
      3 O           3.7379  -13.2284  -46.1945 O.2       0 UNK        -0.5000 
      4 N           3.4478  -12.5777  -48.3291 N.am      1 UNK        -0.5000 
      5 CA          2.0778  -12.0629  -48.1758 C.3       1 UNK         0.1400 
      6 C6          1.3708  -11.8445  -49.5358 C.3       23 UNK        -0.0398 
      7 S7          1.2870  -13.3811  -50.5181 S.3       23 UNK        -0.2404 
      8 C8         -0.1599  -14.1761  -49.7500 C.3       23 UNK        -0.0205 
      9 C9         -0.2715  -15.6486  -50.1136 C.ar      23 UNK        -0.0193 
     10 C10        -1.3957  -16.1244  -50.7937 C.ar      23 UNK        -0.1150 
     11 C11        -1.5350  -17.4873  -51.0696 C.ar      23 UNK        -0.0193 
     12 C12        -0.5352  -18.3776  -50.6641 C.ar      23 UNK        -0.1150 
     13 C13         0.5941  -17.9147  -49.9799 C.ar      23 UNK        -0.0193 
     14 C14         0.7223  -16.5485  -49.7157 C.ar      23 UNK        -0.1150 
     15 C15         1.6609  -18.8939  -49.5024 C.3       23 UNK        -0.0205 
     16 S16         1.7620  -19.0107  -47.6807 S.3       23 UNK        -0.2404 
     17 C17         0.0672  -19.5199  -47.2426 C.3       23 UNK        -0.0398 
     18 CA         -0.0714  -21.0586  -47.1562 C.3       11 UNK         0.1400 
     19 N           0.3618  -21.5759  -45.8562 N.am      11 UNK        -0.5000 
     20 C           0.3691  -22.8660  -45.4926 C.2       10 UNK         0.5000 
     21 O           0.1009  -23.7922  -46.2579 O.2       10 UNK        -0.5000 
     22 CA          0.6662  -23.1748  -44.0128 C.3       10 UNK         0.1400 
     23 CB          2.1347  -23.5884  -43.8389 C.3       10 UNK        -0.1800 
     24 N           0.3720  -22.0754  -43.0878 N.am      10 UNK        -0.5000 
     25 C          -0.8011  -21.4483  -42.9237 C.2       9 UNK         0.5000 
     26 O          -1.8047  -21.7095  -43.5884 O.2       9 UNK        -0.5000 
     27 CA         -0.8680  -20.3085  -41.8857 C.3       9 UNK         0.1400 
     28 CB         -1.5970  -20.7626  -40.6077 C.3       9 UNK        -0.1800 
     29 N           0.4181  -19.6714  -41.5667 N.am      9 UNK        -0.5000 
     30 C           1.4817  -20.1739  -40.9217 C.2       8 UNK         0.5000 
     31 O           1.5619  -21.3370  -40.5278 O.2       8 UNK        -0.5000 
     32 CA          2.6726  -19.2229  -40.7116 C.3       8 UNK         0.1400 
     33 CB          3.6040  -19.2644  -41.9330 C.3       8 UNK        -0.1800 
     34 N           2.2548  -17.8426  -40.4652 N.am      8 UNK        -0.5000 
     35 C           1.6496  -17.4169  -39.3472 C.2       7 UNK         0.5000 
     36 O           1.4377  -18.1328  -38.3675 O.2       7 UNK        -0.5000 
     37 CA          1.1808  -15.9499  -39.3299 C.3       7 UNK         0.1400 
     38 CB          2.3466  -15.0033  -39.0061 C.3       7 UNK        -0.1800 
     39 N           0.5593  -15.5451  -40.5910 N.am      7 UNK        -0.5000 
     40 C          -0.5997  -16.0282  -41.0608 C.2       6 UNK         0.5000 
     41 O          -1.3027  -16.8383  -40.4570 O.2       6 UNK        -0.5000 
     42 CA         -1.0343  -15.5449  -42.4545 C.3       6 UNK         0.1400 
     43 CB         -1.7735  -14.2008  -42.3658 C.3       6 UNK        -0.1800 
     44 N           0.0987  -15.4206  -43.3701 N.am      6 UNK        -0.5000 
     45 C           0.7444  -16.4574  -43.9208 C.2       5 UNK         0.5000 
     46 O           0.4412  -17.6356  -43.7290 O.2       5 UNK        -0.5000 
     47 CA          1.9464  -16.1132  -44.8188 C.3       5 UNK         0.1400 
     48 CB          1.4569  -15.6968  -46.2143 C.3       5 UNK        -0.1800 
     49 N           2.7881  -15.0461  -44.2741 N.am      5 UNK        -0.5000 
     50 C           3.4245  -15.0763  -43.0964 C.2       4 UNK         0.5000 
     51 O           3.4098  -16.0429  -42.3366 O.2       4 UNK        -0.5000 
     52 CA          4.1444  -13.7853  -42.6626 C.3       4 UNK         0.1400 
     53 CB          5.5555  -13.7047  -43.2639 C.3       4 UNK        -0.1800 
     54 N           3.3967  -12.5627  -42.9748 N.am      4 UNK        -0.5000 
     55 C           2.1766  -12.2696  -42.5060 C.2       3 UNK         0.5000 
     56 O           1.5272  -13.0432  -41.8011 O.2       3 UNK        -0.5000 
     57 CA          1.5463  -10.9103  -42.8747 C.3       3 UNK         0.1400 
     58 CB          1.6854   -9.9131  -41.7092 C.3       3 UNK        -0.1800 
     59 N           1.9855  -10.3070  -44.1412 N.am      3 UNK        -0.5000 
     60 C           3.1789   -9.8042  -44.4844 C.2       2 UNK         0.5000 
     61 O           4.1773   -9.8577  -43.7650 O.2       2 UNK        -0.5000 
     62 CA          3.2646   -9.1782  -45.8951 C.3       2 UNK         0.1400 
     63 CB          4.5868   -8.4264  -46.1306 C.3       2 UNK        -0.1800 
     64 N           3.1184  -10.2012  -46.9292 N.am      2 UNK        -0.5000 
     65 C           1.9766  -10.8131  -47.2719 C.2       1 UNK         0.5000 
     66 O           0.8727  -10.4573  -46.8552 O.2       1 UNK        -0.5000 
     67 C          -1.5088  -21.4818  -47.5203 C.2       11 UNK         0.5000 
     68 O          -1.7558  -21.7829  -48.6858 O.2       11 UNK        -0.5000 
     69 N          -2.4205  -21.5332  -46.5367 N.am      12 UNK        -0.5000 
     70 CA         -3.8099  -21.9469  -46.7472 C.3       12 UNK         0.1400 
     71 CB         -4.6449  -21.6123  -45.5029 C.3       12 UNK        -0.1800 
     72 C          -3.9301  -23.4398  -47.0986 C.2       12 UNK         0.5000 
     73 O          -4.7478  -23.8012  -47.9459 O.2       12 UNK        -0.5000 
     74 N          -3.0895  -24.2706  -46.4674 N.am      13 UNK        -0.5000 
     75 CA         -2.9831  -25.7013  -46.7429 C.3       13 UNK         0.1400 
     76 CB         -2.2234  -26.3947  -45.6015 C.3       13 UNK        -0.1800 
     77 C          -2.3122  -25.9662  -48.1008 C.2       13 UNK         0.5000 
     78 O          -2.8269  -26.7649  -48.8832 O.2       13 UNK        -0.5000 
     79 N          -1.2056  -25.2592  -48.3738 N.am      14 UNK        -0.5000 
     80 CA         -0.4450  -25.3363  -49.6240 C.3       14 UNK         0.1400 
     81 CB          0.8342  -24.4960  -49.4939 C.3       14 UNK        -0.1800 
     82 C          -1.2579  -24.8959  -50.8557 C.2       14 UNK         0.5000 
     83 O          -1.1565  -25.5236  -51.9098 O.2       14 UNK        -0.5000 
     84 N          -2.0740  -23.8474  -50.6881 N.am      15 UNK        -0.5000 
     85 CA         -2.9874  -23.3272  -51.7038 C.3       15 UNK         0.1400 
     86 CB         -3.3025  -21.8632  -51.3728 C.3       15 UNK        -0.1800 
     87 C          -4.2966  -24.1286  -51.8257 C.2       15 UNK         0.5000 
     88 O          -5.0991  -23.8073  -52.7031 O.2       15 UNK        -0.5000 
     89 N          -4.5140  -25.1129  -50.9398 N.am      16 UNK        -0.5000 
     90 CA         -5.6997  -25.9694  -50.8380 C.3       16 UNK         0.1400 
     91 CB         -5.7777  -26.9197  -52.0516 C.3       16 UNK        -0.1800 
     92 C          -6.9913  -25.1530  -50.6274 C.2       16 UNK         0.5000 
     93 O          -7.9632  -25.3300  -51.3614 O.2       16 UNK        -0.5000 
     94 N          -6.9527  -24.2213  -49.6629 N.am      17 UNK        -0.5000 
     95 CA         -7.9939  -23.2288  -49.3625 C.3       17 UNK         0.1400 
     96 CB         -9.2612  -23.9082  -48.8028 C.3       17 UNK        -0.1800 
     97 C          -8.2806  -22.2952  -50.5608 C.2       17 UNK         0.5000 
     98 O          -9.4316  -21.9386  -50.8156 O.2       17 UNK        -0.5000 
     99 N          -7.2046  -21.9440  -51.2796 N.am      18 UNK        -0.5000 
    100 CA        -7.1366  -21.1308  -52.4983 C.3       18 UNK         0.1400 
    101 CB        -7.7678  -19.7381  -52.2972 C.3       18 UNK        -0.1800 
    102 C         -7.6471  -21.8325  -53.7741 C.2       18 UNK         0.5000 
    103 O         -7.6583  -21.1997  -54.8312 O.2       18 UNK        -0.5000 
    104 N         -8.0003  -23.1255  -53.7002 N.am      19 UNK        -0.5000 
    105 CA        -8.4289  -23.9277  -54.8514 C.3       19 UNK         0.1400 
    106 CB        -9.0180  -25.2606  -54.3689 C.3       19 UNK        -0.1800 
    107 C         -7.3037  -24.1784  -55.8749 C.2       19 UNK         0.5000 
    108 O         -7.5951  -24.3411  -57.0603 O.2       19 UNK        -0.5000 
    109 N         -6.0444  -24.1730  -55.4145 N.am      20 UNK        -0.5000 
    110 CA        -4.8488  -24.2825  -56.2533 C.3       20 UNK         0.1400 
    111 CB        -3.7580  -25.0394  -55.4767 C.3       20 UNK        -0.1800 
    112 C         -4.3340  -22.9091  -56.7356 C.2       20 UNK         0.5000 
    113 O         -3.2483  -22.8507  -57.3152 O.2       20 UNK        -0.5000 
    114 N         -5.0863  -21.8269  -56.4697 N.am      21 UNK        -0.5000 
    115 CA        -4.8125  -20.4356  -56.8583 C.3       21 UNK         0.1400 
    116 CB        -4.9862  -20.2630  -58.3813 C.3       21 UNK        -0.1800 
    117 C         -3.4518  -19.9144  -56.3452 C.2       21 UNK         0.5000 
    118 O         -2.7531  -19.1897  -57.0559 O.2       21 UNK        -0.5000 
    119 N         -3.1002  -20.3284  -55.1209 N.am      22 UNK        -0.5000 
    120 CA        -1.8169  -20.0761  -54.4404 C.3       22 UNK         0.1400 
    121 C         -0.6044  -20.8638  -55.0263 C.2       22 UNK         0.5000 
    122 N         -0.7902  -21.8039  -55.9467 N.am      22 UNK        -0.7600 
    123 O          0.5307  -20.6453  -54.6129 O.2       22 UNK        -0.5000 
    124 C124       -1.4878  -18.5687  -54.2250 C.3       23 UNK        -0.0398 
    125 S125       -2.8613  -17.5845  -53.5271 S.3       23 UNK        -0.2404 
    126 C126       -2.7929  -17.9995  -51.7560 C.3       23 UNK        -0.0205 
    127 H127        6.2964  -13.1907  -47.1004 H         1 UNK         0.0600 
    128 H128        5.5772  -14.7599  -47.4769 H         1 UNK         0.0600 
    129 H129        5.7716  -13.5499  -48.7494 H         1 UNK         0.0600 
    130 H130        3.8288  -12.5387  -49.2640 H         1 UNK         0.3000 
    131 H131        1.5187  -12.8324  -47.6419 H         1 UNK         0.0600 
    132 H132        0.3557  -11.4681  -49.3945 H         1 UNK         0.0800 
    133 H133        1.8970  -11.0888  -50.1212 H         1 UNK         0.0800 
    134 H134       -1.0589  -13.6324  -50.0444 H         1 UNK         0.0800 
    135 H135       -0.0974  -14.1013  -48.6644 H         1 UNK         0.0800 
    136 H136       -2.1759  -15.4387  -51.0935 H         1 UNK         0.1150 
    137 H137       -0.6467  -19.4348  -50.8611 H         1 UNK         0.1150 
    138 H138        1.5886  -16.1870  -49.1802 H         1 UNK         0.1150 
    139 H139        1.4805  -19.8897  -49.9105 H         1 UNK         0.0800 
    140 H140        2.6306  -18.5774  -49.8887 H         1 UNK         0.0800 
    141 H141       -0.1982  -19.0558  -46.2910 H         1 UNK         0.0800 
    142 H142       -0.6261  -19.0890  -47.9651 H         1 UNK         0.0800 
    143 H143        0.5754  -21.5110  -47.9103 H         1 UNK         0.0600 
    144 H144        0.6063  -20.8884  -45.1589 H         1 UNK         0.3000 
    145 H145        0.0344  -24.0181  -43.7274 H         1 UNK         0.0600 
    146 H146        2.3372  -23.9044  -42.8153 H         1 UNK         0.0600 
    147 H147        2.3862  -24.4252  -44.4921 H         1 UNK         0.0600 
    148 H148        2.8134  -22.7685  -44.0777 H         1 UNK         0.0600 
    149 H149        1.1076  -21.8282  -42.4367 H         1 UNK         0.3000 
    150 H150       -1.4706  -19.5214  -42.3418 H         1 UNK         0.0600 
    151 H151       -2.6013  -21.1192  -40.8393 H         1 UNK         0.0600 
    152 H152       -1.6995  -19.9384  -39.9013 H         1 UNK         0.0600 
    153 H153       -1.0721  -21.5747  -40.1042 H         1 UNK         0.0600 
    154 H154        0.5093  -18.7310  -41.9344 H         1 UNK         0.3000 
    155 H155        3.2320  -19.5729  -39.8416 H         1 UNK         0.0600 
    156 H156        3.9433  -20.2815  -42.1339 H         1 UNK         0.0600 
    157 H157        4.4910  -18.6516  -41.7721 H         1 UNK         0.0600 
    158 H158        3.1051  -18.8995  -42.8321 H         1 UNK         0.0600 
    159 H159        2.4641  -17.1677  -41.1977 H         1 UNK         0.3000 
    160 H160        0.4329  -15.8477  -38.5408 H         1 UNK         0.0600 
    161 H161        3.1340  -15.0617  -39.7575 H         1 UNK         0.0600 
    162 H162        2.0111  -13.9673  -38.9538 H         1 UNK         0.0600 
    163 H163        2.7936  -15.2511  -38.0427 H         1 UNK         0.0600 
    164 H164        1.0438  -14.8353  -41.1323 H         1 UNK         0.3000 
    165 H165       -1.7265  -16.2844  -42.8634 H         1 UNK         0.0600 
    166 H166       -2.1253  -13.8789  -43.3460 H         1 UNK         0.0600 
    167 H167       -2.6469  -14.2803  -41.7172 H         1 UNK         0.0600 
    168 H168       -1.1377  -13.4127  -41.9618 H         1 UNK         0.0600 
    169 H169        0.4539  -14.4896  -43.5315 H         1 UNK         0.3000 
    170 H170        2.5577  -17.0125  -44.9170 H         1 UNK         0.0600 
    171 H171        0.9449  -14.7347  -46.1903 H         1 UNK         0.0600 
    172 H172        2.2891  -15.6177  -46.9134 H         1 UNK         0.0600 
    173 H173        0.7564  -16.4257  -46.6227 H         1 UNK         0.0600 
    174 H174        2.9385  -14.2347  -44.8703 H         1 UNK         0.3000 
    175 H175        4.2506  -13.8257  -41.5770 H         1 UNK         0.0600 
    176 H176        5.5326  -13.6351  -44.3508 H         1 UNK         0.0600 
    177 H177        6.0954  -12.8367  -42.8851 H         1 UNK         0.0600 
    178 H178        6.1393  -14.5890  -43.0054 H         1 UNK         0.0600 
    179 H179        3.8720  -11.8565  -43.5246 H         1 UNK         0.3000 
    180 H180        0.4808  -11.1047  -43.0068 H         1 UNK         0.0600 
    181 H181        1.2522  -10.3205  -40.7948 H         1 UNK         0.0600 
    182 H182        2.7287   -9.6782  -41.4964 H         1 UNK         0.0600 
    183 H183        1.1672   -8.9787  -41.9248 H         1 UNK         0.0600 
    184 H184        1.2741  -10.2797  -44.8651 H         1 UNK         0.3000 
    185 H185        2.4492   -8.4576  -45.9882 H         1 UNK         0.0600 
    186 H186        4.7294   -7.6442  -45.3839 H         1 UNK         0.0600 
    187 H187        5.4474   -9.0944  -46.0764 H         1 UNK         0.0600 
    188 H188        4.5972   -7.9457  -47.1089 H         1 UNK         0.0600 
    189 H189        3.9761  -10.5908  -47.2920 H         1 UNK         0.3000 
    190 H190       -2.1408  -21.3453  -45.5794 H         1 UNK         0.3000 
    191 H191       -4.2107  -21.3757  -47.5874 H         1 UNK         0.0600 
    192 H192       -5.6943  -21.8659  -45.6586 H         1 UNK         0.0600 
    193 H193       -4.5980  -20.5483  -45.2706 H         1 UNK         0.0600 
    194 H194       -4.3014  -22.1622  -44.6259 H         1 UNK         0.0600 
    195 H195       -2.4241  -23.8795  -45.8165 H         1 UNK         0.3000 
    196 H196       -3.9914  -26.1196  -46.7795 H         1 UNK         0.0600 
    197 H197       -2.1607  -27.4699  -45.7739 H         1 UNK         0.0600 
    198 H198       -2.7285  -26.2481  -44.6467 H         1 UNK         0.0600 
    199 H199       -1.2045  -26.0200  -45.5019 H         1 UNK         0.0600 
    200 H200       -0.8308  -24.6457  -47.6542 H         1 UNK         0.3000 
    201 H201       -0.1559  -26.3787  -49.7717 H         1 UNK         0.0600 
    202 H202        1.4443  -24.8320  -48.6552 H         1 UNK         0.0600 
    203 H203        0.6065  -23.4411  -49.3408 H         1 UNK         0.0600 
    204 H204        1.4456  -24.5730  -50.3938 H         1 UNK         0.0600 
    205 H205       -2.0486  -23.3391  -49.8083 H         1 UNK         0.3000 
    206 H206       -2.4870  -23.3564  -52.6735 H         1 UNK         0.0600 
    207 H207       -2.3838  -21.2935  -51.2390 H         1 UNK         0.0600 
    208 H208       -3.8659  -21.3898  -52.1755 H         1 UNK         0.0600 
    209 H209       -3.8865  -21.7721  -50.4559 H         1 UNK         0.0600 
    210 H210       -3.7952  -25.2942  -50.2508 H         1 UNK         0.3000 
    211 H211       -5.5688  -26.5795  -49.9432 H         1 UNK         0.0600 
    212 H212       -5.9298  -26.3771  -52.9852 H         1 UNK         0.0600 
    213 H213       -6.6036  -27.6237  -51.9444 H         1 UNK         0.0600 
    214 H214       -4.8633  -27.5044  -52.1510 H         1 UNK         0.0600 
    215 H215       -6.1030  -24.1404  -49.1045 H         1 UNK         0.3000 
    216 H216       -7.5878  -22.5933  -48.5742 H         1 UNK         0.0600 
    217 H217       -9.0211  -24.5534  -47.9578 H         1 UNK         0.0600 
    218 H218       -9.7648  -24.5147  -49.5560 H         1 UNK         0.0600 
    219 H219       -9.9779  -23.1660  -48.4499 H         1 UNK         0.0600 
    220 H220       -6.3263  -22.3577  -51.0027 H         1 UNK         0.3000 
    221 H221       -6.0741  -20.9682  -52.6748 H         1 UNK         0.0600 
    222 H222       -8.8532  -19.7902  -52.2115 H         1 UNK         0.0600 
    223 H223       -7.3805  -19.2543  -51.4006 H         1 UNK         0.0600 
    224 H224       -7.5424  -19.0830  -53.1396 H         1 UNK         0.0600 
    225 H225       -7.9299  -23.6076  -52.8123 H         1 UNK         0.3000 
    226 H226       -9.2211  -23.3761  -55.3619 H         1 UNK         0.0600 
    227 H227       -9.8052  -25.1040  -53.6312 H         1 UNK         0.0600 
    228 H228       -9.4552  -25.8154  -55.1999 H         1 UNK         0.0600 
    229 H229       -8.2556  -25.8973  -53.9195 H         1 UNK         0.0600 
    230 H230       -5.8817  -24.0313  -54.4197 H         1 UNK         0.3000 
    231 H231       -5.0853  -24.8679  -57.1440 H         1 UNK         0.0600 
    232 H232       -3.3519  -24.4394  -54.6637 H         1 UNK         0.0600 
    233 H233       -4.1409  -25.9678  -55.0525 H         1 UNK         0.0600 
    234 H234       -2.9252  -25.3009  -56.1305 H         1 UNK         0.0600 
    235 H235       -5.9592  -21.9674  -55.9754 H         1 UNK         0.3000 
    236 H236       -5.5732  -19.8256  -56.3689 H         1 UNK         0.0600 
    237 H237       -5.9639  -20.6171  -58.7083 H         1 UNK         0.0600 
    238 H238       -4.9103  -19.2136  -58.6684 H         1 UNK         0.0600 
    239 H239       -4.2268  -20.8114  -58.9396 H         1 UNK         0.0600 
    240 H240       -3.7400  -20.9384  -54.6358 H         1 UNK         0.3000 
    241 H241       -1.9424  -20.5051  -53.4487 H         1 UNK         0.0600 
    242 H242        0.0095  -22.3050  -56.2994 H         1 UNK         0.3800 
    243 H243       -1.7074  -22.0047  -56.3298 H         1 UNK         0.3800 
    244 H244       -1.2053  -18.1097  -55.1732 H         1 UNK         0.0800 
    245 H245       -0.6173  -18.4562  -53.5774 H         1 UNK         0.0800 
    246 H246       -2.8910  -19.0760  -51.6335 H         1 UNK         0.0800 
    247 H247       -3.6646  -17.5645  -51.2652 H         1 UNK         0.0800 
@<TRIPOS>BOND
     1    1    2 1    
     2    1  127 1    
     3    1  128 1    
     4    1  129 1    
     5    2    3 2    
     6    2    4 am   BACKBONE|DICT|INTERRES
     7    4    5 1    
     8    4  130 1    
     9    5    6 1    
    10    5   65 1    
    11    5  131 1    
    12    6    7 1    
    13    6  132 1    
    14    6  133 1    
    15    7    8 1    
    16    8    9 1    
    17    8  134 1    
    18    8  135 1    
    19    9   10 ar   
    20    9   14 ar   
    21   10   11 ar   
    22   10  136 1    
    23   11   12 ar   
    24   11  126 1    
    25   12   13 ar   
    26   12  137 1    
    27   13   14 ar   
    28   13   15 1    
    29   14  138 1    
    30   15   16 1    
    31   15  139 1    
    32   15  140 1    
    33   16   17 1    
    34   17   18 1    
    35   17  141 1    
    36   17  142 1    
    37   18   19 1    
    38   18   67 1    
    39   18  143 1    
    40   19   20 am   BACKBONE|DICT|INTERRES
    41   19  144 1    
    42   20   21 2    
    43   20   22 1    
    44   22   23 1    
    45   22   24 1    
    46   22  145 1    
    47   23  146 1    
    48   23  147 1    
    49   23  148 1    
    50   24   25 am   BACKBONE|DICT|INTERRES
    51   24  149 1    
    52   25   26 2    
    53   25   27 1    
    54   27   28 1    
    55   27   29 1    
    56   27  150 1    
    57   28  151 1    
    58   28  152 1    
    59   28  153 1    
    60   29   30 am   BACKBONE|DICT|INTERRES
    61   29  154 1    
    62   30   31 2    
    63   30   32 1    
    64   32   33 1    
    65   32   34 1    
    66   32  155 1    
    67   33  156 1    
    68   33  157 1    
    69   33  158 1    
    70   34   35 am   BACKBONE|DICT|INTERRES
    71   34  159 1    
    72   35   36 2    
    73   35   37 1    
    74   37   38 1    
    75   37   39 1    
    76   37  160 1    
    77   38  161 1    
    78   38  162 1    
    79   38  163 1    
    80   39   40 am   BACKBONE|DICT|INTERRES
    81   39  164 1    
    82   40   41 2    
    83   40   42 1    
    84   42   43 1    
    85   42   44 1    
    86   42  165 1    
    87   43  166 1    
    88   43  167 1    
    89   43  168 1    
    90   44   45 am   BACKBONE|DICT|INTERRES
    91   44  169 1    
    92   45   46 2    
    93   45   47 1    
    94   47   48 1    
    95   47   49 1    
    96   47  170 1    
    97   48  171 1    
    98   48  172 1    
    99   48  173 1    
   100   49   50 am   BACKBONE|DICT|INTERRES
   101   49  174 1    
   102   50   51 2    
   103   50   52 1    
   104   52   53 1    
   105   52   54 1    
   106   52  175 1    
   107   53  176 1    
   108   53  177 1    
   109   53  178 1    
   110   54   55 am   BACKBONE|DICT|INTERRES
   111   54  179 1    
   112   55   56 2    
   113   55   57 1    
   114   57   58 1    
   115   57   59 1    
   116   57  180 1    
   117   58  181 1    
   118   58  182 1    
   119   58  183 1    
   120   59   60 am   BACKBONE|DICT|INTERRES
   121   59  184 1    
   122   60   61 2    
   123   60   62 1    
   124   62   63 1    
   125   62   64 1    
   126   62  185 1    
   127   63  186 1    
   128   63  187 1    
   129   63  188 1    
   130   64   65 am   BACKBONE|DICT|INTERRES
   131   64  189 1    
   132   65   66 2    
   133   67   68 2    
   134   67   69 am   BACKBONE|DICT|INTERRES
   135   69   70 1    
   136   69  190 1    
   137   70   71 1    
   138   70   72 1    
   139   70  191 1    
   140   71  192 1    
   141   71  193 1    
   142   71  194 1    
   143   72   73 2    
   144   72   74 am   BACKBONE|DICT|INTERRES
   145   74   75 1    
   146   74  195 1    
   147   75   76 1    
   148   75   77 1    
   149   75  196 1    
   150   76  197 1    
   151   76  198 1    
   152   76  199 1    
   153   77   78 2    
   154   77   79 am   BACKBONE|DICT|INTERRES
   155   79   80 1    
   156   79  200 1    
   157   80   81 1    
   158   80   82 1    
   159   80  201 1    
   160   81  202 1    
   161   81  203 1    
   162   81  204 1    
   163   82   83 2    
   164   82   84 am   BACKBONE|DICT|INTERRES
   165   84   85 1    
   166   84  205 1    
   167   85   86 1    
   168   85   87 1    
   169   85  206 1    
   170   86  207 1    
   171   86  208 1    
   172   86  209 1    
   173   87   88 2    
   174   87   89 am   BACKBONE|DICT|INTERRES
   175   89   90 1    
   176   89  210 1    
   177   90   91 1    
   178   90   92 1    
   179   90  211 1    
   180   91  212 1    
   181   91  213 1    
   182   91  214 1    
   183   92   93 2    
   184   92   94 am   BACKBONE|DICT|INTERRES
   185   94   95 1    
   186   94  215 1    
   187   95   96 1    
   188   95   97 1    
   189   95  216 1    
   190   96  217 1    
   191   96  218 1    
   192   96  219 1    
   193   97   98 2    
   194   97   99 am   BACKBONE|DICT|INTERRES
   195   99  100 1    
   196   99  220 1    
   197  100  101 1    
   198  100  102 1    
   199  100  221 1    
   200  101  222 1    
   201  101  223 1    
   202  101  224 1    
   203  102  103 2    
   204  102  104 am   BACKBONE|DICT|INTERRES
   205  104  105 1    
   206  104  225 1    
   207  105  106 1    
   208  105  107 1    
   209  105  226 1    
   210  106  227 1    
   211  106  228 1    
   212  106  229 1    
   213  107  108 2    
   214  107  109 am   BACKBONE|DICT|INTERRES
   215  109  110 1    
   216  109  230 1    
   217  110  111 1    
   218  110  112 1    
   219  110  231 1    
   220  111  232 1    
   221  111  233 1    
   222  111  234 1    
   223  112  113 2    
   224  112  114 am   BACKBONE|DICT|INTERRES
   225  114  115 1    
   226  114  235 1    
   227  115  116 1    
   228  115  117 1    
   229  115  236 1    
   230  116  237 1    
   231  116  238 1    
   232  116  239 1    
   233  117  118 2    
   234  117  119 am   BACKBONE|DICT|INTERRES
   235  119  120 1    
   236  119  240 1    
   237  120  121 1    
   238  120  124 1    
   239  120  241 1    
   240  121  122 am   BACKBONE|DICT|INTERRES
   241  121  123 2    
   242  122  242 1    
   243  122  243 1    
   244  124  125 1    
   245  124  244 1    
   246  124  245 1    
   247  125  126 1    
   248  126  246 1    
   249  126  247 1    
@<TRIPOS>SUBSTRUCTURE
     1 UNK         1 GROUP             0       ****    0 ROOT    
