@<TRIPOS>MOLECULE
3R540
247   249    1
SMALL
USER_CHARGES


@<TRIPOS>ATOM
      1 CA         -4.0104  -13.7154  -50.2806 C.3       0 UNK        -0.1800 
      2 C          -2.7801  -13.5850  -49.3943 C.2       0 UNK         0.5000 
      3 O          -2.9070  -13.5449  -48.1725 O.2       0 UNK        -0.5000 
      4 N          -1.5951  -13.4916  -50.0127 N.am      1 UNK        -0.5000 
      5 CA         -0.2598  -13.4059  -49.3942 C.3       1 UNK         0.1400 
      6 C6          0.0800  -14.5859  -48.4375 C.3       23 UNK        -0.0398 
      7 S7          0.0047  -16.2254  -49.2410 S.3       23 UNK        -0.2404 
      8 C8          1.7168  -16.3841  -49.8334 C.3       23 UNK        -0.0205 
      9 C9          2.0295  -17.8019  -50.2851 C.ar      23 UNK        -0.0193 
     10 C10         1.8442  -18.1823  -51.6179 C.ar      23 UNK        -0.1150 
     11 C11         2.1617  -19.4792  -52.0429 C.ar      23 UNK        -0.0193 
     12 C12         2.7001  -20.3792  -51.1168 C.ar      23 UNK        -0.1150 
     13 C13         2.8968  -20.0126  -49.7812 C.ar      23 UNK        -0.0193 
     14 C14         2.5465  -18.7239  -49.3715 C.ar      23 UNK        -0.1150 
     15 C15         3.5338  -20.9800  -48.7866 C.3       23 UNK        -0.0205 
     16 S16         2.7635  -22.6314  -48.7801 S.3       23 UNK        -0.2404 
     17 C17         1.0689  -22.2137  -48.2679 C.3       23 UNK        -0.0398 
     18 CA          0.3944  -23.3568  -47.4806 C.3       11 UNK         0.1400 
     19 N           1.0782  -23.6672  -46.2237 N.am      11 UNK        -0.5000 
     20 C           0.8720  -24.7909  -45.5224 C.2       10 UNK         0.5000 
     21 O           0.0982  -25.6787  -45.8758 O.2       10 UNK        -0.5000 
     22 CA          1.6031  -24.9276  -44.1748 C.3       10 UNK         0.1400 
     23 CB          2.9745  -25.5893  -44.3721 C.3       10 UNK        -0.1800 
     24 N           1.7777  -23.6535  -43.4784 N.am      10 UNK        -0.5000 
     25 C           0.7868  -22.8327  -43.1054 C.2       9 UNK         0.5000 
     26 O          -0.4067  -23.0794  -43.2877 O.2       9 UNK        -0.5000 
     27 CA          1.1933  -21.4945  -42.4607 C.3       9 UNK         0.1400 
     28 CB          2.6300  -21.4882  -41.8931 C.3       9 UNK        -0.1800 
     29 N           1.0111  -20.3633  -43.3726 N.am      9 UNK        -0.5000 
     30 C           1.5297  -20.1929  -44.5985 C.2       8 UNK         0.5000 
     31 O           2.1726  -21.0516  -45.2039 O.2       8 UNK        -0.5000 
     32 CA          1.3162  -18.8127  -45.2482 C.3       8 UNK         0.1400 
     33 CB         -0.0133  -18.7480  -46.0122 C.3       8 UNK        -0.1800 
     34 N           1.3534  -17.7331  -44.2616 N.am      8 UNK        -0.5000 
     35 C           2.4748  -17.2236  -43.7334 C.2       7 UNK         0.5000 
     36 O           3.6087  -17.5527  -44.0827 O.2       7 UNK        -0.5000 
     37 CA          2.2976  -16.1766  -42.6181 C.3       7 UNK         0.1400 
     38 CB          2.1605  -14.7688  -43.2172 C.3       7 UNK        -0.1800 
     39 N           1.1358  -16.4673  -41.7743 N.am      7 UNK        -0.5000 
     40 C           1.1235  -17.4157  -40.8241 C.2       6 UNK         0.5000 
     41 O           2.1154  -18.0753  -40.5143 O.2       6 UNK        -0.5000 
     42 CA         -0.2093  -17.6943  -40.0964 C.3       6 UNK         0.1400 
     43 CB         -0.2399  -16.9720  -38.7409 C.3       6 UNK        -0.1800 
     44 N          -1.3995  -17.3148  -40.8581 N.am      6 UNK        -0.5000 
     45 C          -1.7733  -17.8437  -42.0310 C.2       5 UNK         0.5000 
     46 O          -1.1749  -18.7662  -42.5818 O.2       5 UNK        -0.5000 
     47 CA         -2.9778  -17.1922  -42.7399 C.3       5 UNK         0.1400 
     48 CB         -4.2610  -17.9826  -42.4458 C.3       5 UNK        -0.1800 
     49 N          -3.1924  -15.7793  -42.3986 N.am      5 UNK        -0.5000 
     50 C          -2.2923  -14.7990  -42.5579 C.2       4 UNK         0.5000 
     51 O          -1.1437  -14.9897  -42.9662 O.2       4 UNK        -0.5000 
     52 CA         -2.7309  -13.3883  -42.1188 C.3       4 UNK         0.1400 
     53 CB         -2.6134  -13.2486  -40.5924 C.3       4 UNK        -0.1800 
     54 N          -1.9187  -12.3453  -42.7460 N.am      4 UNK        -0.5000 
     55 C          -1.9365  -12.0535  -44.0517 C.2       3 UNK         0.5000 
     56 O          -2.7392  -12.5430  -44.8514 O.2       3 UNK        -0.5000 
     57 CA         -0.8751  -11.0552  -44.5395 C.3       3 UNK         0.1400 
     58 CB          0.5511  -11.6056  -44.3328 C.3       3 UNK        -0.1800 
     59 N          -1.0940  -10.7892  -45.9562 N.am      3 UNK        -0.5000 
     60 C          -0.6144   -9.7515  -46.6494 C.2       2 UNK         0.5000 
     61 O           0.0244   -8.8298  -46.1373 O.2       2 UNK        -0.5000 
     62 CA         -0.8914   -9.7576  -48.1705 C.3       2 UNK         0.1400 
     63 CB          0.0818   -8.8580  -48.9609 C.3       2 UNK        -0.1800 
     64 N          -0.9306  -11.1076  -48.7510 N.am      2 UNK        -0.5000 
     65 C           0.0392  -12.0376  -48.7336 C.2       1 UNK         0.5000 
     66 O           1.1523  -11.8468  -48.2418 O.2       1 UNK        -0.5000 
     67 C          -1.0974  -23.0486  -47.2562 C.2       11 UNK         0.5000 
     68 O          -1.9139  -23.4209  -48.0970 O.2       11 UNK        -0.5000 
     69 N          -1.4453  -22.4080  -46.1301 N.am      12 UNK        -0.5000 
     70 CA         -2.8376  -22.1595  -45.7497 C.3       12 UNK         0.1400 
     71 CB         -2.9146  -21.0992  -44.6409 C.3       12 UNK        -0.1800 
     72 C          -3.5491  -23.4560  -45.3288 C.2       12 UNK         0.5000 
     73 O          -4.6972  -23.6686  -45.7178 O.2       12 UNK        -0.5000 
     74 N          -2.8374  -24.3170  -44.5872 N.am      13 UNK        -0.5000 
     75 CA         -3.3051  -25.6402  -44.1695 C.3       13 UNK         0.1400 
     76 CB         -2.3087  -26.2392  -43.1655 C.3       13 UNK        -0.1800 
     77 C          -3.5336  -26.5984  -45.3557 C.2       13 UNK         0.5000 
     78 O          -4.5356  -27.3139  -45.3753 O.2       13 UNK        -0.5000 
     79 N          -2.6156  -26.5771  -46.3318 N.am      14 UNK        -0.5000 
     80 CA         -2.6812  -27.3727  -47.5599 C.3       14 UNK         0.1400 
     81 CB         -1.2727  -27.4543  -48.1703 C.3       14 UNK        -0.1800 
     82 C          -3.6721  -26.8261  -48.6069 C.2       14 UNK         0.5000 
     83 O          -3.9969  -27.5506  -49.5484 O.2       14 UNK        -0.5000 
     84 N          -4.1027  -25.5647  -48.4474 N.am      15 UNK        -0.5000 
     85 CA         -4.8835  -24.7655  -49.3997 C.3       15 UNK         0.1400 
     86 CB         -6.3004  -25.3442  -49.5931 C.3       15 UNK        -0.1800 
     87 C          -4.1160  -24.5541  -50.7231 C.2       15 UNK         0.5000 
     88 O          -4.6603  -24.7557  -51.8094 O.2       15 UNK        -0.5000 
     89 N          -2.8434  -24.1699  -50.5820 N.am      16 UNK        -0.5000 
     90 CA         -1.8696  -23.9557  -51.6506 C.3       16 UNK         0.1400 
     91 CB         -0.8243  -25.0836  -51.5873 C.3       16 UNK        -0.1800 
     92 C          -1.2108  -22.5659  -51.5413 C.2       16 UNK         0.5000 
     93 O          -0.1763  -22.3360  -52.1651 O.2       16 UNK        -0.5000 
     94 N          -1.8043  -21.6690  -50.7429 N.am      17 UNK        -0.5000 
     95 CA         -1.4121  -20.2672  -50.6020 C.3       17 UNK         0.1400 
     96 CB         -1.9362  -19.7616  -49.2472 C.3       17 UNK        -0.1800 
     97 C          -1.9853  -19.4175  -51.7498 C.2       17 UNK         0.5000 
     98 O          -2.8271  -19.8967  -52.5147 O.2       17 UNK        -0.5000 
     99 N          -1.5879  -18.1393  -51.8174 N.am      18 UNK        -0.5000 
    100 CA        -2.0923  -17.1707  -52.8011 C.3       18 UNK         0.1400 
    101 CB        -1.2620  -15.8835  -52.7425 C.3       18 UNK        -0.1800 
    102 C         -3.5980  -16.8646  -52.6603 C.2       18 UNK         0.5000 
    103 O         -4.2199  -16.4407  -53.6336 O.2       18 UNK        -0.5000 
    104 N         -4.1764  -17.1599  -51.4865 N.am      19 UNK        -0.5000 
    105 CA        -5.6214  -17.1885  -51.2372 C.3       19 UNK         0.1400 
    106 CB        -5.8585  -17.4466  -49.7410 C.3       19 UNK        -0.1800 
    107 C         -6.3696  -18.2427  -52.0851 C.2       19 UNK         0.5000 
    108 O         -7.5538  -18.0623  -52.3683 O.2       19 UNK        -0.5000 
    109 N         -5.6578  -19.3016  -52.4942 N.am      20 UNK        -0.5000 
    110 CA        -6.1049  -20.3487  -53.4124 C.3       20 UNK         0.1400 
    111 CB        -5.8612  -21.7133  -52.7436 C.3       20 UNK        -0.1800 
    112 C         -5.3686  -20.2365  -54.7661 C.2       20 UNK         0.5000 
    113 O         -5.2410  -21.2335  -55.4800 O.2       20 UNK        -0.5000 
    114 N         -4.8560  -19.0341  -55.0794 N.am      21 UNK        -0.5000 
    115 CA        -4.0853  -18.6625  -56.2736 C.3       21 UNK         0.1400 
    116 CB        -4.9855  -18.7087  -57.5256 C.3       21 UNK        -0.1800 
    117 C         -2.7765  -19.4633  -56.4584 C.2       21 UNK         0.5000 
    118 O         -2.2710  -19.5517  -57.5786 O.2       21 UNK        -0.5000 
    119 N         -2.2604  -20.0425  -55.3654 N.am      22 UNK        -0.5000 
    120 CA        -1.1295  -20.9829  -55.3287 C.3       22 UNK         0.1400 
    121 C         -1.3943  -22.3274  -56.0757 C.2       22 UNK         0.5000 
    122 N         -2.6440  -22.7229  -56.2977 N.am      22 UNK        -0.7600 
    123 O         -0.4628  -23.0424  -56.4351 O.2       22 UNK        -0.5000 
    124 C124        0.2340  -20.3205  -55.6791 C.3       23 UNK        -0.0398 
    125 S125        0.7009  -19.0535  -54.4472 S.3       23 UNK        -0.2404 
    126 C126        1.9759  -19.9466  -53.4883 C.3       23 UNK        -0.0205 
    127 H127       -4.6328  -14.5406  -49.9379 H         1 UNK         0.0600 
    128 H128       -3.7441  -13.9023  -51.3212 H         1 UNK         0.0600 
    129 H129       -4.6029  -12.8018  -50.2368 H         1 UNK         0.0600 
    130 H130       -1.5838  -13.4825  -51.0225 H         1 UNK         0.3000 
    131 H131        0.4401  -13.4651  -50.2289 H         1 UNK         0.0600 
    132 H132       -0.5986  -14.5964  -47.5838 H         1 UNK         0.0800 
    133 H133        1.0759  -14.4630  -48.0089 H         1 UNK         0.0800 
    134 H134        1.8810  -15.6830  -50.6531 H         1 UNK         0.0800 
    135 H135        2.4094  -16.0971  -49.0408 H         1 UNK         0.0800 
    136 H136        1.4622  -17.4599  -52.3227 H         1 UNK         0.1150 
    137 H137        2.9714  -21.3751  -51.4384 H         1 UNK         0.1150 
    138 H138        2.7029  -18.4243  -48.3451 H         1 UNK         0.1150 
    139 H139        4.5896  -21.0888  -49.0371 H         1 UNK         0.0800 
    140 H140        3.4992  -20.5760  -47.7733 H         1 UNK         0.0800 
    141 H141        0.5110  -21.9876  -49.1757 H         1 UNK         0.0800 
    142 H142        1.0845  -21.2972  -47.6790 H         1 UNK         0.0800 
    143 H143        0.4352  -24.2511  -48.1067 H         1 UNK         0.0600 
    144 H144        1.7025  -22.9558  -45.8567 H         1 UNK         0.3000 
    145 H145        0.9993  -25.5736  -43.5348 H         1 UNK         0.0600 
    146 H146        3.4681  -25.7681  -43.4167 H         1 UNK         0.0600 
    147 H147        3.6349  -24.9718  -44.9824 H         1 UNK         0.0600 
    148 H148        2.8737  -26.5545  -44.8704 H         1 UNK         0.0600 
    149 H149        2.7283  -23.3515  -43.3225 H         1 UNK         0.3000 
    150 H150        0.5066  -21.3344  -41.6282 H         1 UNK         0.0600 
    151 H151        2.7835  -22.3136  -41.1967 H         1 UNK         0.0600 
    152 H152        2.8237  -20.5677  -41.3430 H         1 UNK         0.0600 
    153 H153        3.3861  -21.5629  -42.6753 H         1 UNK         0.0600 
    154 H154        0.3836  -19.6404  -43.0282 H         1 UNK         0.3000 
    155 H155        2.1238  -18.6640  -45.9677 H         1 UNK         0.0600 
    156 H156       -0.1377  -19.6052  -46.6718 H         1 UNK         0.0600 
    157 H157       -0.0632  -17.8522  -46.6308 H         1 UNK         0.0600 
    158 H158       -0.8634  -18.7251  -45.3327 H         1 UNK         0.0600 
    159 H159        0.4659  -17.4206  -43.8952 H         1 UNK         0.3000 
    160 H160        3.1952  -16.1905  -41.9960 H         1 UNK         0.0600 
    161 H161        1.3166  -14.7042  -43.9044 H         1 UNK         0.0600 
    162 H162        3.0562  -14.4948  -43.7757 H         1 UNK         0.0600 
    163 H163        2.0188  -14.0188  -42.4390 H         1 UNK         0.0600 
    164 H164        0.2810  -15.9651  -41.9948 H         1 UNK         0.3000 
    165 H165       -0.2607  -18.7697  -39.9143 H         1 UNK         0.0600 
    166 H166       -1.1361  -17.2294  -38.1760 H         1 UNK         0.0600 
    167 H167        0.6190  -17.2512  -38.1290 H         1 UNK         0.0600 
    168 H168       -0.2180  -15.8882  -38.8627 H         1 UNK         0.0600 
    169 H169       -1.9483  -16.5542  -40.4865 H         1 UNK         0.3000 
    170 H170       -2.7828  -17.2439  -43.8131 H         1 UNK         0.0600 
    171 H171       -4.5364  -17.9245  -41.3921 H         1 UNK         0.0600 
    172 H172       -4.1370  -19.0374  -42.6936 H         1 UNK         0.0600 
    173 H173       -5.0990  -17.6090  -43.0345 H         1 UNK         0.0600 
    174 H174       -4.1061  -15.5446  -42.0376 H         1 UNK         0.3000 
    175 H175       -3.7727  -13.2394  -42.4106 H         1 UNK         0.0600 
    176 H176       -1.5880  -13.3996  -40.2518 H         1 UNK         0.0600 
    177 H177       -2.9348  -12.2610  -40.2609 H         1 UNK         0.0600 
    178 H178       -3.2401  -13.9793  -40.0795 H         1 UNK         0.0600 
    179 H179       -1.2144  -11.9193  -42.1621 H         1 UNK         0.3000 
    180 H180       -0.9995  -10.1287  -43.9754 H         1 UNK         0.0600 
    181 H181        1.3058  -10.8874  -44.6532 H         1 UNK         0.0600 
    182 H182        0.7066  -12.5239  -44.9004 H         1 UNK         0.0600 
    183 H183        0.7486  -11.8281  -43.2840 H         1 UNK         0.0600 
    184 H184       -1.6642  -11.4854  -46.4229 H         1 UNK         0.3000 
    185 H185       -1.8933   -9.3441  -48.2934 H         1 UNK         0.0600 
    186 H186       -0.1472   -8.8701  -50.0265 H         1 UNK         0.0600 
    187 H187        0.0153   -7.8214  -48.6287 H         1 UNK         0.0600 
    188 H188        1.1177   -9.1752  -48.8366 H         1 UNK         0.0600 
    189 H189       -1.8102  -11.3768  -49.1682 H         1 UNK         0.3000 
    190 H190       -0.7395  -22.2066  -45.4356 H         1 UNK         0.3000 
    191 H191       -3.3664  -21.7640  -46.6200 H         1 UNK         0.0600 
    192 H192       -2.5767  -20.1303  -45.0016 H         1 UNK         0.0600 
    193 H193       -2.3134  -21.3634  -43.7714 H         1 UNK         0.0600 
    194 H194       -3.9421  -20.9692  -44.2995 H         1 UNK         0.0600 
    195 H195       -1.9140  -24.0355  -44.2742 H         1 UNK         0.3000 
    196 H196       -4.2617  -25.5084  -43.6598 H         1 UNK         0.0600 
    197 H197       -2.1723  -25.5836  -42.3052 H         1 UNK         0.0600 
    198 H198       -1.3312  -26.4055  -43.6177 H         1 UNK         0.0600 
    199 H199       -2.6638  -27.2000  -42.7907 H         1 UNK         0.0600 
    200 H200       -1.7744  -26.0220  -46.2010 H         1 UNK         0.3000 
    201 H201       -3.0003  -28.3847  -47.3025 H         1 UNK         0.0600 
    202 H202       -0.5651  -27.9019  -47.4721 H         1 UNK         0.0600 
    203 H203       -0.8972  -26.4670  -48.4424 H         1 UNK         0.0600 
    204 H204       -1.2685  -28.0668  -49.0727 H         1 UNK         0.0600 
    205 H205       -3.7581  -25.0597  -47.6422 H         1 UNK         0.3000 
    206 H206       -4.9931  -23.7782  -48.9484 H         1 UNK         0.0600 
    207 H207       -6.2828  -26.3127  -50.0932 H         1 UNK         0.0600 
    208 H208       -6.8076  -25.4692  -48.6365 H         1 UNK         0.0600 
    209 H209       -6.9119  -24.6761  -50.2007 H         1 UNK         0.0600 
    210 H210       -2.4952  -24.0070  -49.6365 H         1 UNK         0.3000 
    211 H211       -2.3627  -23.9905  -52.6241 H         1 UNK         0.0600 
    212 H212       -0.2602  -25.0533  -50.6543 H         1 UNK         0.0600 
    213 H213       -0.1103  -25.0067  -52.4081 H         1 UNK         0.0600 
    214 H214       -1.2975  -26.0630  -51.6604 H         1 UNK         0.0600 
    215 H215       -2.6630  -21.9417  -50.2899 H         1 UNK         0.3000 
    216 H216       -0.3238  -20.1867  -50.6198 H         1 UNK         0.0600 
    217 H217       -1.6095  -18.7414  -49.0474 H         1 UNK         0.0600 
    218 H218       -1.5687  -20.3778  -48.4288 H         1 UNK         0.0600 
    219 H219       -3.0261  -19.7730  -49.2053 H         1 UNK         0.0600 
    220 H220       -0.9056  -17.7960  -51.1547 H         1 UNK         0.3000 
    221 H221       -1.9546  -17.6050  -53.7928 H         1 UNK         0.0600 
    222 H222       -1.2759  -15.4516  -51.7462 H         1 UNK         0.0600 
    223 H223       -0.2243  -16.0691  -53.0157 H         1 UNK         0.0600 
    224 H224       -1.6465  -15.1334  -53.4350 H         1 UNK         0.0600 
    225 H225       -3.5849  -17.4894  -50.7389 H         1 UNK         0.3000 
    226 H226       -6.0278  -16.2074  -51.4911 H         1 UNK         0.0600 
    227 H227       -5.3814  -16.6860  -49.1234 H         1 UNK         0.0600 
    228 H228       -6.9238  -17.4315  -49.5070 H         1 UNK         0.0600 
    229 H229       -5.4696  -18.4185  -49.4344 H         1 UNK         0.0600 
    230 H230       -4.6750  -19.3573  -52.2457 H         1 UNK         0.3000 
    231 H231       -7.1725  -20.2505  -53.6172 H         1 UNK         0.0600 
    232 H232       -6.2391  -22.5299  -53.3599 H         1 UNK         0.0600 
    233 H233       -6.3662  -21.7774  -51.7798 H         1 UNK         0.0600 
    234 H234       -4.7984  -21.8941  -52.5767 H         1 UNK         0.0600 
    235 H235       -4.9934  -18.2788  -54.4188 H         1 UNK         0.3000 
    236 H236       -3.7805  -17.6256  -56.1267 H         1 UNK         0.0600 
    237 H237       -5.2768  -19.7292  -57.7762 H         1 UNK         0.0600 
    238 H238       -5.8951  -18.1264  -57.3786 H         1 UNK         0.0600 
    239 H239       -4.4739  -18.2922  -58.3940 H         1 UNK         0.0600 
    240 H240       -2.7322  -19.9186  -54.4757 H         1 UNK         0.3000 
    241 H241       -1.0667  -21.2881  -54.2874 H         1 UNK         0.0600 
    242 H242       -2.8078  -23.5956  -56.7736 H         1 UNK         0.3800 
    243 H243       -3.4336  -22.1559  -56.0088 H         1 UNK         0.3800 
    244 H244        1.0310  -21.0633  -55.7310 H         1 UNK         0.0800 
    245 H245        0.1989  -19.8579  -56.6656 H         1 UNK         0.0800 
    246 H246        2.9297  -19.8645  -54.0106 H         1 UNK         0.0800 
    247 H247        1.7190  -21.0067  -53.4779 H         1 UNK         0.0800 
@<TRIPOS>BOND
     1    1    2 1    
     2    1  127 1    
     3    1  128 1    
     4    1  129 1    
     5    2    3 2    
     6    2    4 am   BACKBONE|DICT|INTERRES
     7    4    5 1    
     8    4  130 1    
     9    5    6 1    
    10    5   65 1    
    11    5  131 1    
    12    6    7 1    
    13    6  132 1    
    14    6  133 1    
    15    7    8 1    
    16    8    9 1    
    17    8  134 1    
    18    8  135 1    
    19    9   10 ar   
    20    9   14 ar   
    21   10   11 ar   
    22   10  136 1    
    23   11   12 ar   
    24   11  126 1    
    25   12   13 ar   
    26   12  137 1    
    27   13   14 ar   
    28   13   15 1    
    29   14  138 1    
    30   15   16 1    
    31   15  139 1    
    32   15  140 1    
    33   16   17 1    
    34   17   18 1    
    35   17  141 1    
    36   17  142 1    
    37   18   19 1    
    38   18   67 1    
    39   18  143 1    
    40   19   20 am   BACKBONE|DICT|INTERRES
    41   19  144 1    
    42   20   21 2    
    43   20   22 1    
    44   22   23 1    
    45   22   24 1    
    46   22  145 1    
    47   23  146 1    
    48   23  147 1    
    49   23  148 1    
    50   24   25 am   BACKBONE|DICT|INTERRES
    51   24  149 1    
    52   25   26 2    
    53   25   27 1    
    54   27   28 1    
    55   27   29 1    
    56   27  150 1    
    57   28  151 1    
    58   28  152 1    
    59   28  153 1    
    60   29   30 am   BACKBONE|DICT|INTERRES
    61   29  154 1    
    62   30   31 2    
    63   30   32 1    
    64   32   33 1    
    65   32   34 1    
    66   32  155 1    
    67   33  156 1    
    68   33  157 1    
    69   33  158 1    
    70   34   35 am   BACKBONE|DICT|INTERRES
    71   34  159 1    
    72   35   36 2    
    73   35   37 1    
    74   37   38 1    
    75   37   39 1    
    76   37  160 1    
    77   38  161 1    
    78   38  162 1    
    79   38  163 1    
    80   39   40 am   BACKBONE|DICT|INTERRES
    81   39  164 1    
    82   40   41 2    
    83   40   42 1    
    84   42   43 1    
    85   42   44 1    
    86   42  165 1    
    87   43  166 1    
    88   43  167 1    
    89   43  168 1    
    90   44   45 am   BACKBONE|DICT|INTERRES
    91   44  169 1    
    92   45   46 2    
    93   45   47 1    
    94   47   48 1    
    95   47   49 1    
    96   47  170 1    
    97   48  171 1    
    98   48  172 1    
    99   48  173 1    
   100   49   50 am   BACKBONE|DICT|INTERRES
   101   49  174 1    
   102   50   51 2    
   103   50   52 1    
   104   52   53 1    
   105   52   54 1    
   106   52  175 1    
   107   53  176 1    
   108   53  177 1    
   109   53  178 1    
   110   54   55 am   BACKBONE|DICT|INTERRES
   111   54  179 1    
   112   55   56 2    
   113   55   57 1    
   114   57   58 1    
   115   57   59 1    
   116   57  180 1    
   117   58  181 1    
   118   58  182 1    
   119   58  183 1    
   120   59   60 am   BACKBONE|DICT|INTERRES
   121   59  184 1    
   122   60   61 2    
   123   60   62 1    
   124   62   63 1    
   125   62   64 1    
   126   62  185 1    
   127   63  186 1    
   128   63  187 1    
   129   63  188 1    
   130   64   65 am   BACKBONE|DICT|INTERRES
   131   64  189 1    
   132   65   66 2    
   133   67   68 2    
   134   67   69 am   BACKBONE|DICT|INTERRES
   135   69   70 1    
   136   69  190 1    
   137   70   71 1    
   138   70   72 1    
   139   70  191 1    
   140   71  192 1    
   141   71  193 1    
   142   71  194 1    
   143   72   73 2    
   144   72   74 am   BACKBONE|DICT|INTERRES
   145   74   75 1    
   146   74  195 1    
   147   75   76 1    
   148   75   77 1    
   149   75  196 1    
   150   76  197 1    
   151   76  198 1    
   152   76  199 1    
   153   77   78 2    
   154   77   79 am   BACKBONE|DICT|INTERRES
   155   79   80 1    
   156   79  200 1    
   157   80   81 1    
   158   80   82 1    
   159   80  201 1    
   160   81  202 1    
   161   81  203 1    
   162   81  204 1    
   163   82   83 2    
   164   82   84 am   BACKBONE|DICT|INTERRES
   165   84   85 1    
   166   84  205 1    
   167   85   86 1    
   168   85   87 1    
   169   85  206 1    
   170   86  207 1    
   171   86  208 1    
   172   86  209 1    
   173   87   88 2    
   174   87   89 am   BACKBONE|DICT|INTERRES
   175   89   90 1    
   176   89  210 1    
   177   90   91 1    
   178   90   92 1    
   179   90  211 1    
   180   91  212 1    
   181   91  213 1    
   182   91  214 1    
   183   92   93 2    
   184   92   94 am   BACKBONE|DICT|INTERRES
   185   94   95 1    
   186   94  215 1    
   187   95   96 1    
   188   95   97 1    
   189   95  216 1    
   190   96  217 1    
   191   96  218 1    
   192   96  219 1    
   193   97   98 2    
   194   97   99 am   BACKBONE|DICT|INTERRES
   195   99  100 1    
   196   99  220 1    
   197  100  101 1    
   198  100  102 1    
   199  100  221 1    
   200  101  222 1    
   201  101  223 1    
   202  101  224 1    
   203  102  103 2    
   204  102  104 am   BACKBONE|DICT|INTERRES
   205  104  105 1    
   206  104  225 1    
   207  105  106 1    
   208  105  107 1    
   209  105  226 1    
   210  106  227 1    
   211  106  228 1    
   212  106  229 1    
   213  107  108 2    
   214  107  109 am   BACKBONE|DICT|INTERRES
   215  109  110 1    
   216  109  230 1    
   217  110  111 1    
   218  110  112 1    
   219  110  231 1    
   220  111  232 1    
   221  111  233 1    
   222  111  234 1    
   223  112  113 2    
   224  112  114 am   BACKBONE|DICT|INTERRES
   225  114  115 1    
   226  114  235 1    
   227  115  116 1    
   228  115  117 1    
   229  115  236 1    
   230  116  237 1    
   231  116  238 1    
   232  116  239 1    
   233  117  118 2    
   234  117  119 am   BACKBONE|DICT|INTERRES
   235  119  120 1    
   236  119  240 1    
   237  120  121 1    
   238  120  124 1    
   239  120  241 1    
   240  121  122 am   BACKBONE|DICT|INTERRES
   241  121  123 2    
   242  122  242 1    
   243  122  243 1    
   244  124  125 1    
   245  124  244 1    
   246  124  245 1    
   247  125  126 1    
   248  126  246 1    
   249  126  247 1    
@<TRIPOS>SUBSTRUCTURE
     1 UNK         1 GROUP             0       ****    0 ROOT    
