@<TRIPOS>MOLECULE
3R540
247   249    1
SMALL
USER_CHARGES


@<TRIPOS>ATOM
      1 CA          6.4048   -9.8086  -48.6933 C.3       0 UNK        -0.1800 
      2 C           5.2576  -10.7076  -49.1493 C.2       0 UNK         0.5000 
      3 O           4.2538  -10.2015  -49.6460 O.2       0 UNK        -0.5000 
      4 N           5.3529  -12.0372  -49.0100 N.am      1 UNK        -0.5000 
      5 CA          6.4630  -12.7958  -48.4143 C.3       1 UNK         0.1400 
      6 C6          6.5202  -14.2470  -48.9552 C.3       23 UNK        -0.0398 
      7 S7          4.9744  -15.1990  -48.7315 S.3       23 UNK        -0.2404 
      8 C8          4.4276  -15.3722  -50.4560 C.3       23 UNK        -0.0205 
      9 C9          3.1647  -16.2115  -50.5585 C.ar      23 UNK        -0.0193 
     10 C10         1.9078  -15.6011  -50.5601 C.ar      23 UNK        -0.1150 
     11 C11         0.7479  -16.3686  -50.6998 C.ar      23 UNK        -0.0193 
     12 C12         0.8490  -17.7574  -50.8301 C.ar      23 UNK        -0.1150 
     13 C13         2.1012  -18.3789  -50.8202 C.ar      23 UNK        -0.0193 
     14 C14         3.2542  -17.6006  -50.6812 C.ar      23 UNK        -0.1150 
     15 C15         2.2201  -19.8857  -50.9865 C.3       23 UNK        -0.0205 
     16 S16         2.0652  -20.7527  -49.3946 S.3       23 UNK        -0.2404 
     17 C17         0.2752  -21.0986  -49.3347 C.3       23 UNK        -0.0398 
     18 CA         -0.0371  -22.2335  -48.3310 C.3       11 UNK         0.1400 
     19 N           0.0802  -21.7981  -46.9357 N.am      11 UNK        -0.5000 
     20 C           0.0475  -22.6226  -45.8793 C.2       10 UNK         0.5000 
     21 O          -0.0422  -23.8464  -45.9698 O.2       10 UNK        -0.5000 
     22 CA          0.0651  -21.9740  -44.4846 C.3       10 UNK         0.1400 
     23 CB          1.4884  -21.5508  -44.0926 C.3       10 UNK        -0.1800 
     24 N          -0.8444  -20.8319  -44.3871 N.am      10 UNK        -0.5000 
     25 C          -2.1766  -20.9130  -44.5187 C.2       9 UNK         0.5000 
     26 O          -2.7822  -21.9717  -44.6833 O.2       9 UNK        -0.5000 
     27 CA         -2.9636  -19.5897  -44.5131 C.3       9 UNK         0.1400 
     28 CB         -3.1871  -19.0895  -43.0786 C.3       9 UNK        -0.1800 
     29 N          -2.3175  -18.5417  -45.3020 N.am      9 UNK        -0.5000 
     30 C          -2.0821  -18.6088  -46.6200 C.2       8 UNK         0.5000 
     31 O          -2.4133  -19.5567  -47.3300 O.2       8 UNK        -0.5000 
     32 CA         -1.2829  -17.4471  -47.2331 C.3       8 UNK         0.1400 
     33 CB         -2.1788  -16.2196  -47.4606 C.3       8 UNK        -0.1800 
     34 N          -0.1398  -17.0773  -46.3991 N.am      8 UNK        -0.5000 
     35 C           0.9073  -17.8781  -46.1549 C.2       7 UNK         0.5000 
     36 O           1.0318  -19.0059  -46.6303 O.2       7 UNK        -0.5000 
     37 CA          1.9621  -17.3477  -45.1682 C.3       7 UNK         0.1400 
     38 CB          2.9132  -16.3665  -45.8664 C.3       7 UNK        -0.1800 
     39 N           1.3597  -16.7064  -43.9970 N.am      7 UNK        -0.5000 
     40 C           0.6544  -17.3635  -43.0640 C.2       6 UNK         0.5000 
     41 O           0.4794  -18.5810  -43.0737 O.2       6 UNK        -0.5000 
     42 CA         -0.0085  -16.5175  -41.9596 C.3       6 UNK         0.1400 
     43 CB          0.9719  -16.2786  -40.8018 C.3       6 UNK        -0.1800 
     44 N          -0.5168  -15.2278  -42.4307 N.am      6 UNK        -0.5000 
     45 C          -1.4068  -15.0506  -43.4168 C.2       5 UNK         0.5000 
     46 O          -1.9224  -15.9857  -44.0288 O.2       5 UNK        -0.5000 
     47 CA         -1.7840  -13.6032  -43.8024 C.3       5 UNK         0.1400 
     48 CB         -3.3074  -13.4036  -43.7430 C.3       5 UNK        -0.1800 
     49 N          -1.1435  -12.5586  -42.9949 N.am      5 UNK        -0.5000 
     50 C           0.1516  -12.2219  -43.0294 C.2       4 UNK         0.5000 
     51 O           0.9938  -12.8028  -43.7191 O.2       4 UNK        -0.5000 
     52 CA          0.5703  -11.0766  -42.0966 C.3       4 UNK         0.1400 
     53 CB          0.5826  -11.5386  -40.6289 C.3       4 UNK        -0.1800 
     54 N           1.9067  -10.6202  -42.4587 N.am      4 UNK        -0.5000 
     55 C           2.3141   -9.3475  -42.5137 C.2       3 UNK         0.5000 
     56 O           1.5896   -8.3898  -42.2383 O.2       3 UNK        -0.5000 
     57 CA          3.7794   -9.0890  -42.9258 C.3       3 UNK         0.1400 
     58 CB          4.5661   -8.4676  -41.7597 C.3       3 UNK        -0.1800 
     59 N           4.4861  -10.2939  -43.3713 N.am      3 UNK        -0.5000 
     60 C           4.3798  -10.8368  -44.5892 C.2       2 UNK         0.5000 
     61 O           3.6681  -10.3803  -45.4878 O.2       2 UNK        -0.5000 
     62 CA          5.1969  -12.1134  -44.8279 C.3       2 UNK         0.1400 
     63 CB          4.4981  -13.3423  -44.2225 C.3       2 UNK        -0.1800 
     64 N           5.3621  -12.3074  -46.2629 N.am      2 UNK        -0.5000 
     65 C           6.4635  -12.7645  -46.8681 C.2       1 UNK         0.5000 
     66 O           7.4686  -13.1352  -46.2599 O.2       1 UNK        -0.5000 
     67 C          -1.4045  -22.8847  -48.6217 C.2       11 UNK         0.5000 
     68 O          -1.4402  -23.9331  -49.2663 O.2       11 UNK        -0.5000 
     69 N          -2.4945  -22.2942  -48.1094 N.am      12 UNK        -0.5000 
     70 CA         -3.8481  -22.8455  -48.1949 C.3       12 UNK         0.1400 
     71 CB         -4.8637  -21.8497  -47.6141 C.3       12 UNK        -0.1800 
     72 C          -3.9719  -24.2101  -47.4962 C.2       12 UNK         0.5000 
     73 O          -4.5308  -25.1371  -48.0817 O.2       12 UNK        -0.5000 
     74 N          -3.4184  -24.3181  -46.2801 N.am      13 UNK        -0.5000 
     75 CA         -3.3748  -25.5493  -45.4919 C.3       13 UNK         0.1400 
     76 CB         -2.8446  -25.2457  -44.0826 C.3       13 UNK        -0.1800 
     77 C          -2.5462  -26.6573  -46.1650 C.2       13 UNK         0.5000 
     78 O          -3.0130  -27.7938  -46.2442 O.2       13 UNK        -0.5000 
     79 N          -1.3587  -26.3028  -46.6774 N.am      14 UNK        -0.5000 
     80 CA         -0.4600  -27.2020  -47.4069 C.3       14 UNK         0.1400 
     81 CB          0.8677  -26.4829  -47.6889 C.3       14 UNK        -0.1800 
     82 C          -1.0716  -27.7391  -48.7143 C.2       14 UNK         0.5000 
     83 O          -0.8659  -28.9062  -49.0488 O.2       14 UNK        -0.5000 
     84 N          -1.8397  -26.8897  -49.4079 N.am      15 UNK        -0.5000 
     85 CA         -2.5893  -27.2348  -50.6151 C.3       15 UNK         0.1400 
     86 CB         -2.8366  -25.9511  -51.4210 C.3       15 UNK        -0.1800 
     87 C          -3.9277  -27.9453  -50.3300 C.2       15 UNK         0.5000 
     88 O          -4.6197  -28.3012  -51.2832 O.2       15 UNK        -0.5000 
     89 N          -4.3050  -28.0963  -49.0505 N.am      16 UNK        -0.5000 
     90 CA         -5.5768  -28.6469  -48.5635 C.3       16 UNK         0.1400 
     91 CB         -5.6426  -30.1657  -48.8246 C.3       16 UNK        -0.1800 
     92 C          -6.8068  -27.8857  -49.1091 C.2       16 UNK         0.5000 
     93 O          -7.8279  -28.4970  -49.4283 O.2       16 UNK        -0.5000 
     94 N          -6.6586  -26.5585  -49.2322 N.am      17 UNK        -0.5000 
     95 CA         -7.6038  -25.5822  -49.7811 C.3       17 UNK         0.1400 
     96 CB         -8.8825  -25.5133  -48.9208 C.3       17 UNK        -0.1800 
     97 C          -7.9105  -25.7499  -51.2872 C.2       17 UNK         0.5000 
     98 O          -8.8640  -25.1391  -51.7731 O.2       17 UNK        -0.5000 
     99 N          -7.1082  -26.5432  -52.0157 N.am      18 UNK        -0.5000 
    100 CA        -7.2482  -26.7304  -53.4634 C.3       18 UNK         0.1400 
    101 CB        -6.5538  -28.0337  -53.8853 C.3       18 UNK        -0.1800 
    102 C         -6.6919  -25.5409  -54.2691 C.2       18 UNK         0.5000 
    103 O         -7.1856  -25.2661  -55.3638 O.2       18 UNK        -0.5000 
    104 N         -5.6791  -24.8595  -53.7176 N.am      19 UNK        -0.5000 
    105 CA        -5.0950  -23.6420  -54.2768 C.3       19 UNK         0.1400 
    106 CB        -3.6583  -23.4871  -53.7523 C.3       19 UNK        -0.1800 
    107 C         -5.9294  -22.4078  -53.8972 C.2       19 UNK         0.5000 
    108 O         -6.6020  -22.4117  -52.8631 O.2       19 UNK        -0.5000 
    109 N         -5.8263  -21.3535  -54.7172 N.am      20 UNK        -0.5000 
    110 CA        -6.4571  -20.0529  -54.4734 C.3       20 UNK         0.1400 
    111 CB        -6.3760  -19.2034  -55.7511 C.3       20 UNK        -0.1800 
    112 C         -5.8355  -19.2941  -53.2846 C.2       20 UNK         0.5000 
    113 O         -6.5363  -18.5150  -52.6375 O.2       20 UNK        -0.5000 
    114 N         -4.5373  -19.5348  -53.0312 N.am      21 UNK        -0.5000 
    115 CA        -3.7367  -19.0404  -51.9025 C.3       21 UNK         0.1400 
    116 CB        -4.0936  -19.8257  -50.6273 C.3       21 UNK        -0.1800 
    117 C         -3.8164  -17.5108  -51.7112 C.2       21 UNK         0.5000 
    118 O         -3.9962  -17.0288  -50.5925 O.2       21 UNK        -0.5000 
    119 N         -3.7048  -16.7857  -52.8308 N.am      22 UNK        -0.5000 
    120 CA        -3.8128  -15.3194  -52.9436 C.3       22 UNK         0.1400 
    121 C         -5.2524  -14.7499  -52.7454 C.2       22 UNK         0.5000 
    122 N         -6.2950  -15.5653  -52.6359 N.am      22 UNK        -0.7600 
    123 O         -5.4377  -13.5359  -52.7258 O.2       22 UNK        -0.5000 
    124 C124       -2.7604  -14.5409  -52.0998 C.3       23 UNK        -0.0398 
    125 S125       -1.0438  -15.1021  -52.3784 S.3       23 UNK        -0.2404 
    126 C126       -0.6127  -15.6950  -50.7141 C.3       23 UNK        -0.0205 
    127 H127        7.3184  -10.0354  -49.2425 H         1 UNK         0.0600 
    128 H128        6.5945   -9.9237  -47.6266 H         1 UNK         0.0600 
    129 H129        6.1623   -8.7610  -48.8734 H         1 UNK         0.0600 
    130 H130        4.5750  -12.6069  -49.3100 H         1 UNK         0.3000 
    131 H131        7.3968  -12.3213  -48.7203 H         1 UNK         0.0600 
    132 H132        7.3339  -14.8012  -48.4837 H         1 UNK         0.0800 
    133 H133        6.7749  -14.2201  -50.0154 H         1 UNK         0.0800 
    134 H134        5.2224  -15.8336  -51.0444 H         1 UNK         0.0800 
    135 H135        4.2587  -14.3845  -50.8876 H         1 UNK         0.0800 
    136 H136        1.8318  -14.5268  -50.4672 H         1 UNK         0.1150 
    137 H137       -0.0451  -18.3537  -50.9444 H         1 UNK         0.1150 
    138 H138        4.2254  -18.0756  -50.6778 H         1 UNK         0.1150 
    139 H139        1.4782  -20.2487  -51.6989 H         1 UNK         0.0800 
    140 H140        3.1911  -20.1321  -51.4187 H         1 UNK         0.0800 
    141 H141       -0.0481  -21.3766  -50.3396 H         1 UNK         0.0800 
    142 H142       -0.2631  -20.1857  -49.0753 H         1 UNK         0.0800 
    143 H143        0.7041  -23.0222  -48.4793 H         1 UNK         0.0600 
    144 H144        0.2099  -20.8022  -46.7813 H         1 UNK         0.3000 
    145 H145       -0.2706  -22.7257  -43.7673 H         1 UNK         0.0600 
    146 H146        1.5202  -21.1794  -43.0683 H         1 UNK         0.0600 
    147 H147        1.8716  -20.7659  -44.7447 H         1 UNK         0.0600 
    148 H148        2.1772  -22.3943  -44.1539 H         1 UNK         0.0600 
    149 H149       -0.4207  -19.9287  -44.1982 H         1 UNK         0.3000 
    150 H150       -3.9402  -19.7828  -44.9613 H         1 UNK         0.0600 
    151 H151       -3.7147  -19.8358  -42.4834 H         1 UNK         0.0600 
    152 H152       -3.7864  -18.1788  -43.0670 H         1 UNK         0.0600 
    153 H153       -2.2443  -18.8753  -42.5756 H         1 UNK         0.0600 
    154 H154       -2.0388  -17.6997  -44.8040 H         1 UNK         0.3000 
    155 H155       -0.8992  -17.7755  -48.2011 H         1 UNK         0.0600 
    156 H156       -2.6447  -15.8747  -46.5380 H         1 UNK         0.0600 
    157 H157       -2.9823  -16.4533  -48.1593 H         1 UNK         0.0600 
    158 H158       -1.6144  -15.3868  -47.8781 H         1 UNK         0.0600 
    159 H159       -0.1966  -16.1935  -45.9166 H         1 UNK         0.3000 
    160 H160        2.5508  -18.2007  -44.8239 H         1 UNK         0.0600 
    161 H161        2.4035  -15.4540  -46.1780 H         1 UNK         0.0600 
    162 H162        3.3479  -16.8201  -46.7580 H         1 UNK         0.0600 
    163 H163        3.7385  -16.0875  -45.2124 H         1 UNK         0.0600 
    164 H164        1.4474  -15.7028  -43.9216 H         1 UNK         0.3000 
    165 H165       -0.8588  -17.0846  -41.5762 H         1 UNK         0.0600 
    166 H166        0.4863  -15.7628  -39.9731 H         1 UNK         0.0600 
    167 H167        1.3564  -17.2232  -40.4144 H         1 UNK         0.0600 
    168 H168        1.8275  -15.6791  -41.1156 H         1 UNK         0.0600 
    169 H169       -0.1353  -14.4042  -41.9914 H         1 UNK         0.3000 
    170 H170       -1.4674  -13.4659  -44.8383 H         1 UNK         0.0600 
    171 H171       -3.8250  -14.1194  -44.3831 H         1 UNK         0.0600 
    172 H172       -3.6898  -13.5333  -42.7298 H         1 UNK         0.0600 
    173 H173       -3.5891  -12.4073  -44.0844 H         1 UNK         0.0600 
    174 H174       -1.7573  -12.0470  -42.3768 H         1 UNK         0.3000 
    175 H175       -0.1523  -10.2669  -42.2181 H         1 UNK         0.0600 
    176 H176        0.8803  -10.7266  -39.9650 H         1 UNK         0.0600 
    177 H177       -0.4054  -11.8704  -40.3078 H         1 UNK         0.0600 
    178 H178        1.2755  -12.3666  -40.4735 H         1 UNK         0.0600 
    179 H179        2.5289  -11.3461  -42.7861 H         1 UNK         0.3000 
    180 H180        3.7621   -8.3673  -43.7453 H         1 UNK         0.0600 
    181 H181        5.5878   -8.2287  -42.0557 H         1 UNK         0.0600 
    182 H182        4.6122   -9.1398  -40.9021 H         1 UNK         0.0600 
    183 H183        4.1030   -7.5388  -41.4239 H         1 UNK         0.0600 
    184 H184        5.0856  -10.7348  -42.6880 H         1 UNK         0.3000 
    185 H185        6.1720  -11.9804  -44.3541 H         1 UNK         0.0600 
    186 H186        5.0993  -14.2406  -44.3622 H         1 UNK         0.0600 
    187 H187        4.3400  -13.2226  -43.1502 H         1 UNK         0.0600 
    188 H188        3.5241  -13.5152  -44.6819 H         1 UNK         0.0600 
    189 H189        4.5969  -11.9597  -46.8268 H         1 UNK         0.3000 
    190 H190       -2.3955  -21.4011  -47.6317 H         1 UNK         0.3000 
    191 H191       -4.0799  -22.9904  -49.2521 H         1 UNK         0.0600 
    192 H192       -4.8112  -20.8856  -48.1173 H         1 UNK         0.0600 
    193 H193       -4.6975  -21.6749  -46.5515 H         1 UNK         0.0600 
    194 H194       -5.8824  -22.2217  -47.7296 H         1 UNK         0.0600 
    195 H195       -3.0130  -23.4904  -45.8512 H         1 UNK         0.3000 
    196 H196       -4.3990  -25.9155  -45.3950 H         1 UNK         0.0600 
    197 H197       -3.4827  -24.5263  -43.5692 H         1 UNK         0.0600 
    198 H198       -1.8352  -24.8346  -44.1105 H         1 UNK         0.0600 
    199 H199       -2.8157  -26.1491  -43.4722 H         1 UNK         0.0600 
    200 H200       -1.0278  -25.3509  -46.5357 H         1 UNK         0.3000 
    201 H201       -0.2533  -28.0588  -46.7624 H         1 UNK         0.0600 
    202 H202        1.3542  -26.1765  -46.7628 H         1 UNK         0.0600 
    203 H203        0.7192  -25.5917  -48.2995 H         1 UNK         0.0600 
    204 H204        1.5617  -27.1351  -48.2205 H         1 UNK         0.0600 
    205 H205       -1.9102  -25.9266  -49.0943 H         1 UNK         0.3000 
    206 H206       -1.9864  -27.9088  -51.2269 H         1 UNK         0.0600 
    207 H207       -3.4628  -25.2471  -50.8712 H         1 UNK         0.0600 
    208 H208       -1.8995  -25.4485  -51.6613 H         1 UNK         0.0600 
    209 H209       -3.3345  -26.1741  -52.3650 H         1 UNK         0.0600 
    210 H210       -3.6824  -27.7518  -48.3300 H         1 UNK         0.3000 
    211 H211       -5.5807  -28.4956  -47.4832 H         1 UNK         0.0600 
    212 H212       -5.6944  -30.3918  -49.8901 H         1 UNK         0.0600 
    213 H213       -6.5218  -30.6063  -48.3533 H         1 UNK         0.0600 
    214 H214       -4.7684  -30.6728  -48.4161 H         1 UNK         0.0600 
    215 H215       -5.7815  -26.1561  -48.9027 H         1 UNK         0.3000 
    216 H216       -7.1037  -24.6165  -49.6933 H         1 UNK         0.0600 
    217 H217       -9.5120  -24.6744  -49.2196 H         1 UNK         0.0600 
    218 H218       -8.6413  -25.3746  -47.8668 H         1 UNK         0.0600 
    219 H219       -9.4825  -26.4188  -49.0125 H         1 UNK         0.0600 
    220 H220       -6.3606  -27.0538  -51.5598 H         1 UNK         0.3000 
    221 H221       -8.3099  -26.8276  -53.7005 H         1 UNK         0.0600 
    222 H222       -5.4722  -27.9734  -53.7610 H         1 UNK         0.0600 
    223 H223       -6.9131  -28.8819  -53.3021 H         1 UNK         0.0600 
    224 H224       -6.7479  -28.2539  -54.9357 H         1 UNK         0.0600 
    225 H225       -5.3808  -25.1203  -52.7907 H         1 UNK         0.3000 
    226 H226       -5.0611  -23.7263  -55.3653 H         1 UNK         0.0600 
    227 H227       -3.0458  -24.3480  -54.0201 H         1 UNK         0.0600 
    228 H228       -3.1766  -22.6073  -54.1802 H         1 UNK         0.0600 
    229 H229       -3.6334  -23.3767  -52.6673 H         1 UNK         0.0600 
    230 H230       -5.2596  -21.4306  -55.5498 H         1 UNK         0.3000 
    231 H231       -7.5110  -20.2221  -54.2418 H         1 UNK         0.0600 
    232 H232       -6.8567  -18.2347  -55.6070 H         1 UNK         0.0600 
    233 H233       -6.8811  -19.6939  -56.5835 H         1 UNK         0.0600 
    234 H234       -5.3432  -19.0161  -56.0473 H         1 UNK         0.0600 
    235 H235       -4.0603  -20.1692  -53.6546 H         1 UNK         0.3000 
    236 H236       -2.6948  -19.2599  -52.1402 H         1 UNK         0.0600 
    237 H237       -5.1213  -19.6381  -50.3148 H         1 UNK         0.0600 
    238 H238       -3.9798  -20.8989  -50.7799 H         1 UNK         0.0600 
    239 H239       -3.4402  -19.5456  -49.8009 H         1 UNK         0.0600 
    240 H240       -3.5812  -17.2780  -53.7034 H         1 UNK         0.3000 
    241 H241       -3.5878  -15.1100  -53.9898 H         1 UNK         0.0600 
    242 H242       -7.2147  -15.1704  -52.5214 H         1 UNK         0.3800 
    243 H243       -6.1845  -16.5742  -52.6271 H         1 UNK         0.3800 
    244 H244       -3.0038  -14.6011  -51.0381 H         1 UNK         0.0800 
    245 H245       -2.7926  -13.4790  -52.3486 H         1 UNK         0.0800 
    246 H246       -0.6166  -14.8527  -50.0211 H         1 UNK         0.0800 
    247 H247       -1.3742  -16.3910  -50.3626 H         1 UNK         0.0800 
@<TRIPOS>BOND
     1    1    2 1    
     2    1  127 1    
     3    1  128 1    
     4    1  129 1    
     5    2    3 2    
     6    2    4 am   BACKBONE|DICT|INTERRES
     7    4    5 1    
     8    4  130 1    
     9    5    6 1    
    10    5   65 1    
    11    5  131 1    
    12    6    7 1    
    13    6  132 1    
    14    6  133 1    
    15    7    8 1    
    16    8    9 1    
    17    8  134 1    
    18    8  135 1    
    19    9   10 ar   
    20    9   14 ar   
    21   10   11 ar   
    22   10  136 1    
    23   11   12 ar   
    24   11  126 1    
    25   12   13 ar   
    26   12  137 1    
    27   13   14 ar   
    28   13   15 1    
    29   14  138 1    
    30   15   16 1    
    31   15  139 1    
    32   15  140 1    
    33   16   17 1    
    34   17   18 1    
    35   17  141 1    
    36   17  142 1    
    37   18   19 1    
    38   18   67 1    
    39   18  143 1    
    40   19   20 am   BACKBONE|DICT|INTERRES
    41   19  144 1    
    42   20   21 2    
    43   20   22 1    
    44   22   23 1    
    45   22   24 1    
    46   22  145 1    
    47   23  146 1    
    48   23  147 1    
    49   23  148 1    
    50   24   25 am   BACKBONE|DICT|INTERRES
    51   24  149 1    
    52   25   26 2    
    53   25   27 1    
    54   27   28 1    
    55   27   29 1    
    56   27  150 1    
    57   28  151 1    
    58   28  152 1    
    59   28  153 1    
    60   29   30 am   BACKBONE|DICT|INTERRES
    61   29  154 1    
    62   30   31 2    
    63   30   32 1    
    64   32   33 1    
    65   32   34 1    
    66   32  155 1    
    67   33  156 1    
    68   33  157 1    
    69   33  158 1    
    70   34   35 am   BACKBONE|DICT|INTERRES
    71   34  159 1    
    72   35   36 2    
    73   35   37 1    
    74   37   38 1    
    75   37   39 1    
    76   37  160 1    
    77   38  161 1    
    78   38  162 1    
    79   38  163 1    
    80   39   40 am   BACKBONE|DICT|INTERRES
    81   39  164 1    
    82   40   41 2    
    83   40   42 1    
    84   42   43 1    
    85   42   44 1    
    86   42  165 1    
    87   43  166 1    
    88   43  167 1    
    89   43  168 1    
    90   44   45 am   BACKBONE|DICT|INTERRES
    91   44  169 1    
    92   45   46 2    
    93   45   47 1    
    94   47   48 1    
    95   47   49 1    
    96   47  170 1    
    97   48  171 1    
    98   48  172 1    
    99   48  173 1    
   100   49   50 am   BACKBONE|DICT|INTERRES
   101   49  174 1    
   102   50   51 2    
   103   50   52 1    
   104   52   53 1    
   105   52   54 1    
   106   52  175 1    
   107   53  176 1    
   108   53  177 1    
   109   53  178 1    
   110   54   55 am   BACKBONE|DICT|INTERRES
   111   54  179 1    
   112   55   56 2    
   113   55   57 1    
   114   57   58 1    
   115   57   59 1    
   116   57  180 1    
   117   58  181 1    
   118   58  182 1    
   119   58  183 1    
   120   59   60 am   BACKBONE|DICT|INTERRES
   121   59  184 1    
   122   60   61 2    
   123   60   62 1    
   124   62   63 1    
   125   62   64 1    
   126   62  185 1    
   127   63  186 1    
   128   63  187 1    
   129   63  188 1    
   130   64   65 am   BACKBONE|DICT|INTERRES
   131   64  189 1    
   132   65   66 2    
   133   67   68 2    
   134   67   69 am   BACKBONE|DICT|INTERRES
   135   69   70 1    
   136   69  190 1    
   137   70   71 1    
   138   70   72 1    
   139   70  191 1    
   140   71  192 1    
   141   71  193 1    
   142   71  194 1    
   143   72   73 2    
   144   72   74 am   BACKBONE|DICT|INTERRES
   145   74   75 1    
   146   74  195 1    
   147   75   76 1    
   148   75   77 1    
   149   75  196 1    
   150   76  197 1    
   151   76  198 1    
   152   76  199 1    
   153   77   78 2    
   154   77   79 am   BACKBONE|DICT|INTERRES
   155   79   80 1    
   156   79  200 1    
   157   80   81 1    
   158   80   82 1    
   159   80  201 1    
   160   81  202 1    
   161   81  203 1    
   162   81  204 1    
   163   82   83 2    
   164   82   84 am   BACKBONE|DICT|INTERRES
   165   84   85 1    
   166   84  205 1    
   167   85   86 1    
   168   85   87 1    
   169   85  206 1    
   170   86  207 1    
   171   86  208 1    
   172   86  209 1    
   173   87   88 2    
   174   87   89 am   BACKBONE|DICT|INTERRES
   175   89   90 1    
   176   89  210 1    
   177   90   91 1    
   178   90   92 1    
   179   90  211 1    
   180   91  212 1    
   181   91  213 1    
   182   91  214 1    
   183   92   93 2    
   184   92   94 am   BACKBONE|DICT|INTERRES
   185   94   95 1    
   186   94  215 1    
   187   95   96 1    
   188   95   97 1    
   189   95  216 1    
   190   96  217 1    
   191   96  218 1    
   192   96  219 1    
   193   97   98 2    
   194   97   99 am   BACKBONE|DICT|INTERRES
   195   99  100 1    
   196   99  220 1    
   197  100  101 1    
   198  100  102 1    
   199  100  221 1    
   200  101  222 1    
   201  101  223 1    
   202  101  224 1    
   203  102  103 2    
   204  102  104 am   BACKBONE|DICT|INTERRES
   205  104  105 1    
   206  104  225 1    
   207  105  106 1    
   208  105  107 1    
   209  105  226 1    
   210  106  227 1    
   211  106  228 1    
   212  106  229 1    
   213  107  108 2    
   214  107  109 am   BACKBONE|DICT|INTERRES
   215  109  110 1    
   216  109  230 1    
   217  110  111 1    
   218  110  112 1    
   219  110  231 1    
   220  111  232 1    
   221  111  233 1    
   222  111  234 1    
   223  112  113 2    
   224  112  114 am   BACKBONE|DICT|INTERRES
   225  114  115 1    
   226  114  235 1    
   227  115  116 1    
   228  115  117 1    
   229  115  236 1    
   230  116  237 1    
   231  116  238 1    
   232  116  239 1    
   233  117  118 2    
   234  117  119 am   BACKBONE|DICT|INTERRES
   235  119  120 1    
   236  119  240 1    
   237  120  121 1    
   238  120  124 1    
   239  120  241 1    
   240  121  122 am   BACKBONE|DICT|INTERRES
   241  121  123 2    
   242  122  242 1    
   243  122  243 1    
   244  124  125 1    
   245  124  244 1    
   246  124  245 1    
   247  125  126 1    
   248  126  246 1    
   249  126  247 1    
@<TRIPOS>SUBSTRUCTURE
     1 UNK         1 GROUP             0       ****    0 ROOT    
