@<TRIPOS>MOLECULE
3R540
247   249    1
SMALL
USER_CHARGES


@<TRIPOS>ATOM
      1 CA          7.1931  -18.0823  -46.7428 C.3       0 UNK        -0.1800 
      2 C           6.0162  -17.2408  -47.2151 C.2       0 UNK         0.5000 
      3 O           5.2289  -17.6974  -48.0436 O.2       0 UNK        -0.5000 
      4 N           5.8963  -16.0137  -46.6991 N.am      1 UNK        -0.5000 
      5 CA          4.7986  -15.0914  -46.9697 C.3       1 UNK         0.1400 
      6 C6          4.8751  -14.4632  -48.3871 C.3       23 UNK        -0.0398 
      7 S7          3.2330  -13.9858  -49.0157 S.3       23 UNK        -0.2404 
      8 C8          2.6325  -15.5938  -49.6292 C.3       23 UNK        -0.0205 
      9 C9          1.1841  -15.5191  -50.0891 C.ar      23 UNK        -0.0193 
     10 C10         0.8402  -15.8146  -51.4116 C.ar      23 UNK        -0.1150 
     11 C11        -0.4931  -15.7517  -51.8296 C.ar      23 UNK        -0.0193 
     12 C12        -1.4871  -15.3947  -50.9132 C.ar      23 UNK        -0.1150 
     13 C13        -1.1553  -15.0982  -49.5882 C.ar      23 UNK        -0.0193 
     14 C14         0.1807  -15.1634  -49.1838 C.ar      23 UNK        -0.1150 
     15 C15        -2.2332  -14.6872  -48.5951 C.3       23 UNK        -0.0205 
     16 S16        -3.2266  -16.1005  -48.0182 S.3       23 UNK        -0.2404 
     17 C17        -1.9636  -17.1677  -47.2486 C.3       23 UNK        -0.0398 
     18 CA         -1.8189  -18.5239  -47.9769 C.3       11 UNK         0.1400 
     19 N          -0.4655  -19.0685  -47.8420 N.am      11 UNK        -0.5000 
     20 C           0.0009  -20.1352  -48.5077 C.2       10 UNK         0.5000 
     21 O          -0.6487  -20.7592  -49.3430 O.2       10 UNK        -0.5000 
     22 CA          1.4113  -20.6222  -48.1303 C.3       10 UNK         0.1400 
     23 CB          2.4746  -19.8746  -48.9479 C.3       10 UNK        -0.1800 
     24 N           1.6978  -20.4605  -46.7050 N.am      10 UNK        -0.5000 
     25 C           1.0229  -21.0342  -45.7012 C.2       9 UNK         0.5000 
     26 O           0.1048  -21.8352  -45.8754 O.2       9 UNK        -0.5000 
     27 CA          1.3771  -20.5903  -44.2691 C.3       9 UNK         0.1400 
     28 CB          2.5859  -21.3684  -43.7186 C.3       9 UNK        -0.1800 
     29 N           1.5502  -19.1383  -44.1244 N.am      9 UNK        -0.5000 
     30 C           2.5121  -18.3452  -44.6215 C.2       8 UNK         0.5000 
     31 O           3.4469  -18.7406  -45.3165 O.2       8 UNK        -0.5000 
     32 CA          2.3847  -16.8461  -44.3115 C.3       8 UNK         0.1400 
     33 CB          1.3763  -16.1939  -45.2718 C.3       8 UNK        -0.1800 
     34 N           1.9709  -16.5958  -42.9336 N.am      8 UNK        -0.5000 
     35 C           2.6999  -16.8897  -41.8468 C.2       7 UNK         0.5000 
     36 O           3.8394  -17.3545  -41.8853 O.2       7 UNK        -0.5000 
     37 CA          2.0292  -16.6379  -40.4861 C.3       7 UNK         0.1400 
     38 CB          2.2183  -15.1783  -40.0463 C.3       7 UNK        -0.1800 
     39 N           0.6023  -16.9608  -40.5251 N.am      7 UNK        -0.5000 
     40 C           0.1126  -18.2090  -40.4957 C.2       6 UNK         0.5000 
     41 O           0.8084  -19.2150  -40.3575 O.2       6 UNK        -0.5000 
     42 CA         -1.4101  -18.3625  -40.6665 C.3       6 UNK         0.1400 
     43 CB         -2.1138  -18.3121  -39.3020 C.3       6 UNK        -0.1800 
     44 N          -1.9882  -17.3433  -41.5429 N.am      6 UNK        -0.5000 
     45 C          -1.8085  -17.2935  -42.8693 C.2       5 UNK         0.5000 
     46 O          -1.1492  -18.1160  -43.5078 O.2       5 UNK        -0.5000 
     47 CA         -2.4473  -16.0993  -43.6008 C.3       5 UNK         0.1400 
     48 CB         -3.8932  -16.4263  -44.0051 C.3       5 UNK        -0.1800 
     49 N          -2.4218  -14.8451  -42.8440 N.am      5 UNK        -0.5000 
     50 C          -1.3029  -14.2086  -42.4764 C.2       4 UNK         0.5000 
     51 O          -0.1700  -14.6703  -42.6317 O.2       4 UNK        -0.5000 
     52 CA         -1.4725  -12.8406  -41.8025 C.3       4 UNK         0.1400 
     53 CB         -1.1439  -12.9279  -40.3043 C.3       4 UNK        -0.1800 
     54 N          -0.5769  -11.8790  -42.4400 N.am      4 UNK        -0.5000 
     55 C          -0.9087  -11.1101  -43.4860 C.2       3 UNK         0.5000 
     56 O          -2.0410  -11.0618  -43.9683 O.2       3 UNK        -0.5000 
     57 CA          0.2139  -10.2518  -44.1026 C.3       3 UNK         0.1400 
     58 CB          0.2881   -8.8827  -43.4089 C.3       3 UNK        -0.1800 
     59 N           1.5286  -10.8959  -44.0393 N.am      3 UNK        -0.5000 
     60 C           1.8861  -11.9477  -44.7868 C.2       2 UNK         0.5000 
     61 O           1.1588  -12.4618  -45.6418 O.2       2 UNK        -0.5000 
     62 CA          3.2836  -12.5293  -44.5219 C.3       2 UNK         0.1400 
     63 CB          3.3374  -13.1956  -43.1329 C.3       2 UNK        -0.1800 
     64 N           3.5768  -13.5055  -45.5663 N.am      2 UNK        -0.5000 
     65 C           4.7678  -14.0413  -45.8454 C.2       1 UNK         0.5000 
     66 O           5.8101  -13.7531  -45.2504 O.2       1 UNK        -0.5000 
     67 C          -2.8831  -19.5218  -47.4746 C.2       11 UNK         0.5000 
     68 O          -3.8903  -19.7395  -48.1473 O.2       11 UNK        -0.5000 
     69 N          -2.6211  -20.1322  -46.3089 N.am      12 UNK        -0.5000 
     70 CA         -3.4751  -21.1544  -45.7072 C.3       12 UNK         0.1400 
     71 CB         -3.0104  -21.4379  -44.2706 C.3       12 UNK        -0.1800 
     72 C          -3.5131  -22.4388  -46.5529 C.2       12 UNK         0.5000 
     73 O          -4.5914  -22.9935  -46.7596 O.2       12 UNK        -0.5000 
     74 N          -2.3503  -22.8523  -47.0772 N.am      13 UNK        -0.5000 
     75 CA         -2.2164  -23.9719  -48.0091 C.3       13 UNK         0.1400 
     76 CB         -0.7310  -24.2757  -48.2490 C.3       13 UNK        -0.1800 
     77 C          -2.9473  -23.7285  -49.3419 C.2       13 UNK         0.5000 
     78 O          -3.5831  -24.6497  -49.8531 O.2       13 UNK        -0.5000 
     79 N          -2.8675  -22.4993  -49.8696 N.am      14 UNK        -0.5000 
     80 CA         -3.5844  -22.0523  -51.0644 C.3       14 UNK         0.1400 
     81 CB         -3.0939  -20.6532  -51.4705 C.3       14 UNK        -0.1800 
     82 C          -5.1094  -22.0614  -50.8661 C.2       14 UNK         0.5000 
     83 O          -5.8294  -22.5633  -51.7286 O.2       14 UNK        -0.5000 
     84 N          -5.5704  -21.5450  -49.7176 N.am      15 UNK        -0.5000 
     85 CA         -6.9783  -21.5281  -49.3135 C.3       15 UNK         0.1400 
     86 CB         -7.1365  -20.6694  -48.0498 C.3       15 UNK        -0.1800 
     87 C          -7.5598  -22.9379  -49.0924 C.2       15 UNK         0.5000 
     88 O          -8.7048  -23.1896  -49.4688 O.2       15 UNK        -0.5000 
     89 N          -6.7517  -23.8380  -48.5163 N.am      16 UNK        -0.5000 
     90 CA         -7.0771  -25.2516  -48.3117 C.3       16 UNK         0.1400 
     91 CB         -6.1194  -25.8285  -47.2566 C.3       16 UNK        -0.1800 
     92 C          -7.0128  -26.0965  -49.6011 C.2       16 UNK         0.5000 
     93 O          -7.4704  -27.2397  -49.5877 O.2       16 UNK        -0.5000 
     94 N          -6.4243  -25.5391  -50.6702 N.am      17 UNK        -0.5000 
     95 CA         -6.1211  -26.1696  -51.9595 C.3       17 UNK         0.1400 
     96 CB         -7.4094  -26.5903  -52.6967 C.3       17 UNK        -0.1800 
     97 C          -5.0813  -27.3081  -51.8506 C.2       17 UNK         0.5000 
     98 O          -5.0631  -28.2130  -52.6872 O.2       17 UNK        -0.5000 
     99 N          -4.2180  -27.2304  -50.8290 N.am      18 UNK        -0.5000 
    100 CA        -3.0339  -28.0719  -50.6600 C.3       18 UNK         0.1400 
    101 CB        -2.6390  -28.0907  -49.1752 C.3       18 UNK        -0.1800 
    102 C         -1.8722  -27.5563  -51.5294 C.2       18 UNK         0.5000 
    103 O         -1.1042  -28.3565  -52.0647 O.2       18 UNK        -0.5000 
    104 N         -1.8006  -26.2289  -51.6784 N.am      19 UNK        -0.5000 
    105 CA        -0.9999  -25.5195  -52.6705 C.3       19 UNK         0.1400 
    106 CB        -0.1985  -24.4138  -51.9610 C.3       19 UNK        -0.1800 
    107 C         -1.9474  -24.9235  -53.7276 C.2       19 UNK         0.5000 
    108 O         -3.1703  -25.0183  -53.5872 O.2       19 UNK        -0.5000 
    109 N         -1.3729  -24.3085  -54.7690 N.am      20 UNK        -0.5000 
    110 CA        -2.1110  -23.5827  -55.8050 C.3       20 UNK         0.1400 
    111 CB        -1.1294  -23.1060  -56.8862 C.3       20 UNK        -0.1800 
    112 C         -2.8853  -22.3894  -55.2139 C.2       20 UNK         0.5000 
    113 O         -2.3275  -21.6469  -54.4035 O.2       20 UNK        -0.5000 
    114 N         -4.1484  -22.2308  -55.6259 N.am      21 UNK        -0.5000 
    115 CA        -5.0755  -21.2068  -55.1435 C.3       21 UNK         0.1400 
    116 CB        -6.5136  -21.6581  -55.4541 C.3       21 UNK        -0.1800 
    117 C         -4.7484  -19.8163  -55.7259 C.2       21 UNK         0.5000 
    118 O         -5.4689  -19.3200  -56.5938 O.2       21 UNK        -0.5000 
    119 N         -3.6419  -19.2299  -55.2572 N.am      22 UNK        -0.5000 
    120 CA        -3.1161  -17.9251  -55.6872 C.3       22 UNK         0.1400 
    121 C         -3.9460  -16.6793  -55.2518 C.2       22 UNK         0.5000 
    122 N         -4.9194  -16.8028  -54.3577 N.am      22 UNK        -0.7600 
    123 O         -3.7061  -15.5805  -55.7448 O.2       22 UNK        -0.5000 
    124 C124       -1.6123  -17.7805  -55.3358 C.3       23 UNK        -0.0398 
    125 S125       -1.2483  -17.7961  -53.5422 S.3       23 UNK        -0.2404 
    126 C126       -0.8555  -16.0392  -53.2774 C.3       23 UNK        -0.0205 
    127 H127        7.8161  -18.3667  -47.5908 H         1 UNK         0.0600 
    128 H128        7.8154  -17.5439  -46.0275 H         1 UNK         0.0600 
    129 H129        6.8313  -18.9917  -46.2627 H         1 UNK         0.0600 
    130 H130        6.5570  -15.6697  -46.0123 H         1 UNK         0.3000 
    131 H131        3.8830  -15.6779  -46.8843 H         1 UNK         0.0600 
    132 H132        5.3081  -15.1636  -49.1022 H         1 UNK         0.0800 
    133 H133        5.5332  -13.5925  -48.4007 H         1 UNK         0.0800 
    134 H134        3.2802  -15.9310  -50.4400 H         1 UNK         0.0800 
    135 H135        2.7101  -16.3427  -48.8405 H         1 UNK         0.0800 
    136 H136        1.6092  -16.0907  -52.1195 H         1 UNK         0.1150 
    137 H137       -2.5191  -15.3440  -51.2314 H         1 UNK         0.1150 
    138 H138        0.4459  -14.9260  -48.1630 H         1 UNK         0.1150 
    139 H139       -1.7919  -14.1840  -47.7330 H         1 UNK         0.0800 
    140 H140       -2.8963  -13.9588  -49.0640 H         1 UNK         0.0800 
    141 H141       -2.2156  -17.3148  -46.2008 H         1 UNK         0.0800 
    142 H142       -1.0139  -16.6365  -47.2369 H         1 UNK         0.0800 
    143 H143       -1.9836  -18.3677  -49.0458 H         1 UNK         0.0600 
    144 H144        0.1406  -18.6314  -47.1658 H         1 UNK         0.3000 
    145 H145        1.4752  -21.6856  -48.3678 H         1 UNK         0.0600 
    146 H146        3.4734  -20.2607  -48.7436 H         1 UNK         0.0600 
    147 H147        2.2950  -19.9845  -50.0182 H         1 UNK         0.0600 
    148 H148        2.4793  -18.8077  -48.7226 H         1 UNK         0.0600 
    149 H149        2.4534  -19.8278  -46.4522 H         1 UNK         0.3000 
    150 H150        0.5178  -20.8410  -43.6449 H         1 UNK         0.0600 
    151 H151        2.3907  -22.4414  -43.7248 H         1 UNK         0.0600 
    152 H152        2.8000  -21.0819  -42.6888 H         1 UNK         0.0600 
    153 H153        3.4870  -21.1993  -44.3085 H         1 UNK         0.0600 
    154 H154        0.7865  -18.6792  -43.6376 H         1 UNK         0.3000 
    155 H155        3.3626  -16.3845  -44.4588 H         1 UNK         0.0600 
    156 H156        1.2797  -15.1264  -45.0798 H         1 UNK         0.0600 
    157 H157        0.3851  -16.6328  -45.1689 H         1 UNK         0.0600 
    158 H158        1.6804  -16.3179  -46.3112 H         1 UNK         0.0600 
    159 H159        1.0771  -16.1309  -42.8047 H         1 UNK         0.3000 
    160 H160        2.5143  -17.2787  -39.7466 H         1 UNK         0.0600 
    161 H161        1.7816  -14.4811  -40.7604 H         1 UNK         0.0600 
    162 H162        3.2776  -14.9334  -39.9599 H         1 UNK         0.0600 
    163 H163        1.7611  -14.9956  -39.0739 H         1 UNK         0.0600 
    164 H164       -0.0328  -16.1929  -40.6846 H         1 UNK         0.3000 
    165 H165       -1.5970  -19.3425  -41.1114 H         1 UNK         0.0600 
    166 H166       -1.9791  -17.3461  -38.8137 H         1 UNK         0.0600 
    167 H167       -3.1843  -18.4913  -39.4037 H         1 UNK         0.0600 
    168 H168       -1.7198  -19.0769  -38.6314 H         1 UNK         0.0600 
    169 H169       -2.5467  -16.6255  -41.1050 H         1 UNK         0.3000 
    170 H170       -1.8651  -15.9249  -44.5059 H         1 UNK         0.0600 
    171 H171       -3.9506  -17.3736  -44.5433 H         1 UNK         0.0600 
    172 H172       -4.5456  -16.5076  -43.1349 H         1 UNK         0.0600 
    173 H173       -4.3013  -15.6573  -44.6614 H         1 UNK         0.0600 
    174 H174       -3.3149  -14.4061  -42.6714 H         1 UNK         0.3000 
    175 H175       -2.5090  -12.5120  -41.9042 H         1 UNK         0.0600 
    176 H176       -1.3047  -11.9682  -39.8127 H         1 UNK         0.0600 
    177 H177       -1.7812  -13.6589  -39.8050 H         1 UNK         0.0600 
    178 H178       -0.1088  -13.2199  -40.1299 H         1 UNK         0.0600 
    179 H179        0.3882  -11.9040  -42.1477 H         1 UNK         0.3000 
    180 H180       -0.0366  -10.0856  -45.1527 H         1 UNK         0.0600 
    181 H181        0.5538   -8.9778  -42.3553 H         1 UNK         0.0600 
    182 H182       -0.6718   -8.3671  -43.4599 H         1 UNK         0.0600 
    183 H183        1.0271   -8.2384  -43.8856 H         1 UNK         0.0600 
    184 H184        2.1833  -10.5217  -43.3676 H         1 UNK         0.3000 
    185 H185        4.0151  -11.7206  -44.5771 H         1 UNK         0.0600 
    186 H186        4.2922  -13.6887  -42.9522 H         1 UNK         0.0600 
    187 H187        3.2012  -12.4631  -42.3370 H         1 UNK         0.0600 
    188 H188        2.5508  -13.9410  -43.0259 H         1 UNK         0.0600 
    189 H189        2.7694  -13.7231  -46.1396 H         1 UNK         0.3000 
    190 H190       -1.7584  -19.9270  -45.8276 H         1 UNK         0.3000 
    191 H191       -4.4912  -20.7569  -45.6601 H         1 UNK         0.0600 
    192 H192       -3.0200  -20.5302  -43.6664 H         1 UNK         0.0600 
    193 H193       -3.6693  -22.1590  -43.7856 H         1 UNK         0.0600 
    194 H194       -2.0008  -21.8476  -44.2418 H         1 UNK         0.0600 
    195 H195       -1.4965  -22.3687  -46.8127 H         1 UNK         0.3000 
    196 H196       -2.6685  -24.8472  -47.5387 H         1 UNK         0.0600 
    197 H197       -0.6116  -25.1561  -48.8815 H         1 UNK         0.0600 
    198 H198       -0.2122  -24.4757  -47.3114 H         1 UNK         0.0600 
    199 H199       -0.2241  -23.4461  -48.7416 H         1 UNK         0.0600 
    200 H200       -2.2513  -21.8176  -49.4363 H         1 UNK         0.3000 
    201 H201       -3.3510  -22.7431  -51.8770 H         1 UNK         0.0600 
    202 H202       -2.0381  -20.6722  -51.7416 H         1 UNK         0.0600 
    203 H203       -3.2176  -19.9263  -50.6692 H         1 UNK         0.0600 
    204 H204       -3.6400  -20.2761  -52.3341 H         1 UNK         0.0600 
    205 H205       -4.9104  -21.1047  -49.0819 H         1 UNK         0.3000 
    206 H206       -7.5483  -21.0578  -50.1172 H         1 UNK         0.0600 
    207 H207       -6.7958  -19.6482  -48.2223 H         1 UNK         0.0600 
    208 H208       -8.1811  -20.6168  -47.7406 H         1 UNK         0.0600 
    209 H209       -6.5657  -21.0745  -47.2138 H         1 UNK         0.0600 
    210 H210       -5.8519  -23.5272  -48.1608 H         1 UNK         0.3000 
    211 H211       -8.0956  -25.3208  -47.9244 H         1 UNK         0.0600 
    212 H212       -5.0817  -25.7803  -47.5887 H         1 UNK         0.0600 
    213 H213       -6.3484  -26.8738  -47.0455 H         1 UNK         0.0600 
    214 H214       -6.1955  -25.2842  -46.3151 H         1 UNK         0.0600 
    215 H215       -6.0737  -24.5954  -50.5673 H         1 UNK         0.3000 
    216 H216       -5.6470  -25.3913  -52.5586 H         1 UNK         0.0600 
    217 H217       -8.1188  -25.7645  -52.7515 H         1 UNK         0.0600 
    218 H218       -7.9046  -27.4284  -52.2061 H         1 UNK         0.0600 
    219 H219       -7.1899  -26.8961  -53.7201 H         1 UNK         0.0600 
    220 H220       -4.2689  -26.4048  -50.2400 H         1 UNK         0.3000 
    221 H221       -3.2685  -29.0927  -50.9687 H         1 UNK         0.0600 
    222 H222       -2.3914  -27.0939  -48.8097 H         1 UNK         0.0600 
    223 H223       -3.4485  -28.4811  -48.5581 H         1 UNK         0.0600 
    224 H224       -1.7682  -28.7267  -49.0118 H         1 UNK         0.0600 
    225 H225       -2.5262  -25.6726  -51.2392 H         1 UNK         0.3000 
    226 H226       -0.3084  -26.2001  -53.1710 H         1 UNK         0.0600 
    227 H227        0.4168  -24.8252  -51.1609 H         1 UNK         0.0600 
    228 H228        0.4740  -23.9070  -52.6535 H         1 UNK         0.0600 
    229 H229       -0.8493  -23.6543  -51.5279 H         1 UNK         0.0600 
    230 H230       -0.3665  -24.2428  -54.8074 H         1 UNK         0.3000 
    231 H231       -2.8199  -24.2770  -56.2612 H         1 UNK         0.0600 
    232 H232       -1.6539  -22.5791  -57.6844 H         1 UNK         0.0600 
    233 H233       -0.6046  -23.9458  -57.3421 H         1 UNK         0.0600 
    234 H234       -0.3826  -22.4233  -56.4785 H         1 UNK         0.0600 
    235 H235       -4.5182  -22.8694  -56.3149 H         1 UNK         0.3000 
    236 H236       -4.9862  -21.1395  -54.0582 H         1 UNK         0.0600 
    237 H237       -7.2380  -20.9219  -55.1033 H         1 UNK         0.0600 
    238 H238       -6.6743  -21.7955  -56.5241 H         1 UNK         0.0600 
    239 H239       -6.7447  -22.5998  -54.9551 H         1 UNK         0.0600 
    240 H240       -3.0660  -19.7501  -54.6033 H         1 UNK         0.3000 
    241 H241       -3.1729  -17.9247  -56.7775 H         1 UNK         0.0600 
    242 H242       -5.1223  -17.6972  -53.9432 H         1 UNK         0.3800 
    243 H243       -5.4534  -15.9912  -54.0901 H         1 UNK         0.3800 
    244 H244       -1.0576  -18.6033  -55.7889 H         1 UNK         0.0800 
    245 H245       -1.2030  -16.8767  -55.7902 H         1 UNK         0.0800 
    246 H246       -0.0296  -15.7502  -53.9292 H         1 UNK         0.0800 
    247 H247       -1.7087  -15.4268  -53.5730 H         1 UNK         0.0800 
@<TRIPOS>BOND
     1    1    2 1    
     2    1  127 1    
     3    1  128 1    
     4    1  129 1    
     5    2    3 2    
     6    2    4 am   BACKBONE|DICT|INTERRES
     7    4    5 1    
     8    4  130 1    
     9    5    6 1    
    10    5   65 1    
    11    5  131 1    
    12    6    7 1    
    13    6  132 1    
    14    6  133 1    
    15    7    8 1    
    16    8    9 1    
    17    8  134 1    
    18    8  135 1    
    19    9   10 ar   
    20    9   14 ar   
    21   10   11 ar   
    22   10  136 1    
    23   11   12 ar   
    24   11  126 1    
    25   12   13 ar   
    26   12  137 1    
    27   13   14 ar   
    28   13   15 1    
    29   14  138 1    
    30   15   16 1    
    31   15  139 1    
    32   15  140 1    
    33   16   17 1    
    34   17   18 1    
    35   17  141 1    
    36   17  142 1    
    37   18   19 1    
    38   18   67 1    
    39   18  143 1    
    40   19   20 am   BACKBONE|DICT|INTERRES
    41   19  144 1    
    42   20   21 2    
    43   20   22 1    
    44   22   23 1    
    45   22   24 1    
    46   22  145 1    
    47   23  146 1    
    48   23  147 1    
    49   23  148 1    
    50   24   25 am   BACKBONE|DICT|INTERRES
    51   24  149 1    
    52   25   26 2    
    53   25   27 1    
    54   27   28 1    
    55   27   29 1    
    56   27  150 1    
    57   28  151 1    
    58   28  152 1    
    59   28  153 1    
    60   29   30 am   BACKBONE|DICT|INTERRES
    61   29  154 1    
    62   30   31 2    
    63   30   32 1    
    64   32   33 1    
    65   32   34 1    
    66   32  155 1    
    67   33  156 1    
    68   33  157 1    
    69   33  158 1    
    70   34   35 am   BACKBONE|DICT|INTERRES
    71   34  159 1    
    72   35   36 2    
    73   35   37 1    
    74   37   38 1    
    75   37   39 1    
    76   37  160 1    
    77   38  161 1    
    78   38  162 1    
    79   38  163 1    
    80   39   40 am   BACKBONE|DICT|INTERRES
    81   39  164 1    
    82   40   41 2    
    83   40   42 1    
    84   42   43 1    
    85   42   44 1    
    86   42  165 1    
    87   43  166 1    
    88   43  167 1    
    89   43  168 1    
    90   44   45 am   BACKBONE|DICT|INTERRES
    91   44  169 1    
    92   45   46 2    
    93   45   47 1    
    94   47   48 1    
    95   47   49 1    
    96   47  170 1    
    97   48  171 1    
    98   48  172 1    
    99   48  173 1    
   100   49   50 am   BACKBONE|DICT|INTERRES
   101   49  174 1    
   102   50   51 2    
   103   50   52 1    
   104   52   53 1    
   105   52   54 1    
   106   52  175 1    
   107   53  176 1    
   108   53  177 1    
   109   53  178 1    
   110   54   55 am   BACKBONE|DICT|INTERRES
   111   54  179 1    
   112   55   56 2    
   113   55   57 1    
   114   57   58 1    
   115   57   59 1    
   116   57  180 1    
   117   58  181 1    
   118   58  182 1    
   119   58  183 1    
   120   59   60 am   BACKBONE|DICT|INTERRES
   121   59  184 1    
   122   60   61 2    
   123   60   62 1    
   124   62   63 1    
   125   62   64 1    
   126   62  185 1    
   127   63  186 1    
   128   63  187 1    
   129   63  188 1    
   130   64   65 am   BACKBONE|DICT|INTERRES
   131   64  189 1    
   132   65   66 2    
   133   67   68 2    
   134   67   69 am   BACKBONE|DICT|INTERRES
   135   69   70 1    
   136   69  190 1    
   137   70   71 1    
   138   70   72 1    
   139   70  191 1    
   140   71  192 1    
   141   71  193 1    
   142   71  194 1    
   143   72   73 2    
   144   72   74 am   BACKBONE|DICT|INTERRES
   145   74   75 1    
   146   74  195 1    
   147   75   76 1    
   148   75   77 1    
   149   75  196 1    
   150   76  197 1    
   151   76  198 1    
   152   76  199 1    
   153   77   78 2    
   154   77   79 am   BACKBONE|DICT|INTERRES
   155   79   80 1    
   156   79  200 1    
   157   80   81 1    
   158   80   82 1    
   159   80  201 1    
   160   81  202 1    
   161   81  203 1    
   162   81  204 1    
   163   82   83 2    
   164   82   84 am   BACKBONE|DICT|INTERRES
   165   84   85 1    
   166   84  205 1    
   167   85   86 1    
   168   85   87 1    
   169   85  206 1    
   170   86  207 1    
   171   86  208 1    
   172   86  209 1    
   173   87   88 2    
   174   87   89 am   BACKBONE|DICT|INTERRES
   175   89   90 1    
   176   89  210 1    
   177   90   91 1    
   178   90   92 1    
   179   90  211 1    
   180   91  212 1    
   181   91  213 1    
   182   91  214 1    
   183   92   93 2    
   184   92   94 am   BACKBONE|DICT|INTERRES
   185   94   95 1    
   186   94  215 1    
   187   95   96 1    
   188   95   97 1    
   189   95  216 1    
   190   96  217 1    
   191   96  218 1    
   192   96  219 1    
   193   97   98 2    
   194   97   99 am   BACKBONE|DICT|INTERRES
   195   99  100 1    
   196   99  220 1    
   197  100  101 1    
   198  100  102 1    
   199  100  221 1    
   200  101  222 1    
   201  101  223 1    
   202  101  224 1    
   203  102  103 2    
   204  102  104 am   BACKBONE|DICT|INTERRES
   205  104  105 1    
   206  104  225 1    
   207  105  106 1    
   208  105  107 1    
   209  105  226 1    
   210  106  227 1    
   211  106  228 1    
   212  106  229 1    
   213  107  108 2    
   214  107  109 am   BACKBONE|DICT|INTERRES
   215  109  110 1    
   216  109  230 1    
   217  110  111 1    
   218  110  112 1    
   219  110  231 1    
   220  111  232 1    
   221  111  233 1    
   222  111  234 1    
   223  112  113 2    
   224  112  114 am   BACKBONE|DICT|INTERRES
   225  114  115 1    
   226  114  235 1    
   227  115  116 1    
   228  115  117 1    
   229  115  236 1    
   230  116  237 1    
   231  116  238 1    
   232  116  239 1    
   233  117  118 2    
   234  117  119 am   BACKBONE|DICT|INTERRES
   235  119  120 1    
   236  119  240 1    
   237  120  121 1    
   238  120  124 1    
   239  120  241 1    
   240  121  122 am   BACKBONE|DICT|INTERRES
   241  121  123 2    
   242  122  242 1    
   243  122  243 1    
   244  124  125 1    
   245  124  244 1    
   246  124  245 1    
   247  125  126 1    
   248  126  246 1    
   249  126  247 1    
@<TRIPOS>SUBSTRUCTURE
     1 UNK         1 GROUP             0       ****    0 ROOT    
