@<TRIPOS>MOLECULE
3R540
247   249    1
SMALL
USER_CHARGES


@<TRIPOS>ATOM
      1 CA         -1.3317   -8.7310  -46.9472 C.3       0 UNK        -0.1800 
      2 C          -0.7028   -9.8950  -47.6988 C.2       0 UNK         0.5000 
      3 O           0.5191   -9.9452  -47.8417 O.2       0 UNK        -0.5000 
      4 N          -1.5281  -10.8435  -48.1636 N.am      1 UNK        -0.5000 
      5 CA         -1.1139  -12.0293  -48.9289 C.3       1 UNK         0.1400 
      6 C6         -2.3201  -12.7428  -49.5865 C.3       23 UNK        -0.0398 
      7 S7         -3.5087  -13.4574  -48.3947 S.3       23 UNK        -0.2404 
      8 C8         -3.1295  -15.2232  -48.6027 C.3       23 UNK        -0.0205 
      9 C9         -3.9338  -16.0955  -47.6564 C.ar      23 UNK        -0.0193 
     10 C10        -5.2919  -16.3167  -47.8949 C.ar      23 UNK        -0.1150 
     11 C11        -6.0267  -17.1767  -47.0738 C.ar      23 UNK        -0.0193 
     12 C12        -5.3942  -17.8099  -46.0015 C.ar      23 UNK        -0.1150 
     13 C13        -4.0334  -17.6021  -45.7592 C.ar      23 UNK        -0.0193 
     14 C14        -3.3123  -16.7275  -46.5767 C.ar      23 UNK        -0.1150 
     15 C15        -3.3271  -18.3677  -44.6522 C.3       23 UNK        -0.0205 
     16 S16        -2.1906  -19.6142  -45.3359 S.3       23 UNK        -0.2404 
     17 C17        -3.3012  -20.6488  -46.3519 C.3       23 UNK        -0.0398 
     18 CA         -3.0183  -22.1499  -46.1295 C.3       11 UNK         0.1400 
     19 N          -3.3820  -22.5629  -44.7684 N.am      11 UNK        -0.5000 
     20 C          -3.3024  -23.7866  -44.2318 C.2       10 UNK         0.5000 
     21 O          -3.0867  -24.8078  -44.8857 O.2       10 UNK        -0.5000 
     22 CA         -3.4097  -23.8537  -42.6935 C.3       10 UNK         0.1400 
     23 CB         -3.4629  -25.3003  -42.1710 C.3       10 UNK        -0.1800 
     24 N          -2.2660  -23.1706  -42.0826 N.am      10 UNK        -0.5000 
     25 C          -2.1114  -21.8415  -42.0182 C.2       9 UNK         0.5000 
     26 O          -3.0083  -21.0480  -42.3177 O.2       9 UNK        -0.5000 
     27 CA         -0.7078  -21.3377  -41.6228 C.3       9 UNK         0.1400 
     28 CB          0.3614  -21.8704  -42.5950 C.3       9 UNK        -0.1800 
     29 N          -0.6249  -19.8787  -41.6263 N.am      9 UNK        -0.5000 
     30 C          -1.1232  -19.0685  -40.6836 C.2       8 UNK         0.5000 
     31 O          -1.6629  -19.4744  -39.6524 O.2       8 UNK        -0.5000 
     32 CA         -0.9500  -17.5568  -40.9293 C.3       8 UNK         0.1400 
     33 CB         -1.0352  -16.7267  -39.6355 C.3       8 UNK        -0.1800 
     34 N           0.3393  -17.3051  -41.5738 N.am      8 UNK        -0.5000 
     35 C           0.5165  -16.7231  -42.7642 C.2       7 UNK         0.5000 
     36 O          -0.4000  -16.2386  -43.4302 O.2       7 UNK        -0.5000 
     37 CA          1.9619  -16.6703  -43.3117 C.3       7 UNK         0.1400 
     38 CB          2.9726  -17.5415  -42.5309 C.3       7 UNK        -0.1800 
     39 N           2.0158  -16.9897  -44.7401 N.am      7 UNK        -0.5000 
     40 C           1.5793  -18.1143  -45.3296 C.2       6 UNK         0.5000 
     41 O           1.1323  -19.0838  -44.7159 O.2       6 UNK        -0.5000 
     42 CA          1.6895  -18.1749  -46.8641 C.3       6 UNK         0.1400 
     43 CB          0.4559  -17.5547  -47.5397 C.3       6 UNK        -0.1800 
     44 N           2.8895  -17.5029  -47.3592 N.am      6 UNK        -0.5000 
     45 C           4.1240  -18.0203  -47.3153 C.2       5 UNK         0.5000 
     46 O           4.3712  -19.1350  -46.8526 O.2       5 UNK        -0.5000 
     47 CA          5.2834  -17.1530  -47.8553 C.3       5 UNK         0.1400 
     48 CB          6.2595  -17.9673  -48.7295 C.3       5 UNK        -0.1800 
     49 N           4.8671  -15.9234  -48.5433 N.am      5 UNK        -0.5000 
     50 C           4.1868  -15.7920  -49.6920 C.2       4 UNK         0.5000 
     51 O           3.7940  -16.7469  -50.3631 O.2       4 UNK        -0.5000 
     52 CA          3.8718  -14.3468  -50.1437 C.3       4 UNK         0.1400 
     53 CB          2.7407  -14.2896  -51.1866 C.3       4 UNK        -0.1800 
     54 N           3.5268  -13.4704  -49.0181 N.am      4 UNK        -0.5000 
     55 C           4.4106  -12.8600  -48.2136 C.2       3 UNK         0.5000 
     56 O           5.6288  -12.9769  -48.3472 O.2       3 UNK        -0.5000 
     57 CA          3.8690  -12.0158  -47.0427 C.3       3 UNK         0.1400 
     58 CB          3.9482  -10.5199  -47.3812 C.3       3 UNK        -0.1800 
     59 N           2.4973  -12.3397  -46.6533 N.am      3 UNK        -0.5000 
     60 C           2.0909  -13.4996  -46.1155 C.2       2 UNK         0.5000 
     61 O           2.8380  -14.4501  -45.8789 O.2       2 UNK        -0.5000 
     62 CA          0.5807  -13.6353  -45.8376 C.3       2 UNK         0.1400 
     63 CB          0.2588  -13.1407  -44.4199 C.3       2 UNK        -0.1800 
     64 N          -0.2591  -12.9045  -46.7888 N.am      2 UNK        -0.5000 
     65 C          -0.2291  -13.0113  -48.1261 C.2       1 UNK         0.5000 
     66 O           0.4854  -13.8129  -48.7278 O.2       1 UNK        -0.5000 
     67 C          -3.6301  -22.9958  -47.2610 C.2       11 UNK         0.5000 
     68 O          -2.9686  -23.1905  -48.2768 O.2       11 UNK        -0.5000 
     69 N          -4.8427  -23.5254  -47.0536 N.am      12 UNK        -0.5000 
     70 CA         -5.5257  -24.4272  -47.9836 C.3       12 UNK         0.1400 
     71 CB         -6.9603  -24.6560  -47.4842 C.3       12 UNK        -0.1800 
     72 C          -4.8085  -25.7777  -48.2063 C.2       12 UNK         0.5000 
     73 O          -5.0493  -26.4141  -49.2329 O.2       12 UNK        -0.5000 
     74 N          -3.9599  -26.1932  -47.2558 N.am      13 UNK        -0.5000 
     75 CA         -3.1909  -27.4371  -47.3019 C.3       13 UNK         0.1400 
     76 CB         -3.6407  -28.3336  -46.1370 C.3       13 UNK        -0.1800 
     77 C          -1.6711  -27.2001  -47.2296 C.2       13 UNK         0.5000 
     78 O          -0.9178  -28.0278  -47.7438 O.2       13 UNK        -0.5000 
     79 N          -1.2392  -26.1101  -46.5770 N.am      14 UNK        -0.5000 
     80 CA          0.1619  -25.8183  -46.2588 C.3       14 UNK         0.1400 
     81 CB          0.2344  -24.5931  -45.3338 C.3       14 UNK        -0.1800 
     82 C           1.0798  -25.6230  -47.4799 C.2       14 UNK         0.5000 
     83 O           2.2398  -26.0347  -47.4251 O.2       14 UNK        -0.5000 
     84 N           0.5606  -25.0147  -48.5525 N.am      15 UNK        -0.5000 
     85 CA          1.2786  -24.7923  -49.8038 C.3       15 UNK         0.1400 
     86 CB          2.2475  -23.6025  -49.6660 C.3       15 UNK        -0.1800 
     87 C           0.2677  -24.5329  -50.9231 C.2       15 UNK         0.5000 
     88 O          -0.7694  -23.9166  -50.6741 O.2       15 UNK        -0.5000 
     89 N           0.6047  -24.9602  -52.1464 N.am      16 UNK        -0.5000 
     90 CA         -0.2224  -24.7737  -53.3415 C.3       16 UNK         0.1400 
     91 CB          0.3834  -25.5617  -54.5124 C.3       16 UNK        -0.1800 
     92 C          -0.4056  -23.2931  -53.7204 C.2       16 UNK         0.5000 
     93 O          -1.5002  -22.9017  -54.1214 O.2       16 UNK        -0.5000 
     94 N           0.6542  -22.4904  -53.5466 N.am      17 UNK        -0.5000 
     95 CA          0.6391  -21.0439  -53.7727 C.3       17 UNK         0.1400 
     96 CB          2.0773  -20.5060  -53.7318 C.3       17 UNK        -0.1800 
     97 C          -0.2482  -20.3000  -52.7587 C.2       17 UNK         0.5000 
     98 O          -0.9712  -19.3803  -53.1409 O.2       17 UNK        -0.5000 
     99 N          -0.2045  -20.7385  -51.4928 N.am      18 UNK        -0.5000 
    100 CA        -1.0393  -20.2182  -50.4110 C.3       18 UNK         0.1400 
    101 CB        -0.5049  -20.7256  -49.0633 C.3       18 UNK        -0.1800 
    102 C         -2.5192  -20.5885  -50.6116 C.2       18 UNK         0.5000 
    103 O         -3.3888  -19.7376  -50.4261 O.2       18 UNK        -0.5000 
    104 N         -2.7737  -21.8300  -51.0469 N.am      19 UNK        -0.5000 
    105 CA        -4.1011  -22.3343  -51.3899 C.3       19 UNK         0.1400 
    106 CB        -4.0297  -23.8470  -51.6441 C.3       19 UNK        -0.1800 
    107 C         -4.7103  -21.6012  -52.5970 C.2       19 UNK         0.5000 
    108 O         -5.8870  -21.2436  -52.5533 O.2       19 UNK        -0.5000 
    109 N         -3.8942  -21.3509  -53.6310 N.am      20 UNK        -0.5000 
    110 CA        -4.2682  -20.5848  -54.8210 C.3       20 UNK         0.1400 
    111 CB        -3.1564  -20.6925  -55.8755 C.3       20 UNK        -0.1800 
    112 C         -4.5839  -19.1093  -54.5144 C.2       20 UNK         0.5000 
    113 O         -5.5052  -18.5544  -55.1144 O.2       20 UNK        -0.5000 
    114 N         -3.8334  -18.5073  -53.5804 N.am      21 UNK        -0.5000 
    115 CA        -4.0716  -17.1519  -53.0837 C.3       21 UNK         0.1400 
    116 CB        -2.8450  -16.6677  -52.2953 C.3       21 UNK        -0.1800 
    117 C         -5.3527  -17.0564  -52.2324 C.2       21 UNK         0.5000 
    118 O         -6.0924  -16.0801  -52.3613 O.2       21 UNK        -0.5000 
    119 N         -5.5946  -18.0704  -51.3917 N.am      22 UNK        -0.5000 
    120 CA        -6.8067  -18.2093  -50.5731 C.3       22 UNK         0.1400 
    121 C         -8.0842  -18.5258  -51.4009 C.2       22 UNK         0.5000 
    122 N         -8.0279  -19.4418  -52.3585 N.am      22 UNK        -0.7600 
    123 O         -9.1318  -17.9222  -51.1857 O.2       22 UNK        -0.5000 
    124 C124       -6.5799  -19.2275  -49.4262 C.3       23 UNK        -0.0398 
    125 S125       -7.7785  -19.1187  -48.0491 S.3       23 UNK        -0.2404 
    126 C126       -7.4946  -17.4488  -47.3657 C.3       23 UNK        -0.0205 
    127 H127       -0.9384   -8.6842  -45.9318 H         1 UNK         0.0600 
    128 H128       -2.4163   -8.8246  -46.8887 H         1 UNK         0.0600 
    129 H129       -1.0976   -7.7917  -47.4483 H         1 UNK         0.0600 
    130 H130       -2.5219  -10.7611  -47.9990 H         1 UNK         0.3000 
    131 H131       -0.4832  -11.6641  -49.7425 H         1 UNK         0.0600 
    132 H132       -1.9696  -13.5174  -50.2713 H         1 UNK         0.0800 
    133 H133       -2.8629  -12.0339  -50.2131 H         1 UNK         0.0800 
    134 H134       -3.3520  -15.5191  -49.6276 H         1 UNK         0.0800 
    135 H135       -2.0610  -15.3902  -48.4570 H         1 UNK         0.0800 
    136 H136       -5.7673  -15.8282  -48.7334 H         1 UNK         0.1150 
    137 H137       -5.9563  -18.4919  -45.3790 H         1 UNK         0.1150 
    138 H138       -2.2585  -16.5732  -46.3918 H         1 UNK         0.1150 
    139 H139       -2.7589  -17.6713  -44.0343 H         1 UNK         0.0800 
    140 H140       -4.0433  -18.8572  -43.9904 H         1 UNK         0.0800 
    141 H141       -3.1616  -20.3602  -47.3950 H         1 UNK         0.0800 
    142 H142       -4.3435  -20.4299  -46.1176 H         1 UNK         0.0800 
    143 H143       -1.9402  -22.2947  -46.2112 H         1 UNK         0.0600 
    144 H144       -3.5023  -21.7975  -44.1118 H         1 UNK         0.3000 
    145 H145       -4.3339  -23.3525  -42.3982 H         1 UNK         0.0600 
    146 H146       -3.5803  -25.3235  -41.0875 H         1 UNK         0.0600 
    147 H147       -4.3083  -25.8394  -42.6006 H         1 UNK         0.0600 
    148 H148       -2.5581  -25.8554  -42.4223 H         1 UNK         0.0600 
    149 H149       -1.4851  -23.7600  -41.8341 H         1 UNK         0.3000 
    150 H150       -0.4852  -21.7018  -40.6178 H         1 UNK         0.0600 
    151 H151        0.1349  -21.5977  -43.6273 H         1 UNK         0.0600 
    152 H152        0.4405  -22.9568  -42.5513 H         1 UNK         0.0600 
    153 H153        1.3470  -21.4700  -42.3561 H         1 UNK         0.0600 
    154 H154       -0.2354  -19.4603  -42.4607 H         1 UNK         0.3000 
    155 H155       -1.7725  -17.2554  -41.5810 H         1 UNK         0.0600 
    156 H156       -0.2672  -17.0196  -38.9187 H         1 UNK         0.0600 
    157 H157       -2.0047  -16.8508  -39.1515 H         1 UNK         0.0600 
    158 H158       -0.9122  -15.6636  -39.8429 H         1 UNK         0.0600 
    159 H159        1.1453  -17.6978  -41.1076 H         1 UNK         0.3000 
    160 H160        2.2838  -15.6324  -43.2207 H         1 UNK         0.0600 
    161 H161        2.6855  -18.5938  -42.5201 H         1 UNK         0.0600 
    162 H162        3.0703  -17.2086  -41.4970 H         1 UNK         0.0600 
    163 H163        3.9650  -17.4776  -42.9775 H         1 UNK         0.0600 
    164 H164        2.3708  -16.2422  -45.3286 H         1 UNK         0.3000 
    165 H165        1.7345  -19.2281  -47.1491 H         1 UNK         0.0600 
    166 H166       -0.4608  -18.0271  -47.1883 H         1 UNK         0.0600 
    167 H167        0.3744  -16.4872  -47.3390 H         1 UNK         0.0600 
    168 H168        0.4933  -17.6859  -48.6213 H         1 UNK         0.0600 
    169 H169        2.7752  -16.5766  -47.7429 H         1 UNK         0.3000 
    170 H170        5.8349  -16.8220  -46.9743 H         1 UNK         0.0600 
    171 H171        6.6979  -18.7910  -48.1650 H         1 UNK         0.0600 
    172 H172        5.7628  -18.3984  -49.5990 H         1 UNK         0.0600 
    173 H173        7.0823  -17.3472  -49.0851 H         1 UNK         0.0600 
    174 H174        5.1475  -15.0624  -48.0896 H         1 UNK         0.3000 
    175 H175        4.7749  -13.9627  -50.6223 H         1 UNK         0.0600 
    176 H176        2.5138  -13.2617  -51.4698 H         1 UNK         0.0600 
    177 H177        3.0210  -14.8212  -52.0968 H         1 UNK         0.0600 
    178 H178        1.8238  -14.7456  -50.8123 H         1 UNK         0.0600 
    179 H179        2.5372  -13.3830  -48.8146 H         1 UNK         0.3000 
    180 H180        4.5121  -12.2061  -46.1810 H         1 UNK         0.0600 
    181 H181        3.3165  -10.2680  -48.2341 H         1 UNK         0.0600 
    182 H182        4.9691  -10.2275  -47.6307 H         1 UNK         0.0600 
    183 H183        3.6320   -9.9060  -46.5376 H         1 UNK         0.0600 
    184 H184        1.8018  -11.6293  -46.8452 H         1 UNK         0.3000 
    185 H185        0.3191  -14.6920  -45.9000 H         1 UNK         0.0600 
    186 H186       -0.7803  -13.3440  -44.1596 H         1 UNK         0.0600 
    187 H187        0.8797  -13.6418  -43.6770 H         1 UNK         0.0600 
    188 H188        0.4290  -12.0681  -44.3180 H         1 UNK         0.0600 
    189 H189       -0.8882  -12.2205  -46.3948 H         1 UNK         0.3000 
    190 H190       -5.3061  -23.3394  -46.1764 H         1 UNK         0.3000 
    191 H191       -5.5795  -23.9270  -48.9523 H         1 UNK         0.0600 
    192 H192       -7.5071  -23.7158  -47.4088 H         1 UNK         0.0600 
    193 H193       -7.5153  -25.2986  -48.1691 H         1 UNK         0.0600 
    194 H194       -6.9724  -25.1334  -46.5036 H         1 UNK         0.0600 
    195 H195       -3.8159  -25.6068  -46.4389 H         1 UNK         0.3000 
    196 H196       -3.3822  -27.9726  -48.2339 H         1 UNK         0.0600 
    197 H197       -3.0918  -29.2762  -46.1319 H         1 UNK         0.0600 
    198 H198       -4.7009  -28.5752  -46.2140 H         1 UNK         0.0600 
    199 H199       -3.4765  -27.8505  -45.1726 H         1 UNK         0.0600 
    200 H200       -1.9276  -25.5212  -46.1182 H         1 UNK         0.3000 
    201 H201        0.5473  -26.6757  -45.7031 H         1 UNK         0.0600 
    202 H202        1.2652  -24.3790  -45.0482 H         1 UNK         0.0600 
    203 H203       -0.1604  -23.7008  -45.8182 H         1 UNK         0.0600 
    204 H204       -0.3264  -24.7570  -44.4139 H         1 UNK         0.0600 
    205 H205       -0.4090  -24.7200  -48.5543 H         1 UNK         0.3000 
    206 H206        1.8431  -25.6934  -50.0535 H         1 UNK         0.0600 
    207 H207        3.0211  -23.8032  -48.9249 H         1 UNK         0.0600 
    208 H208        2.7538  -23.3949  -50.6094 H         1 UNK         0.0600 
    209 H209        1.7273  -22.6939  -49.3637 H         1 UNK         0.0600 
    210 H210        1.4777  -25.4517  -52.2746 H         1 UNK         0.3000 
    211 H211       -1.2120  -25.1848  -53.1311 H         1 UNK         0.0600 
    212 H212        1.3898  -25.2177  -54.7538 H         1 UNK         0.0600 
    213 H213       -0.2251  -25.4534  -55.4113 H         1 UNK         0.0600 
    214 H214        0.4375  -26.6265  -54.2851 H         1 UNK         0.0600 
    215 H215        1.5184  -22.8954  -53.2191 H         1 UNK         0.3000 
    216 H216        0.2333  -20.8589  -54.7696 H         1 UNK         0.0600 
    217 H217        2.0960  -19.4302  -53.9121 H         1 UNK         0.0600 
    218 H218        2.6950  -20.9736  -54.4987 H         1 UNK         0.0600 
    219 H219        2.5491  -20.6846  -52.7647 H         1 UNK         0.0600 
    220 H220        0.3784  -21.5319  -51.2758 H         1 UNK         0.3000 
    221 H221       -0.9615  -19.1288  -50.4175 H         1 UNK         0.0600 
    222 H222       -0.6309  -21.8031  -48.9534 H         1 UNK         0.0600 
    223 H223        0.5543  -20.4973  -48.9484 H         1 UNK         0.0600 
    224 H224       -1.0254  -20.2479  -48.2352 H         1 UNK         0.0600 
    225 H225       -2.0109  -22.5002  -51.0854 H         1 UNK         0.3000 
    226 H226       -4.7509  -22.1630  -50.5295 H         1 UNK         0.0600 
    227 H227       -5.0225  -24.2599  -51.8260 H         1 UNK         0.0600 
    228 H228       -3.4102  -24.0828  -52.5091 H         1 UNK         0.0600 
    229 H229       -3.6113  -24.3707  -50.7844 H         1 UNK         0.0600 
    230 H230       -2.9543  -21.7368  -53.6180 H         1 UNK         0.3000 
    231 H231       -5.1722  -21.0359  -55.2352 H         1 UNK         0.0600 
    232 H232       -2.2107  -20.2965  -55.5045 H         1 UNK         0.0600 
    233 H233       -3.4160  -20.1355  -56.7765 H         1 UNK         0.0600 
    234 H234       -2.9927  -21.7290  -56.1707 H         1 UNK         0.0600 
    235 H235       -3.0499  -19.0109  -53.1800 H         1 UNK         0.3000 
    236 H236       -4.1952  -16.4938  -53.9464 H         1 UNK         0.0600 
    237 H237       -1.9426  -16.7102  -52.9054 H         1 UNK         0.0600 
    238 H238       -2.9720  -15.6319  -51.9794 H         1 UNK         0.0600 
    239 H239       -2.6726  -17.2700  -51.4028 H         1 UNK         0.0600 
    240 H240       -4.9008  -18.8058  -51.3012 H         1 UNK         0.3000 
    241 H241       -6.9748  -17.2322  -50.1221 H         1 UNK         0.0600 
    242 H242       -8.8511  -19.6390  -52.9040 H         1 UNK         0.3800 
    243 H243       -7.1861  -19.9976  -52.5025 H         1 UNK         0.3800 
    244 H244       -5.5847  -19.0948  -48.9999 H         1 UNK         0.0800 
    245 H245       -6.5903  -20.2469  -49.8157 H         1 UNK         0.0800 
    246 H246       -8.0672  -17.3471  -46.4428 H         1 UNK         0.0800 
    247 H247       -7.8990  -16.7022  -48.0504 H         1 UNK         0.0800 
@<TRIPOS>BOND
     1    1    2 1    
     2    1  127 1    
     3    1  128 1    
     4    1  129 1    
     5    2    3 2    
     6    2    4 am   BACKBONE|DICT|INTERRES
     7    4    5 1    
     8    4  130 1    
     9    5    6 1    
    10    5   65 1    
    11    5  131 1    
    12    6    7 1    
    13    6  132 1    
    14    6  133 1    
    15    7    8 1    
    16    8    9 1    
    17    8  134 1    
    18    8  135 1    
    19    9   10 ar   
    20    9   14 ar   
    21   10   11 ar   
    22   10  136 1    
    23   11   12 ar   
    24   11  126 1    
    25   12   13 ar   
    26   12  137 1    
    27   13   14 ar   
    28   13   15 1    
    29   14  138 1    
    30   15   16 1    
    31   15  139 1    
    32   15  140 1    
    33   16   17 1    
    34   17   18 1    
    35   17  141 1    
    36   17  142 1    
    37   18   19 1    
    38   18   67 1    
    39   18  143 1    
    40   19   20 am   BACKBONE|DICT|INTERRES
    41   19  144 1    
    42   20   21 2    
    43   20   22 1    
    44   22   23 1    
    45   22   24 1    
    46   22  145 1    
    47   23  146 1    
    48   23  147 1    
    49   23  148 1    
    50   24   25 am   BACKBONE|DICT|INTERRES
    51   24  149 1    
    52   25   26 2    
    53   25   27 1    
    54   27   28 1    
    55   27   29 1    
    56   27  150 1    
    57   28  151 1    
    58   28  152 1    
    59   28  153 1    
    60   29   30 am   BACKBONE|DICT|INTERRES
    61   29  154 1    
    62   30   31 2    
    63   30   32 1    
    64   32   33 1    
    65   32   34 1    
    66   32  155 1    
    67   33  156 1    
    68   33  157 1    
    69   33  158 1    
    70   34   35 am   BACKBONE|DICT|INTERRES
    71   34  159 1    
    72   35   36 2    
    73   35   37 1    
    74   37   38 1    
    75   37   39 1    
    76   37  160 1    
    77   38  161 1    
    78   38  162 1    
    79   38  163 1    
    80   39   40 am   BACKBONE|DICT|INTERRES
    81   39  164 1    
    82   40   41 2    
    83   40   42 1    
    84   42   43 1    
    85   42   44 1    
    86   42  165 1    
    87   43  166 1    
    88   43  167 1    
    89   43  168 1    
    90   44   45 am   BACKBONE|DICT|INTERRES
    91   44  169 1    
    92   45   46 2    
    93   45   47 1    
    94   47   48 1    
    95   47   49 1    
    96   47  170 1    
    97   48  171 1    
    98   48  172 1    
    99   48  173 1    
   100   49   50 am   BACKBONE|DICT|INTERRES
   101   49  174 1    
   102   50   51 2    
   103   50   52 1    
   104   52   53 1    
   105   52   54 1    
   106   52  175 1    
   107   53  176 1    
   108   53  177 1    
   109   53  178 1    
   110   54   55 am   BACKBONE|DICT|INTERRES
   111   54  179 1    
   112   55   56 2    
   113   55   57 1    
   114   57   58 1    
   115   57   59 1    
   116   57  180 1    
   117   58  181 1    
   118   58  182 1    
   119   58  183 1    
   120   59   60 am   BACKBONE|DICT|INTERRES
   121   59  184 1    
   122   60   61 2    
   123   60   62 1    
   124   62   63 1    
   125   62   64 1    
   126   62  185 1    
   127   63  186 1    
   128   63  187 1    
   129   63  188 1    
   130   64   65 am   BACKBONE|DICT|INTERRES
   131   64  189 1    
   132   65   66 2    
   133   67   68 2    
   134   67   69 am   BACKBONE|DICT|INTERRES
   135   69   70 1    
   136   69  190 1    
   137   70   71 1    
   138   70   72 1    
   139   70  191 1    
   140   71  192 1    
   141   71  193 1    
   142   71  194 1    
   143   72   73 2    
   144   72   74 am   BACKBONE|DICT|INTERRES
   145   74   75 1    
   146   74  195 1    
   147   75   76 1    
   148   75   77 1    
   149   75  196 1    
   150   76  197 1    
   151   76  198 1    
   152   76  199 1    
   153   77   78 2    
   154   77   79 am   BACKBONE|DICT|INTERRES
   155   79   80 1    
   156   79  200 1    
   157   80   81 1    
   158   80   82 1    
   159   80  201 1    
   160   81  202 1    
   161   81  203 1    
   162   81  204 1    
   163   82   83 2    
   164   82   84 am   BACKBONE|DICT|INTERRES
   165   84   85 1    
   166   84  205 1    
   167   85   86 1    
   168   85   87 1    
   169   85  206 1    
   170   86  207 1    
   171   86  208 1    
   172   86  209 1    
   173   87   88 2    
   174   87   89 am   BACKBONE|DICT|INTERRES
   175   89   90 1    
   176   89  210 1    
   177   90   91 1    
   178   90   92 1    
   179   90  211 1    
   180   91  212 1    
   181   91  213 1    
   182   91  214 1    
   183   92   93 2    
   184   92   94 am   BACKBONE|DICT|INTERRES
   185   94   95 1    
   186   94  215 1    
   187   95   96 1    
   188   95   97 1    
   189   95  216 1    
   190   96  217 1    
   191   96  218 1    
   192   96  219 1    
   193   97   98 2    
   194   97   99 am   BACKBONE|DICT|INTERRES
   195   99  100 1    
   196   99  220 1    
   197  100  101 1    
   198  100  102 1    
   199  100  221 1    
   200  101  222 1    
   201  101  223 1    
   202  101  224 1    
   203  102  103 2    
   204  102  104 am   BACKBONE|DICT|INTERRES
   205  104  105 1    
   206  104  225 1    
   207  105  106 1    
   208  105  107 1    
   209  105  226 1    
   210  106  227 1    
   211  106  228 1    
   212  106  229 1    
   213  107  108 2    
   214  107  109 am   BACKBONE|DICT|INTERRES
   215  109  110 1    
   216  109  230 1    
   217  110  111 1    
   218  110  112 1    
   219  110  231 1    
   220  111  232 1    
   221  111  233 1    
   222  111  234 1    
   223  112  113 2    
   224  112  114 am   BACKBONE|DICT|INTERRES
   225  114  115 1    
   226  114  235 1    
   227  115  116 1    
   228  115  117 1    
   229  115  236 1    
   230  116  237 1    
   231  116  238 1    
   232  116  239 1    
   233  117  118 2    
   234  117  119 am   BACKBONE|DICT|INTERRES
   235  119  120 1    
   236  119  240 1    
   237  120  121 1    
   238  120  124 1    
   239  120  241 1    
   240  121  122 am   BACKBONE|DICT|INTERRES
   241  121  123 2    
   242  122  242 1    
   243  122  243 1    
   244  124  125 1    
   245  124  244 1    
   246  124  245 1    
   247  125  126 1    
   248  126  246 1    
   249  126  247 1    
@<TRIPOS>SUBSTRUCTURE
     1 UNK         1 GROUP             0       ****    0 ROOT    
