@<TRIPOS>MOLECULE
3R540
247   249    1
SMALL
USER_CHARGES


@<TRIPOS>ATOM
      1 CA          4.9706   -9.7581  -48.9757 C.3       0 UNK        -0.1800 
      2 C           4.5737  -11.0395  -48.2578 C.2       0 UNK         0.5000 
      3 O           4.9768  -11.2541  -47.1149 O.2       0 UNK        -0.5000 
      4 N           3.7661  -11.8861  -48.9105 N.am      1 UNK        -0.5000 
      5 CA          3.2967  -13.1813  -48.3951 C.3       1 UNK         0.1400 
      6 C6          2.6654  -14.0519  -49.5068 C.3       23 UNK        -0.0398 
      7 S7          1.2112  -13.2987  -50.3240 S.3       23 UNK        -0.2404 
      8 C8         -0.1037  -14.4978  -49.9337 C.3       23 UNK        -0.0205 
      9 C9          0.0981  -15.8168  -50.6663 C.ar      23 UNK        -0.0193 
     10 C10        -0.2528  -15.9380  -52.0158 C.ar      23 UNK        -0.1150 
     11 C11        -0.0685  -17.1473  -52.6964 C.ar      23 UNK        -0.0193 
     12 C12         0.4923  -18.2324  -52.0141 C.ar      23 UNK        -0.1150 
     13 C13         0.8240  -18.1308  -50.6609 C.ar      23 UNK        -0.0193 
     14 C14         0.6244  -16.9218  -49.9916 C.ar      23 UNK        -0.1150 
     15 C15         1.3768  -19.3331  -49.9173 C.3       23 UNK        -0.0205 
     16 S16         0.0562  -20.1736  -48.9983 S.3       23 UNK        -0.2404 
     17 C17         0.9081  -21.7170  -48.5308 C.3       23 UNK        -0.0398 
     18 CA          0.2280  -22.4947  -47.3809 C.3       11 UNK         0.1400 
     19 N           0.1485  -21.7050  -46.1493 N.am      11 UNK        -0.5000 
     20 C           0.9035  -21.9170  -45.0624 C.2       10 UNK         0.5000 
     21 O           1.7208  -22.8334  -44.9655 O.2       10 UNK        -0.5000 
     22 CA          0.7393  -20.9443  -43.8780 C.3       10 UNK         0.1400 
     23 CB          1.8250  -19.8594  -43.9397 C.3       10 UNK        -0.1800 
     24 N          -0.5709  -20.2996  -43.8148 N.am      10 UNK        -0.5000 
     25 C          -1.7360  -20.9323  -43.6154 C.2       9 UNK         0.5000 
     26 O          -1.8376  -22.1481  -43.4478 O.2       9 UNK        -0.5000 
     27 CA         -3.0140  -20.0711  -43.6566 C.3       9 UNK         0.1400 
     28 CB         -3.4288  -19.6707  -42.2369 C.3       9 UNK        -0.1800 
     29 N          -2.9046  -18.8636  -44.4810 N.am      9 UNK        -0.5000 
     30 C          -2.5932  -18.8481  -45.7857 C.2       8 UNK         0.5000 
     31 O          -2.3108  -19.8593  -46.4258 O.2       8 UNK        -0.5000 
     32 CA         -2.5555  -17.4784  -46.4862 C.3       8 UNK         0.1400 
     33 CB         -3.9464  -17.1420  -47.0460 C.3       8 UNK        -0.1800 
     34 N          -2.1221  -16.3720  -45.6313 N.am      8 UNK        -0.5000 
     35 C          -0.9819  -16.3022  -44.9305 C.2       7 UNK         0.5000 
     36 O          -0.1370  -17.1975  -44.9020 O.2       7 UNK        -0.5000 
     37 CA         -0.7547  -15.0228  -44.1003 C.3       7 UNK         0.1400 
     38 CB         -1.7360  -13.8728  -44.4245 C.3       7 UNK        -0.1800 
     39 N          -0.7629  -15.2992  -42.6635 N.am      7 UNK        -0.5000 
     40 C          -1.7381  -15.8705  -41.9381 C.2       6 UNK         0.5000 
     41 O          -2.8040  -16.2718  -42.4109 O.2       6 UNK        -0.5000 
     42 CA         -1.4578  -15.9898  -40.4215 C.3       6 UNK         0.1400 
     43 CB         -2.4290  -16.9168  -39.6610 C.3       6 UNK        -0.1800 
     44 N          -0.0622  -16.3296  -40.1252 N.am      6 UNK        -0.5000 
     45 C           0.6085  -17.4152  -40.5377 C.2       5 UNK         0.5000 
     46 O           0.0984  -18.3571  -41.1453 O.2       5 UNK        -0.5000 
     47 CA          2.1255  -17.4117  -40.2574 C.3       5 UNK         0.1400 
     48 CB          2.6218  -18.8045  -39.8327 C.3       5 UNK        -0.1800 
     49 N           2.9171  -16.9597  -41.4071 N.am      5 UNK        -0.5000 
     50 C           2.7945  -15.7899  -42.0509 C.2       4 UNK         0.5000 
     51 O           1.9577  -14.9304  -41.7615 O.2       4 UNK        -0.5000 
     52 CA          3.7743  -15.5504  -43.2190 C.3       4 UNK         0.1400 
     53 CB          3.3896  -16.4005  -44.4391 C.3       4 UNK        -0.1800 
     54 N           3.8222  -14.1428  -43.6214 N.am      4 UNK        -0.5000 
     55 C           4.3461  -13.1555  -42.8784 C.2       3 UNK         0.5000 
     56 O           4.9413  -13.3524  -41.8172 O.2       3 UNK        -0.5000 
     57 CA          4.2047  -11.7070  -43.3937 C.3       3 UNK         0.1400 
     58 CB          5.5714  -11.1550  -43.8286 C.3       3 UNK        -0.1800 
     59 N           3.2615  -11.5645  -44.5047 N.am      3 UNK        -0.5000 
     60 C           1.9249  -11.5971  -44.3856 C.2       2 UNK         0.5000 
     61 O           1.3415  -11.6911  -43.3062 O.2       2 UNK        -0.5000 
     62 CA          1.0915  -11.5274  -45.6838 C.3       2 UNK         0.1400 
     63 CB          0.4840  -10.1282  -45.8627 C.3       2 UNK        -0.1800 
     64 N           1.8423  -11.8742  -46.8909 N.am      2 UNK        -0.5000 
     65 C           2.3844  -13.0723  -47.1508 C.2       1 UNK         0.5000 
     66 O           2.2301  -14.0525  -46.4226 O.2       1 UNK        -0.5000 
     67 C          -1.1337  -23.1009  -47.7780 C.2       11 UNK         0.5000 
     68 O          -1.1495  -24.1475  -48.4314 O.2       11 UNK        -0.5000 
     69 N          -2.2510  -22.5025  -47.3379 N.am      12 UNK        -0.5000 
     70 CA         -3.6050  -23.0165  -47.5565 C.3       12 UNK         0.1400 
     71 CB         -4.6462  -21.9761  -47.1173 C.3       12 UNK        -0.1800 
     72 C          -3.8482  -24.3576  -46.8465 C.2       12 UNK         0.5000 
     73 O          -4.4932  -25.2379  -47.4145 O.2       12 UNK        -0.5000 
     74 N          -3.2825  -24.5097  -45.6419 N.am      13 UNK        -0.5000 
     75 CA         -3.3152  -25.7546  -44.8743 C.3       13 UNK         0.1400 
     76 CB         -2.9256  -25.4486  -43.4202 C.3       13 UNK        -0.1800 
     77 C          -2.3966  -26.8475  -45.4573 C.2       13 UNK         0.5000 
     78 O          -2.6336  -28.0297  -45.2063 O.2       13 UNK        -0.5000 
     79 N          -1.3596  -26.4377  -46.2005 N.am      14 UNK        -0.5000 
     80 CA         -0.3398  -27.3225  -46.7560 C.3       14 UNK         0.1400 
     81 CB          1.0080  -26.5834  -46.7921 C.3       14 UNK        -0.1800 
     82 C          -0.7090  -27.8373  -48.1562 C.2       14 UNK         0.5000 
     83 O          -0.5974  -29.0397  -48.3998 O.2       14 UNK        -0.5000 
     84 N          -1.1030  -26.9259  -49.0569 N.am      15 UNK        -0.5000 
     85 CA         -1.2239  -27.2024  -50.4921 C.3       15 UNK         0.1400 
     86 CB          0.0956  -26.7987  -51.1777 C.3       15 UNK        -0.1800 
     87 C          -2.4303  -26.5171  -51.1593 C.2       15 UNK         0.5000 
     88 O          -2.5385  -26.5736  -52.3849 O.2       15 UNK        -0.5000 
     89 N          -3.3056  -25.8740  -50.3705 N.am      16 UNK        -0.5000 
     90 CA         -4.4834  -25.1090  -50.8135 C.3       16 UNK         0.1400 
     91 CB         -5.5224  -26.0246  -51.4912 C.3       16 UNK        -0.1800 
     92 C          -4.1408  -23.8630  -51.6626 C.2       16 UNK         0.5000 
     93 O          -4.9957  -23.3651  -52.4000 O.2       16 UNK        -0.5000 
     94 N          -2.9062  -23.3639  -51.5237 N.am      17 UNK        -0.5000 
     95 CA         -2.4494  -22.1020  -52.0974 C.3       17 UNK         0.1400 
     96 CB         -0.9166  -22.0997  -52.1313 C.3       17 UNK        -0.1800 
     97 C          -3.0017  -20.9142  -51.2928 C.2       17 UNK         0.5000 
     98 O          -3.2470  -21.0497  -50.0947 O.2       17 UNK        -0.5000 
     99 N          -3.2232  -19.7894  -51.9821 N.am      18 UNK        -0.5000 
    100 CA        -3.9195  -18.5889  -51.5102 C.3       18 UNK         0.1400 
    101 CB        -3.1180  -17.8913  -50.3950 C.3       18 UNK        -0.1800 
    102 C         -5.3837  -18.8818  -51.1139 C.2       18 UNK         0.5000 
    103 O         -5.9238  -18.2414  -50.2098 O.2       18 UNK        -0.5000 
    104 N         -5.9941  -19.8587  -51.7961 N.am      19 UNK        -0.5000 
    105 CA        -7.3215  -20.3840  -51.5098 C.3       19 UNK         0.1400 
    106 CB        -7.2592  -21.3824  -50.3336 C.3       19 UNK        -0.1800 
    107 C         -7.8983  -20.9812  -52.7990 C.2       19 UNK         0.5000 
    108 O         -8.5735  -20.2674  -53.5418 O.2       19 UNK        -0.5000 
    109 N         -7.6168  -22.2652  -53.0554 N.am      20 UNK        -0.5000 
    110 CA        -8.0282  -22.9689  -54.2707 C.3       20 UNK         0.1400 
    111 CB        -8.0398  -24.4831  -54.0120 C.3       20 UNK        -0.1800 
    112 C         -7.1021  -22.6275  -55.4486 C.2       20 UNK         0.5000 
    113 O         -7.5851  -22.4058  -56.5599 O.2       20 UNK        -0.5000 
    114 N         -5.7948  -22.5681  -55.1708 N.am      21 UNK        -0.5000 
    115 CA        -4.7641  -22.0996  -56.0906 C.3       21 UNK         0.1400 
    116 CB        -3.5724  -23.0682  -56.0359 C.3       21 UNK        -0.1800 
    117 C         -4.3348  -20.6789  -55.6931 C.2       21 UNK         0.5000 
    118 O         -4.4310  -20.3222  -54.5171 O.2       21 UNK        -0.5000 
    119 N         -3.8769  -19.9085  -56.6868 N.am      22 UNK        -0.5000 
    120 CA        -3.3091  -18.5427  -56.6462 C.3       22 UNK         0.1400 
    121 C         -4.1084  -17.4061  -55.9319 C.2       22 UNK         0.5000 
    122 N         -5.2052  -17.6813  -55.2419 N.am      22 UNK        -0.7600 
    123 O         -3.7456  -16.2386  -56.0482 O.2       22 UNK        -0.5000 
    124 C124       -1.7913  -18.5308  -56.3090 C.3       23 UNK        -0.0398 
    125 S125       -1.3779  -18.7946  -54.5505 S.3       23 UNK        -0.2404 
    126 C126       -0.4575  -17.2643  -54.1676 C.3       23 UNK        -0.0205 
    127 H127        4.5291   -9.6975  -49.9707 H         1 UNK         0.0600 
    128 H128        6.0543   -9.7080  -49.0802 H         1 UNK         0.0600 
    129 H129        4.6417   -8.8907  -48.4034 H         1 UNK         0.0600 
    130 H130        3.4448  -11.6501  -49.8393 H         1 UNK         0.3000 
    131 H131        4.1870  -13.7132  -48.0523 H         1 UNK         0.0600 
    132 H132        3.4104  -14.2474  -50.2792 H         1 UNK         0.0800 
    133 H133        2.4108  -15.0315  -49.1036 H         1 UNK         0.0800 
    134 H134       -1.0667  -14.0712  -50.2179 H         1 UNK         0.0800 
    135 H135       -0.1472  -14.6546  -48.8544 H         1 UNK         0.0800 
    136 H136       -0.6689  -15.0858  -52.5345 H         1 UNK         0.1150 
    137 H137        0.6523  -19.1657  -52.5334 H         1 UNK         0.1150 
    138 H138        0.8734  -16.8476  -48.9422 H         1 UNK         0.1150 
    139 H139        1.8361  -20.0317  -50.6184 H         1 UNK         0.0800 
    140 H140        2.1611  -19.0199  -49.2266 H         1 UNK         0.0800 
    141 H141        1.9266  -21.4663  -48.2311 H         1 UNK         0.0800 
    142 H142        1.0112  -22.3517  -49.4115 H         1 UNK         0.0800 
    143 H143        0.8598  -23.3653  -47.1987 H         1 UNK         0.0600 
    144 H144       -0.5006  -20.9262  -46.1558 H         1 UNK         0.3000 
    145 H145        0.8733  -21.5149  -42.9570 H         1 UNK         0.0600 
    146 H146        1.7554  -19.1792  -43.0920 H         1 UNK         0.0600 
    147 H147        1.7432  -19.2649  -44.8507 H         1 UNK         0.0600 
    148 H148        2.8224  -20.3002  -43.9222 H         1 UNK         0.0600 
    149 H149       -0.5842  -19.2967  -43.9557 H         1 UNK         0.3000 
    150 H150       -3.8087  -20.6859  -44.0812 H         1 UNK         0.0600 
    151 H151       -2.6578  -19.0589  -41.7722 H         1 UNK         0.0600 
    152 H152       -3.5787  -20.5486  -41.6071 H         1 UNK         0.0600 
    153 H153       -4.3588  -19.1020  -42.2359 H         1 UNK         0.0600 
    154 H154       -3.0652  -17.9804  -44.0124 H         1 UNK         0.3000 
    155 H155       -1.8511  -17.5551  -47.3173 H         1 UNK         0.0600 
    156 H156       -4.3466  -17.9657  -47.6387 H         1 UNK         0.0600 
    157 H157       -3.9113  -16.2638  -47.6907 H         1 UNK         0.0600 
    158 H158       -4.6630  -16.9445  -46.2479 H         1 UNK         0.0600 
    159 H159       -2.7633  -15.5962  -45.5562 H         1 UNK         0.3000 
    160 H160        0.2517  -14.6775  -44.3427 H         1 UNK         0.0600 
    161 H161       -2.7640  -14.1149  -44.1527 H         1 UNK         0.0600 
    162 H162       -1.7206  -13.6259  -45.4868 H         1 UNK         0.0600 
    163 H163       -1.4611  -12.9680  -43.8818 H         1 UNK         0.0600 
    164 H164        0.1071  -15.0733  -42.1869 H         1 UNK         0.3000 
    165 H165       -1.6119  -14.9837  -40.0291 H         1 UNK         0.0600 
    166 H166       -2.3152  -16.7928  -38.5842 H         1 UNK         0.0600 
    167 H167       -3.4685  -16.6908  -39.9011 H         1 UNK         0.0600 
    168 H168       -2.2571  -17.9675  -39.8851 H         1 UNK         0.0600 
    169 H169        0.4711  -15.5944  -39.6814 H         1 UNK         0.3000 
    170 H170        2.3203  -16.7247  -39.4314 H         1 UNK         0.0600 
    171 H171        2.5209  -19.5334  -40.6379 H         1 UNK         0.0600 
    172 H172        3.6701  -18.7768  -39.5348 H         1 UNK         0.0600 
    173 H173        2.0527  -19.1777  -38.9803 H         1 UNK         0.0600 
    174 H174        3.6180  -17.6095  -41.7310 H         1 UNK         0.3000 
    175 H175        4.7741  -15.8438  -42.8925 H         1 UNK         0.0600 
    176 H176        2.3692  -16.1972  -44.7642 H         1 UNK         0.0600 
    177 H177        4.0529  -16.2080  -45.2826 H         1 UNK         0.0600 
    178 H178        3.4560  -17.4645  -44.2138 H         1 UNK         0.0600 
    179 H179        3.3238  -13.9026  -44.4686 H         1 UNK         0.3000 
    180 H180        3.8459  -11.1003  -42.5597 H         1 UNK         0.0600 
    181 H181        5.4907  -10.1250  -44.1765 H         1 UNK         0.0600 
    182 H182        6.0057  -11.7486  -44.6339 H         1 UNK         0.0600 
    183 H183        6.2790  -11.1628  -42.9985 H         1 UNK         0.0600 
    184 H184        3.6712  -11.4775  -45.4283 H         1 UNK         0.3000 
    185 H185        0.2765  -12.2444  -45.5861 H         1 UNK         0.0600 
    186 H186        1.2563   -9.3682  -45.9883 H         1 UNK         0.0600 
    187 H187       -0.1710  -10.0903  -46.7334 H         1 UNK         0.0600 
    188 H188       -0.1150   -9.8481  -44.9952 H         1 UNK         0.0600 
    189 H189        2.0240  -11.1247  -47.5423 H         1 UNK         0.3000 
    190 H190       -2.1910  -21.5829  -46.9060 H         1 UNK         0.3000 
    191 H191       -3.7254  -23.1813  -48.6267 H         1 UNK         0.0600 
    192 H192       -4.5242  -21.0414  -47.6653 H         1 UNK         0.0600 
    193 H193       -4.5701  -21.7538  -46.0535 H         1 UNK         0.0600 
    194 H194       -5.6589  -22.3323  -47.3094 H         1 UNK         0.0600 
    195 H195       -2.7702  -23.7369  -45.2378 H         1 UNK         0.3000 
    196 H196       -4.3368  -26.1408  -44.8809 H         1 UNK         0.0600 
    197 H197       -3.5994  -24.7151  -42.9768 H         1 UNK         0.0600 
    198 H198       -1.9107  -25.0545  -43.3504 H         1 UNK         0.0600 
    199 H199       -2.9728  -26.3476  -42.8044 H         1 UNK         0.0600 
    200 H200       -1.2657  -25.4525  -46.3950 H         1 UNK         0.3000 
    201 H201       -0.2196  -28.1885  -46.1010 H         1 UNK         0.0600 
    202 H202        1.2877  -26.2205  -45.8028 H         1 UNK         0.0600 
    203 H203        0.9868  -25.7295  -47.4689 H         1 UNK         0.0600 
    204 H204        1.8044  -27.2467  -47.1320 H         1 UNK         0.0600 
    205 H205       -1.1432  -25.9457  -48.7840 H         1 UNK         0.3000 
    206 H206       -1.3774  -28.2712  -50.6538 H         1 UNK         0.0600 
    207 H207        0.9426  -27.3370  -50.7521 H         1 UNK         0.0600 
    208 H208        0.2894  -25.7306  -51.0696 H         1 UNK         0.0600 
    209 H209        0.0763  -27.0245  -52.2445 H         1 UNK         0.0600 
    210 H210       -3.1591  -25.9047  -49.3705 H         1 UNK         0.3000 
    211 H211       -4.9546  -24.7229  -49.9111 H         1 UNK         0.0600 
    212 H212       -5.2049  -26.3353  -52.4869 H         1 UNK         0.0600 
    213 H213       -6.4782  -25.5111  -51.5959 H         1 UNK         0.0600 
    214 H214       -5.7047  -26.9216  -50.8996 H         1 UNK         0.0600 
    215 H215       -2.2892  -23.8015  -50.8555 H         1 UNK         0.3000 
    216 H216       -2.8159  -22.0239  -53.1208 H         1 UNK         0.0600 
    217 H217       -0.5364  -21.1632  -52.5379 H         1 UNK         0.0600 
    218 H218       -0.5351  -22.9065  -52.7572 H         1 UNK         0.0600 
    219 H219       -0.4991  -22.2230  -51.1342 H         1 UNK         0.0600 
    220 H220       -3.0423  -19.8007  -52.9800 H         1 UNK         0.3000 
    221 H221       -3.9625  -17.9093  -52.3623 H         1 UNK         0.0600 
    222 H222       -3.0567  -18.5038  -49.4962 H         1 UNK         0.0600 
    223 H223       -2.1006  -17.6911  -50.7190 H         1 UNK         0.0600 
    224 H224       -3.5666  -16.9363  -50.1218 H         1 UNK         0.0600 
    225 H225       -5.4935  -20.2926  -52.5641 H         1 UNK         0.3000 
    226 H226       -7.9793  -19.5605  -51.2236 H         1 UNK         0.0600 
    227 H227       -7.0058  -20.8724  -49.4040 H         1 UNK         0.0600 
    228 H228       -8.2218  -21.8718  -50.1810 H         1 UNK         0.0600 
    229 H229       -6.5101  -22.1580  -50.4907 H         1 UNK         0.0600 
    230 H230       -6.9661  -22.7540  -52.4512 H         1 UNK         0.3000 
    231 H231       -9.0436  -22.6629  -54.5321 H         1 UNK         0.0600 
    232 H232       -8.4303  -25.0204  -54.8770 H         1 UNK         0.0600 
    233 H233       -7.0378  -24.8657  -53.8174 H         1 UNK         0.0600 
    234 H234       -8.6702  -24.7356  -53.1593 H         1 UNK         0.0600 
    235 H235       -5.4947  -22.7333  -54.2144 H         1 UNK         0.3000 
    236 H236       -5.1433  -22.0766  -57.1144 H         1 UNK         0.0600 
    237 H237       -3.1866  -23.1858  -55.0241 H         1 UNK         0.0600 
    238 H238       -3.8590  -24.0570  -56.3942 H         1 UNK         0.0600 
    239 H239       -2.7515  -22.7206  -56.6644 H         1 UNK         0.0600 
    240 H240       -3.8880  -20.3114  -57.6128 H         1 UNK         0.3000 
    241 H241       -3.3674  -18.2423  -57.6931 H         1 UNK         0.0600 
    242 H242       -5.7295  -16.9370  -54.8115 H         1 UNK         0.3800 
    243 H243       -5.4333  -18.6484  -55.0549 H         1 UNK         0.3800 
    244 H244       -1.3527  -17.5891  -56.6427 H         1 UNK         0.0800 
    245 H245       -1.2819  -19.3015  -56.8886 H         1 UNK         0.0800 
    246 H246       -1.0694  -16.4103  -54.4631 H         1 UNK         0.0800 
    247 H247        0.4483  -17.2284  -54.7740 H         1 UNK         0.0800 
@<TRIPOS>BOND
     1    1    2 1    
     2    1  127 1    
     3    1  128 1    
     4    1  129 1    
     5    2    3 2    
     6    2    4 am   BACKBONE|DICT|INTERRES
     7    4    5 1    
     8    4  130 1    
     9    5    6 1    
    10    5   65 1    
    11    5  131 1    
    12    6    7 1    
    13    6  132 1    
    14    6  133 1    
    15    7    8 1    
    16    8    9 1    
    17    8  134 1    
    18    8  135 1    
    19    9   10 ar   
    20    9   14 ar   
    21   10   11 ar   
    22   10  136 1    
    23   11   12 ar   
    24   11  126 1    
    25   12   13 ar   
    26   12  137 1    
    27   13   14 ar   
    28   13   15 1    
    29   14  138 1    
    30   15   16 1    
    31   15  139 1    
    32   15  140 1    
    33   16   17 1    
    34   17   18 1    
    35   17  141 1    
    36   17  142 1    
    37   18   19 1    
    38   18   67 1    
    39   18  143 1    
    40   19   20 am   BACKBONE|DICT|INTERRES
    41   19  144 1    
    42   20   21 2    
    43   20   22 1    
    44   22   23 1    
    45   22   24 1    
    46   22  145 1    
    47   23  146 1    
    48   23  147 1    
    49   23  148 1    
    50   24   25 am   BACKBONE|DICT|INTERRES
    51   24  149 1    
    52   25   26 2    
    53   25   27 1    
    54   27   28 1    
    55   27   29 1    
    56   27  150 1    
    57   28  151 1    
    58   28  152 1    
    59   28  153 1    
    60   29   30 am   BACKBONE|DICT|INTERRES
    61   29  154 1    
    62   30   31 2    
    63   30   32 1    
    64   32   33 1    
    65   32   34 1    
    66   32  155 1    
    67   33  156 1    
    68   33  157 1    
    69   33  158 1    
    70   34   35 am   BACKBONE|DICT|INTERRES
    71   34  159 1    
    72   35   36 2    
    73   35   37 1    
    74   37   38 1    
    75   37   39 1    
    76   37  160 1    
    77   38  161 1    
    78   38  162 1    
    79   38  163 1    
    80   39   40 am   BACKBONE|DICT|INTERRES
    81   39  164 1    
    82   40   41 2    
    83   40   42 1    
    84   42   43 1    
    85   42   44 1    
    86   42  165 1    
    87   43  166 1    
    88   43  167 1    
    89   43  168 1    
    90   44   45 am   BACKBONE|DICT|INTERRES
    91   44  169 1    
    92   45   46 2    
    93   45   47 1    
    94   47   48 1    
    95   47   49 1    
    96   47  170 1    
    97   48  171 1    
    98   48  172 1    
    99   48  173 1    
   100   49   50 am   BACKBONE|DICT|INTERRES
   101   49  174 1    
   102   50   51 2    
   103   50   52 1    
   104   52   53 1    
   105   52   54 1    
   106   52  175 1    
   107   53  176 1    
   108   53  177 1    
   109   53  178 1    
   110   54   55 am   BACKBONE|DICT|INTERRES
   111   54  179 1    
   112   55   56 2    
   113   55   57 1    
   114   57   58 1    
   115   57   59 1    
   116   57  180 1    
   117   58  181 1    
   118   58  182 1    
   119   58  183 1    
   120   59   60 am   BACKBONE|DICT|INTERRES
   121   59  184 1    
   122   60   61 2    
   123   60   62 1    
   124   62   63 1    
   125   62   64 1    
   126   62  185 1    
   127   63  186 1    
   128   63  187 1    
   129   63  188 1    
   130   64   65 am   BACKBONE|DICT|INTERRES
   131   64  189 1    
   132   65   66 2    
   133   67   68 2    
   134   67   69 am   BACKBONE|DICT|INTERRES
   135   69   70 1    
   136   69  190 1    
   137   70   71 1    
   138   70   72 1    
   139   70  191 1    
   140   71  192 1    
   141   71  193 1    
   142   71  194 1    
   143   72   73 2    
   144   72   74 am   BACKBONE|DICT|INTERRES
   145   74   75 1    
   146   74  195 1    
   147   75   76 1    
   148   75   77 1    
   149   75  196 1    
   150   76  197 1    
   151   76  198 1    
   152   76  199 1    
   153   77   78 2    
   154   77   79 am   BACKBONE|DICT|INTERRES
   155   79   80 1    
   156   79  200 1    
   157   80   81 1    
   158   80   82 1    
   159   80  201 1    
   160   81  202 1    
   161   81  203 1    
   162   81  204 1    
   163   82   83 2    
   164   82   84 am   BACKBONE|DICT|INTERRES
   165   84   85 1    
   166   84  205 1    
   167   85   86 1    
   168   85   87 1    
   169   85  206 1    
   170   86  207 1    
   171   86  208 1    
   172   86  209 1    
   173   87   88 2    
   174   87   89 am   BACKBONE|DICT|INTERRES
   175   89   90 1    
   176   89  210 1    
   177   90   91 1    
   178   90   92 1    
   179   90  211 1    
   180   91  212 1    
   181   91  213 1    
   182   91  214 1    
   183   92   93 2    
   184   92   94 am   BACKBONE|DICT|INTERRES
   185   94   95 1    
   186   94  215 1    
   187   95   96 1    
   188   95   97 1    
   189   95  216 1    
   190   96  217 1    
   191   96  218 1    
   192   96  219 1    
   193   97   98 2    
   194   97   99 am   BACKBONE|DICT|INTERRES
   195   99  100 1    
   196   99  220 1    
   197  100  101 1    
   198  100  102 1    
   199  100  221 1    
   200  101  222 1    
   201  101  223 1    
   202  101  224 1    
   203  102  103 2    
   204  102  104 am   BACKBONE|DICT|INTERRES
   205  104  105 1    
   206  104  225 1    
   207  105  106 1    
   208  105  107 1    
   209  105  226 1    
   210  106  227 1    
   211  106  228 1    
   212  106  229 1    
   213  107  108 2    
   214  107  109 am   BACKBONE|DICT|INTERRES
   215  109  110 1    
   216  109  230 1    
   217  110  111 1    
   218  110  112 1    
   219  110  231 1    
   220  111  232 1    
   221  111  233 1    
   222  111  234 1    
   223  112  113 2    
   224  112  114 am   BACKBONE|DICT|INTERRES
   225  114  115 1    
   226  114  235 1    
   227  115  116 1    
   228  115  117 1    
   229  115  236 1    
   230  116  237 1    
   231  116  238 1    
   232  116  239 1    
   233  117  118 2    
   234  117  119 am   BACKBONE|DICT|INTERRES
   235  119  120 1    
   236  119  240 1    
   237  120  121 1    
   238  120  124 1    
   239  120  241 1    
   240  121  122 am   BACKBONE|DICT|INTERRES
   241  121  123 2    
   242  122  242 1    
   243  122  243 1    
   244  124  125 1    
   245  124  244 1    
   246  124  245 1    
   247  125  126 1    
   248  126  246 1    
   249  126  247 1    
@<TRIPOS>SUBSTRUCTURE
     1 UNK         1 GROUP             0       ****    0 ROOT    
