@<TRIPOS>MOLECULE
3R540
247   249    1
SMALL
USER_CHARGES


@<TRIPOS>ATOM
      1 CA          0.5435   -8.6661  -47.4149 C.3       0 UNK        -0.1800 
      2 C           1.0425  -10.0348  -47.8571 C.2       0 UNK         0.5000 
      3 O           2.2520  -10.2480  -47.9430 O.2       0 UNK        -0.5000 
      4 N           0.1172  -10.9583  -48.1419 N.am      1 UNK        -0.5000 
      5 CA          0.4091  -12.3458  -48.5088 C.3       1 UNK         0.1400 
      6 C6         -0.7606  -12.9581  -49.3169 C.3       23 UNK        -0.0398 
      7 S7         -0.2486  -14.4062  -50.3030 S.3       23 UNK        -0.2404 
      8 C8         -1.3247  -15.6876  -49.5996 C.3       23 UNK        -0.0205 
      9 C9         -0.9372  -17.0707  -50.0920 C.ar      23 UNK        -0.0193 
     10 C10        -1.4912  -17.5767  -51.2693 C.ar      23 UNK        -0.1150 
     11 C11        -1.1742  -18.8664  -51.7092 C.ar      23 UNK        -0.0193 
     12 C12        -0.2875  -19.6399  -50.9525 C.ar      23 UNK        -0.1150 
     13 C13         0.2916  -19.1459  -49.7788 C.ar      23 UNK        -0.0193 
     14 C14        -0.0351  -17.8486  -49.3623 C.ar      23 UNK        -0.1150 
     15 C15         1.2764  -20.0496  -49.0303 C.3       23 UNK        -0.0205 
     16 S16         1.9028  -19.4417  -47.4209 S.3       23 UNK        -0.2404 
     17 C17         0.4345  -19.4476  -46.3309 C.3       23 UNK        -0.0398 
     18 CA         -0.3632  -20.7682  -46.3158 C.3       11 UNK         0.1400 
     19 N           0.4847  -21.9313  -46.0561 N.am      11 UNK        -0.5000 
     20 C           0.1239  -23.1938  -46.3090 C.2       10 UNK         0.5000 
     21 O          -0.9735  -23.5063  -46.7637 O.2       10 UNK        -0.5000 
     22 CA          1.1476  -24.2853  -45.9580 C.3       10 UNK         0.1400 
     23 CB          2.2219  -24.3892  -47.0510 C.3       10 UNK        -0.1800 
     24 N           1.7842  -24.0429  -44.6629 N.am      10 UNK        -0.5000 
     25 C           1.1375  -24.0974  -43.4903 C.2       9 UNK         0.5000 
     26 O          -0.0494  -24.4028  -43.3769 O.2       9 UNK        -0.5000 
     27 CA          1.9412  -23.7082  -42.2371 C.3       9 UNK         0.1400 
     28 CB          2.7104  -24.9210  -41.6924 C.3       9 UNK        -0.1800 
     29 N           2.8728  -22.5932  -42.4378 N.am      9 UNK        -0.5000 
     30 C           2.5237  -21.3576  -42.8202 C.2       8 UNK         0.5000 
     31 O           1.3892  -21.0433  -43.1833 O.2       8 UNK        -0.5000 
     32 CA          3.6229  -20.2823  -42.7787 C.3       8 UNK         0.1400 
     33 CB          3.9283  -19.7475  -44.1861 C.3       8 UNK        -0.1800 
     34 N           3.2237  -19.1662  -41.9231 N.am      8 UNK        -0.5000 
     35 C           3.0421  -19.2377  -40.5964 C.2       7 UNK         0.5000 
     36 O           3.2637  -20.2537  -39.9351 O.2       7 UNK        -0.5000 
     37 CA          2.5644  -17.9491  -39.8988 C.3       7 UNK         0.1400 
     38 CB          2.8525  -17.9513  -38.3859 C.3       7 UNK        -0.1800 
     39 N           3.2086  -16.7818  -40.5020 N.am      7 UNK        -0.5000 
     40 C           2.5866  -15.8318  -41.2064 C.2       6 UNK         0.5000 
     41 O           1.3667  -15.7940  -41.3874 O.2       6 UNK        -0.5000 
     42 CA          3.4928  -14.7462  -41.8072 C.3       6 UNK         0.1400 
     43 CB          4.4863  -15.3222  -42.8350 C.3       6 UNK        -0.1800 
     44 N           2.6619  -13.7365  -42.4491 N.am      6 UNK        -0.5000 
     45 C           2.9177  -12.4258  -42.4887 C.2       5 UNK         0.5000 
     46 O           3.9382  -11.9181  -42.0212 O.2       5 UNK        -0.5000 
     47 CA          1.8714  -11.5210  -43.1678 C.3       5 UNK         0.1400 
     48 CB          2.4322  -10.9405  -44.4742 C.3       5 UNK        -0.1800 
     49 N           0.6050  -12.1977  -43.4608 N.am      5 UNK        -0.5000 
     50 C          -0.3592  -12.4385  -42.5613 C.2       4 UNK         0.5000 
     51 O          -0.2692  -12.1363  -41.3711 O.2       4 UNK        -0.5000 
     52 CA         -1.6331  -13.1322  -43.0697 C.3       4 UNK         0.1400 
     53 CB         -2.5831  -12.1052  -43.7065 C.3       4 UNK        -0.1800 
     54 N          -1.3243  -14.1685  -44.0555 N.am      4 UNK        -0.5000 
     55 C          -1.6344  -15.4673  -43.9313 C.2       3 UNK         0.5000 
     56 O          -2.2299  -15.9408  -42.9631 O.2       3 UNK        -0.5000 
     57 CA         -1.2337  -16.4035  -45.0906 C.3       3 UNK         0.1400 
     58 CB         -2.4408  -16.6723  -46.0048 C.3       3 UNK        -0.1800 
     59 N          -0.1322  -15.8701  -45.8954 N.am      3 UNK        -0.5000 
     60 C           1.1487  -15.8568  -45.5053 C.2       2 UNK         0.5000 
     61 O           1.5497  -16.4374  -44.4986 O.2       2 UNK        -0.5000 
     62 CA          2.1548  -15.0503  -46.3557 C.3       2 UNK         0.1400 
     63 CB          3.2010  -15.9800  -46.9892 C.3       2 UNK        -0.1800 
     64 N           1.5839  -14.2048  -47.4134 N.am      2 UNK        -0.5000 
     65 C           0.7478  -13.1715  -47.2479 C.2       1 UNK         0.5000 
     66 O           0.2317  -12.8848  -46.1640 O.2       1 UNK        -0.5000 
     67 C          -1.5452  -20.6941  -45.3293 C.2       11 UNK         0.5000 
     68 O          -2.6526  -20.3416  -45.7357 O.2       11 UNK        -0.5000 
     69 N          -1.3036  -21.0772  -44.0678 N.am      12 UNK        -0.5000 
     70 CA         -2.3202  -21.2227  -43.0257 C.3       12 UNK         0.1400 
     71 CB         -1.6333  -21.4953  -41.6796 C.3       12 UNK        -0.1800 
     72 C          -3.3537  -22.3207  -43.3460 C.2       12 UNK         0.5000 
     73 O          -4.5238  -22.1716  -42.9909 O.2       12 UNK        -0.5000 
     74 N          -2.9289  -23.3741  -44.0590 N.am      13 UNK        -0.5000 
     75 CA         -3.7744  -24.4417  -44.5969 C.3       13 UNK         0.1400 
     76 CB         -2.9143  -25.6945  -44.8408 C.3       13 UNK        -0.1800 
     77 C          -4.5419  -23.9845  -45.8576 C.2       13 UNK         0.5000 
     78 O          -4.3953  -24.5738  -46.9310 O.2       13 UNK        -0.5000 
     79 N          -5.3483  -22.9265  -45.6926 N.am      14 UNK        -0.5000 
     80 CA         -6.2560  -22.3247  -46.6728 C.3       14 UNK         0.1400 
     81 CB         -7.4595  -23.2595  -46.9165 C.3       14 UNK        -0.1800 
     82 C          -5.5540  -21.9051  -47.9799 C.2       14 UNK         0.5000 
     83 O          -6.0383  -22.2289  -49.0650 O.2       14 UNK        -0.5000 
     84 N          -4.4101  -21.2146  -47.8543 N.am      15 UNK        -0.5000 
     85 CA         -3.5630  -20.7370  -48.9538 C.3       15 UNK         0.1400 
     86 CB         -4.3062  -19.6551  -49.7618 C.3       15 UNK        -0.1800 
     87 C          -3.0289  -21.9001  -49.8186 C.2       15 UNK         0.5000 
     88 O          -3.1053  -21.8551  -51.0475 O.2       15 UNK        -0.5000 
     89 N          -2.5484  -22.9539  -49.1406 N.am      16 UNK        -0.5000 
     90 CA         -2.1131  -24.2408  -49.6917 C.3       16 UNK         0.1400 
     91 CB         -0.7948  -24.0721  -50.4744 C.3       16 UNK        -0.1800 
     92 C          -3.2353  -24.9406  -50.4871 C.2       16 UNK         0.5000 
     93 O          -3.0003  -25.4419  -51.5873 O.2       16 UNK        -0.5000 
     94 N          -4.4477  -24.9198  -49.9111 N.am      17 UNK        -0.5000 
     95 CA         -5.7245  -25.3338  -50.5040 C.3       17 UNK         0.1400 
     96 CB         -5.7718  -26.8658  -50.6785 C.3       17 UNK        -0.1800 
     97 C          -6.0544  -24.5593  -51.8013 C.2       17 UNK         0.5000 
     98 O          -6.5077  -25.1556  -52.7801 O.2       17 UNK        -0.5000 
     99 N          -5.8006  -23.2418  -51.7721 N.am      18 UNK        -0.5000 
    100 CA        -5.8996  -22.2704  -52.8655 C.3       18 UNK         0.1400 
    101 CB        -7.3781  -21.9788  -53.1913 C.3       18 UNK        -0.1800 
    102 C         -5.0794  -22.6964  -54.1003 C.2       18 UNK         0.5000 
    103 O         -5.6382  -22.8484  -55.1899 O.2       18 UNK        -0.5000 
    104 N         -3.7743  -22.9248  -53.8905 N.am      19 UNK        -0.5000 
    105 CA        -2.8263  -23.4471  -54.8805 C.3       19 UNK         0.1400 
    106 CB        -1.4279  -23.5544  -54.2540 C.3       19 UNK        -0.1800 
    107 C         -2.7884  -22.6125  -56.1749 C.2       19 UNK         0.5000 
    108 O         -2.3279  -21.4697  -56.1523 O.2       19 UNK        -0.5000 
    109 N         -3.3252  -23.1879  -57.2625 N.am      20 UNK        -0.5000 
    110 CA        -3.5121  -22.5834  -58.5901 C.3       20 UNK         0.1400 
    111 CB        -2.1481  -22.3671  -59.2782 C.3       20 UNK        -0.1800 
    112 C         -4.3760  -21.3005  -58.5667 C.2       20 UNK         0.5000 
    113 O         -4.1763  -20.4084  -59.3933 O.2       20 UNK        -0.5000 
    114 N         -5.2859  -21.2116  -57.5824 N.am      21 UNK        -0.5000 
    115 CA        -6.1032  -20.0483  -57.2124 C.3       21 UNK         0.1400 
    116 CB        -7.0808  -19.6732  -58.3452 C.3       21 UNK        -0.1800 
    117 C         -5.2804  -18.8357  -56.7166 C.2       21 UNK         0.5000 
    118 O         -5.8336  -17.7433  -56.5812 O.2       21 UNK        -0.5000 
    119 N         -3.9856  -19.0487  -56.4437 N.am      22 UNK        -0.5000 
    120 CA        -2.9983  -18.0671  -55.9697 C.3       22 UNK         0.1400 
    121 C         -2.7058  -16.8994  -56.9609 C.2       22 UNK         0.5000 
    122 N         -2.9796  -17.0517  -58.2516 N.am      22 UNK        -0.7600 
    123 O         -2.1958  -15.8532  -56.5686 O.2       22 UNK        -0.5000 
    124 C124       -3.2619  -17.5906  -54.5139 C.3       23 UNK        -0.0398 
    125 S125       -3.4819  -18.9830  -53.3503 S.3       23 UNK        -0.2404 
    126 C126       -1.7503  -19.4474  -53.0001 C.3       23 UNK        -0.0205 
    127 H127        0.8471   -7.9062  -48.1348 H         1 UNK         0.0600 
    128 H128        0.9668   -8.4056  -46.4450 H         1 UNK         0.0600 
    129 H129       -0.5430   -8.6391  -47.3288 H         1 UNK         0.0600 
    130 H130       -0.8588  -10.7338  -48.0127 H         1 UNK         0.3000 
    131 H131        1.2932  -12.3348  -49.1507 H         1 UNK         0.0600 
    132 H132       -1.6065  -13.2008  -48.6708 H         1 UNK         0.0800 
    133 H133       -1.1382  -12.2234  -50.0298 H         1 UNK         0.0800 
    134 H134       -2.3624  -15.4737  -49.8608 H         1 UNK         0.0800 
    135 H135       -1.2691  -15.6556  -48.5128 H         1 UNK         0.0800 
    136 H136       -2.1769  -16.9623  -51.8333 H         1 UNK         0.1150 
    137 H137       -0.0372  -20.6375  -51.2868 H         1 UNK         0.1150 
    138 H138        0.4088  -17.4262  -48.4744 H         1 UNK         0.1150 
    139 H139        0.8401  -21.0402  -48.8987 H         1 UNK         0.0800 
    140 H140        2.1430  -20.1950  -49.6764 H         1 UNK         0.0800 
    141 H141       -0.2165  -18.6327  -46.6394 H         1 UNK         0.0800 
    142 H142        0.7738  -19.1967  -45.3243 H         1 UNK         0.0800 
    143 H143       -0.8018  -20.9000  -47.3053 H         1 UNK         0.0600 
    144 H144        1.3842  -21.7487  -45.6369 H         1 UNK         0.3000 
    145 H145        0.6166  -25.2384  -45.9072 H         1 UNK         0.0600 
    146 H146        2.8015  -23.4693  -47.1388 H         1 UNK         0.0600 
    147 H147        2.9153  -25.2049  -46.8455 H         1 UNK         0.0600 
    148 H148        1.7694  -24.5858  -48.0239 H         1 UNK         0.0600 
    149 H149        2.7594  -23.7829  -44.6667 H         1 UNK         0.3000 
    150 H150        1.2231  -23.3958  -41.4764 H         1 UNK         0.0600 
    151 H151        2.0386  -25.7619  -41.5139 H         1 UNK         0.0600 
    152 H152        3.1945  -24.6878  -40.7438 H         1 UNK         0.0600 
    153 H153        3.4793  -25.2571  -42.3891 H         1 UNK         0.0600 
    154 H154        3.8276  -22.7586  -42.1536 H         1 UNK         0.3000 
    155 H155        4.5368  -20.7190  -42.3710 H         1 UNK         0.0600 
    156 H156        4.1733  -20.5584  -44.8732 H         1 UNK         0.0600 
    157 H157        4.7783  -19.0652  -44.1711 H         1 UNK         0.0600 
    158 H158        3.0788  -19.2063  -44.6029 H         1 UNK         0.0600 
    159 H159        2.9800  -18.3061  -42.3925 H         1 UNK         0.3000 
    160 H160        1.4818  -17.9070  -40.0334 H         1 UNK         0.0600 
    161 H161        2.5024  -17.0308  -37.9186 H         1 UNK         0.0600 
    162 H162        3.9190  -18.0475  -38.1792 H         1 UNK         0.0600 
    163 H163        2.3433  -18.7783  -37.8894 H         1 UNK         0.0600 
    164 H164        4.2153  -16.7473  -40.4196 H         1 UNK         0.3000 
    165 H165        4.0481  -14.2951  -40.9822 H         1 UNK         0.0600 
    166 H166        3.9748  -15.8300  -43.6522 H         1 UNK         0.0600 
    167 H167        5.1036  -14.5353  -43.2685 H         1 UNK         0.0600 
    168 H168        5.1631  -16.0426  -42.3750 H         1 UNK         0.0600 
    169 H169        1.7651  -14.0765  -42.7718 H         1 UNK         0.3000 
    170 H170        1.6730  -10.6896  -42.4882 H         1 UNK         0.0600 
    171 H171        2.6576  -11.7221  -45.2004 H         1 UNK         0.0600 
    172 H172        1.7220  -10.2519  -44.9297 H         1 UNK         0.0600 
    173 H173        3.3527  -10.3833  -44.2956 H         1 UNK         0.0600 
    174 H174        0.4491  -12.4455  -44.4351 H         1 UNK         0.3000 
    175 H175       -2.1335  -13.5637  -42.2004 H         1 UNK         0.0600 
    176 H176       -2.1410  -11.6394  -44.5885 H         1 UNK         0.0600 
    177 H177       -3.5198  -12.5730  -44.0099 H         1 UNK         0.0600 
    178 H178       -2.8297  -11.3100  -43.0018 H         1 UNK         0.0600 
    179 H179       -0.8251  -13.8616  -44.8838 H         1 UNK         0.3000 
    180 H180       -0.9226  -17.3519  -44.6481 H         1 UNK         0.0600 
    181 H181       -2.8197  -15.7529  -46.4527 H         1 UNK         0.0600 
    182 H182       -3.2594  -17.1239  -45.4428 H         1 UNK         0.0600 
    183 H183       -2.1911  -17.3610  -46.8117 H         1 UNK         0.0600 
    184 H184       -0.3774  -15.3481  -46.7215 H         1 UNK         0.3000 
    185 H185        2.6740  -14.3885  -45.6594 H         1 UNK         0.0600 
    186 H186        2.7649  -16.5944  -47.7769 H         1 UNK         0.0600 
    187 H187        4.0204  -15.4094  -47.4264 H         1 UNK         0.0600 
    188 H188        3.6371  -16.6538  -46.2499 H         1 UNK         0.0600 
    189 H189        1.9239  -14.3921  -48.3463 H         1 UNK         0.3000 
    190 H190       -0.3441  -21.2829  -43.7972 H         1 UNK         0.3000 
    191 H191       -2.8565  -20.2746  -42.9502 H         1 UNK         0.0600 
    192 H192       -1.0800  -22.4343  -41.6945 H         1 UNK         0.0600 
    193 H193       -0.9338  -20.6988  -41.4244 H         1 UNK         0.0600 
    194 H194       -2.3651  -21.5579  -40.8734 H         1 UNK         0.0600 
    195 H195       -1.9473  -23.4248  -44.2995 H         1 UNK         0.3000 
    196 H196       -4.5223  -24.7035  -43.8457 H         1 UNK         0.0600 
    197 H197       -2.4182  -26.0157  -43.9248 H         1 UNK         0.0600 
    198 H198       -2.1449  -25.5204  -45.5922 H         1 UNK         0.0600 
    199 H199       -3.5274  -26.5272  -45.1874 H         1 UNK         0.0600 
    200 H200       -5.3495  -22.4996  -44.7711 H         1 UNK         0.3000 
    201 H201       -6.6352  -21.4065  -46.2223 H         1 UNK         0.0600 
    202 H202       -8.1964  -22.7891  -47.5686 H         1 UNK         0.0600 
    203 H203       -7.9646  -23.5031  -45.9819 H         1 UNK         0.0600 
    204 H204       -7.1557  -24.1955  -47.3865 H         1 UNK         0.0600 
    205 H205       -4.0577  -21.0081  -46.9236 H         1 UNK         0.3000 
    206 H206       -2.6938  -20.2593  -48.5026 H         1 UNK         0.0600 
    207 H207       -5.1394  -20.0650  -50.3326 H         1 UNK         0.0600 
    208 H208       -3.6348  -19.1754  -50.4682 H         1 UNK         0.0600 
    209 H209       -4.6956  -18.8729  -49.1104 H         1 UNK         0.0600 
    210 H210       -2.5188  -22.9120  -48.1286 H         1 UNK         0.3000 
    211 H211       -1.9078  -24.8907  -48.8402 H         1 UNK         0.0600 
    212 H212       -0.0110  -23.6715  -49.8315 H         1 UNK         0.0600 
    213 H213       -0.4401  -25.0277  -50.8617 H         1 UNK         0.0600 
    214 H214       -0.9081  -23.3932  -51.3186 H         1 UNK         0.0600 
    215 H215       -4.5123  -24.5197  -48.9797 H         1 UNK         0.3000 
    216 H216       -6.4961  -25.0604  -49.7830 H         1 UNK         0.0600 
    217 H217       -6.7615  -27.1916  -51.0002 H         1 UNK         0.0600 
    218 H218       -5.0553  -27.2115  -51.4242 H         1 UNK         0.0600 
    219 H219       -5.5522  -27.3754  -49.7404 H         1 UNK         0.0600 
    220 H220       -5.4771  -22.8581  -50.8894 H         1 UNK         0.3000 
    221 H221       -5.4532  -21.3445  -52.5007 H         1 UNK         0.0600 
    222 H222       -7.8914  -22.8620  -53.5728 H         1 UNK         0.0600 
    223 H223       -7.9140  -21.6354  -52.3064 H         1 UNK         0.0600 
    224 H224       -7.4634  -21.1968  -53.9466 H         1 UNK         0.0600 
    225 H225       -3.4097  -22.7482  -52.9600 H         1 UNK         0.3000 
    226 H226       -3.1515  -24.4586  -55.1313 H         1 UNK         0.0600 
    227 H227       -1.4184  -24.2819  -53.4438 H         1 UNK         0.0600 
    228 H228       -0.6938  -23.8858  -54.9895 H         1 UNK         0.0600 
    229 H229       -1.0855  -22.5991  -53.8571 H         1 UNK         0.0600 
    230 H230       -3.7143  -24.1151  -57.1591 H         1 UNK         0.3000 
    231 H231       -4.0698  -23.3100  -59.1825 H         1 UNK         0.0600 
    232 H232       -2.2765  -22.0537  -60.3149 H         1 UNK         0.0600 
    233 H233       -1.5621  -23.2861  -59.2898 H         1 UNK         0.0600 
    234 H234       -1.5585  -21.5997  -58.7755 H         1 UNK         0.0600 
    235 H235       -5.3468  -21.9857  -56.9254 H         1 UNK         0.3000 
    236 H236       -6.7006  -20.3688  -56.3579 H         1 UNK         0.0600 
    237 H237       -7.6504  -20.5408  -58.6782 H         1 UNK         0.0600 
    238 H238       -7.7996  -18.9252  -58.0090 H         1 UNK         0.0600 
    239 H239       -6.5626  -19.2584  -59.2099 H         1 UNK         0.0600 
    240 H240       -3.6164  -19.9876  -56.5501 H         1 UNK         0.3000 
    241 H241       -2.0592  -18.6199  -55.9495 H         1 UNK         0.0600 
    242 H242       -2.7820  -16.3014  -58.8949 H         1 UNK         0.3800 
    243 H243       -3.3857  -17.9118  -58.5898 H         1 UNK         0.3800 
    244 H244       -2.4414  -16.9645  -54.1612 H         1 UNK         0.0800 
    245 H245       -4.1574  -16.9690  -54.4763 H         1 UNK         0.0800 
    246 H246       -1.1061  -19.1688  -53.8338 H         1 UNK         0.0800 
    247 H247       -1.7226  -20.5357  -52.9505 H         1 UNK         0.0800 
@<TRIPOS>BOND
     1    1    2 1    
     2    1  127 1    
     3    1  128 1    
     4    1  129 1    
     5    2    3 2    
     6    2    4 am   BACKBONE|DICT|INTERRES
     7    4    5 1    
     8    4  130 1    
     9    5    6 1    
    10    5   65 1    
    11    5  131 1    
    12    6    7 1    
    13    6  132 1    
    14    6  133 1    
    15    7    8 1    
    16    8    9 1    
    17    8  134 1    
    18    8  135 1    
    19    9   10 ar   
    20    9   14 ar   
    21   10   11 ar   
    22   10  136 1    
    23   11   12 ar   
    24   11  126 1    
    25   12   13 ar   
    26   12  137 1    
    27   13   14 ar   
    28   13   15 1    
    29   14  138 1    
    30   15   16 1    
    31   15  139 1    
    32   15  140 1    
    33   16   17 1    
    34   17   18 1    
    35   17  141 1    
    36   17  142 1    
    37   18   19 1    
    38   18   67 1    
    39   18  143 1    
    40   19   20 am   BACKBONE|DICT|INTERRES
    41   19  144 1    
    42   20   21 2    
    43   20   22 1    
    44   22   23 1    
    45   22   24 1    
    46   22  145 1    
    47   23  146 1    
    48   23  147 1    
    49   23  148 1    
    50   24   25 am   BACKBONE|DICT|INTERRES
    51   24  149 1    
    52   25   26 2    
    53   25   27 1    
    54   27   28 1    
    55   27   29 1    
    56   27  150 1    
    57   28  151 1    
    58   28  152 1    
    59   28  153 1    
    60   29   30 am   BACKBONE|DICT|INTERRES
    61   29  154 1    
    62   30   31 2    
    63   30   32 1    
    64   32   33 1    
    65   32   34 1    
    66   32  155 1    
    67   33  156 1    
    68   33  157 1    
    69   33  158 1    
    70   34   35 am   BACKBONE|DICT|INTERRES
    71   34  159 1    
    72   35   36 2    
    73   35   37 1    
    74   37   38 1    
    75   37   39 1    
    76   37  160 1    
    77   38  161 1    
    78   38  162 1    
    79   38  163 1    
    80   39   40 am   BACKBONE|DICT|INTERRES
    81   39  164 1    
    82   40   41 2    
    83   40   42 1    
    84   42   43 1    
    85   42   44 1    
    86   42  165 1    
    87   43  166 1    
    88   43  167 1    
    89   43  168 1    
    90   44   45 am   BACKBONE|DICT|INTERRES
    91   44  169 1    
    92   45   46 2    
    93   45   47 1    
    94   47   48 1    
    95   47   49 1    
    96   47  170 1    
    97   48  171 1    
    98   48  172 1    
    99   48  173 1    
   100   49   50 am   BACKBONE|DICT|INTERRES
   101   49  174 1    
   102   50   51 2    
   103   50   52 1    
   104   52   53 1    
   105   52   54 1    
   106   52  175 1    
   107   53  176 1    
   108   53  177 1    
   109   53  178 1    
   110   54   55 am   BACKBONE|DICT|INTERRES
   111   54  179 1    
   112   55   56 2    
   113   55   57 1    
   114   57   58 1    
   115   57   59 1    
   116   57  180 1    
   117   58  181 1    
   118   58  182 1    
   119   58  183 1    
   120   59   60 am   BACKBONE|DICT|INTERRES
   121   59  184 1    
   122   60   61 2    
   123   60   62 1    
   124   62   63 1    
   125   62   64 1    
   126   62  185 1    
   127   63  186 1    
   128   63  187 1    
   129   63  188 1    
   130   64   65 am   BACKBONE|DICT|INTERRES
   131   64  189 1    
   132   65   66 2    
   133   67   68 2    
   134   67   69 am   BACKBONE|DICT|INTERRES
   135   69   70 1    
   136   69  190 1    
   137   70   71 1    
   138   70   72 1    
   139   70  191 1    
   140   71  192 1    
   141   71  193 1    
   142   71  194 1    
   143   72   73 2    
   144   72   74 am   BACKBONE|DICT|INTERRES
   145   74   75 1    
   146   74  195 1    
   147   75   76 1    
   148   75   77 1    
   149   75  196 1    
   150   76  197 1    
   151   76  198 1    
   152   76  199 1    
   153   77   78 2    
   154   77   79 am   BACKBONE|DICT|INTERRES
   155   79   80 1    
   156   79  200 1    
   157   80   81 1    
   158   80   82 1    
   159   80  201 1    
   160   81  202 1    
   161   81  203 1    
   162   81  204 1    
   163   82   83 2    
   164   82   84 am   BACKBONE|DICT|INTERRES
   165   84   85 1    
   166   84  205 1    
   167   85   86 1    
   168   85   87 1    
   169   85  206 1    
   170   86  207 1    
   171   86  208 1    
   172   86  209 1    
   173   87   88 2    
   174   87   89 am   BACKBONE|DICT|INTERRES
   175   89   90 1    
   176   89  210 1    
   177   90   91 1    
   178   90   92 1    
   179   90  211 1    
   180   91  212 1    
   181   91  213 1    
   182   91  214 1    
   183   92   93 2    
   184   92   94 am   BACKBONE|DICT|INTERRES
   185   94   95 1    
   186   94  215 1    
   187   95   96 1    
   188   95   97 1    
   189   95  216 1    
   190   96  217 1    
   191   96  218 1    
   192   96  219 1    
   193   97   98 2    
   194   97   99 am   BACKBONE|DICT|INTERRES
   195   99  100 1    
   196   99  220 1    
   197  100  101 1    
   198  100  102 1    
   199  100  221 1    
   200  101  222 1    
   201  101  223 1    
   202  101  224 1    
   203  102  103 2    
   204  102  104 am   BACKBONE|DICT|INTERRES
   205  104  105 1    
   206  104  225 1    
   207  105  106 1    
   208  105  107 1    
   209  105  226 1    
   210  106  227 1    
   211  106  228 1    
   212  106  229 1    
   213  107  108 2    
   214  107  109 am   BACKBONE|DICT|INTERRES
   215  109  110 1    
   216  109  230 1    
   217  110  111 1    
   218  110  112 1    
   219  110  231 1    
   220  111  232 1    
   221  111  233 1    
   222  111  234 1    
   223  112  113 2    
   224  112  114 am   BACKBONE|DICT|INTERRES
   225  114  115 1    
   226  114  235 1    
   227  115  116 1    
   228  115  117 1    
   229  115  236 1    
   230  116  237 1    
   231  116  238 1    
   232  116  239 1    
   233  117  118 2    
   234  117  119 am   BACKBONE|DICT|INTERRES
   235  119  120 1    
   236  119  240 1    
   237  120  121 1    
   238  120  124 1    
   239  120  241 1    
   240  121  122 am   BACKBONE|DICT|INTERRES
   241  121  123 2    
   242  122  242 1    
   243  122  243 1    
   244  124  125 1    
   245  124  244 1    
   246  124  245 1    
   247  125  126 1    
   248  126  246 1    
   249  126  247 1    
@<TRIPOS>SUBSTRUCTURE
     1 UNK         1 GROUP             0       ****    0 ROOT    
