@<TRIPOS>MOLECULE
3R540
247   249    1
SMALL
USER_CHARGES


@<TRIPOS>ATOM
      1 CA          0.1103  -11.1341  -50.9439 C.3       0 UNK        -0.1800 
      2 C           0.6205  -11.9382  -49.7573 C.2       0 UNK         0.5000 
      3 O           0.6780  -11.4190  -48.6426 O.2       0 UNK        -0.5000 
      4 N           0.9749  -13.2102  -49.9858 N.am      1 UNK        -0.5000 
      5 CA          1.5252  -14.1307  -48.9791 C.3       1 UNK         0.1400 
      6 C6          2.0519  -15.4410  -49.6089 C.3       23 UNK        -0.0398 
      7 S7          3.4901  -15.1684  -50.6980 S.3       23 UNK        -0.2404 
      8 C8          2.7850  -15.4130  -52.3628 C.3       23 UNK        -0.0205 
      9 C9          2.2210  -16.8111  -52.5972 C.ar      23 UNK        -0.0193 
     10 C10         0.9627  -16.9603  -53.1860 C.ar      23 UNK        -0.1150 
     11 C11         0.4401  -18.2312  -53.4401 C.ar      23 UNK        -0.0193 
     12 C12         1.1799  -19.3645  -53.0892 C.ar      23 UNK        -0.1150 
     13 C13         2.4377  -19.2310  -52.4933 C.ar      23 UNK        -0.0193 
     14 C14         2.9567  -17.9528  -52.2626 C.ar      23 UNK        -0.1150 
     15 C15         3.2516  -20.4626  -52.1173 C.3       23 UNK        -0.0205 
     16 S16         2.5158  -21.4226  -50.7521 S.3       23 UNK        -0.2404 
     17 C17         2.4466  -20.2086  -49.3896 C.3       23 UNK        -0.0398 
     18 CA          1.0525  -20.1852  -48.7173 C.3       11 UNK         0.1400 
     19 N           0.7554  -21.4520  -48.0358 N.am      11 UNK        -0.5000 
     20 C          -0.3919  -21.7715  -47.4216 C.2       10 UNK         0.5000 
     21 O          -1.3549  -21.0049  -47.3428 O.2       10 UNK        -0.5000 
     22 CA         -0.4814  -23.1658  -46.7620 C.3       10 UNK         0.1400 
     23 CB          0.8636  -23.9239  -46.7037 C.3       10 UNK        -0.1800 
     24 N          -1.0854  -23.1085  -45.4263 N.am      10 UNK        -0.5000 
     25 C          -0.6749  -22.3609  -44.3906 C.2       9 UNK         0.5000 
     26 O           0.2751  -21.5762  -44.4512 O.2       9 UNK        -0.5000 
     27 CA         -1.4825  -22.4868  -43.0786 C.3       9 UNK         0.1400 
     28 CB         -2.1376  -23.8720  -42.8795 C.3       9 UNK        -0.1800 
     29 N          -0.6973  -22.1050  -41.9012 N.am      9 UNK        -0.5000 
     30 C           0.4184  -22.6903  -41.4359 C.2       8 UNK         0.5000 
     31 O           0.8958  -23.7255  -41.9036 O.2       8 UNK        -0.5000 
     32 CA          1.1397  -22.0089  -40.2526 C.3       8 UNK         0.1400 
     33 CB          2.4807  -21.4164  -40.7156 C.3       8 UNK        -0.1800 
     34 N           0.3490  -20.9482  -39.6243 N.am      8 UNK        -0.5000 
     35 C          -0.6560  -21.1552  -38.7593 C.2       7 UNK         0.5000 
     36 O          -0.9649  -22.2680  -38.3321 O.2       7 UNK        -0.5000 
     37 CA         -1.4759  -19.9234  -38.3132 C.3       7 UNK         0.1400 
     38 CB         -0.9858  -19.4193  -36.9474 C.3       7 UNK        -0.1800 
     39 N          -1.4424  -18.8114  -39.2669 N.am      7 UNK        -0.5000 
     40 C          -1.8725  -18.8652  -40.5351 C.2       6 UNK         0.5000 
     41 O          -2.4493  -19.8425  -41.0105 O.2       6 UNK        -0.5000 
     42 CA         -1.5505  -17.6649  -41.4481 C.3       6 UNK         0.1400 
     43 CB         -2.8005  -16.8042  -41.6813 C.3       6 UNK        -0.1800 
     44 N          -0.4555  -16.8036  -40.9901 N.am      6 UNK        -0.5000 
     45 C           0.8044  -17.1847  -40.7467 C.2       5 UNK         0.5000 
     46 O           1.1862  -18.3536  -40.8207 O.2       5 UNK        -0.5000 
     47 CA          1.7910  -16.0660  -40.3553 C.3       5 UNK         0.1400 
     48 CB          3.0716  -16.6220  -39.7071 C.3       5 UNK        -0.1800 
     49 N           2.1687  -15.2416  -41.5035 N.am      5 UNK        -0.5000 
     50 C           1.3840  -14.3543  -42.1300 C.2       4 UNK         0.5000 
     51 O           0.2277  -14.1124  -41.7732 O.2       4 UNK        -0.5000 
     52 CA          2.0207  -13.6037  -43.3234 C.3       4 UNK         0.1400 
     53 CB          2.9360  -14.5079  -44.1709 C.3       4 UNK        -0.1800 
     54 N           1.0208  -12.9946  -44.2016 N.am      4 UNK        -0.5000 
     55 C           0.3716  -11.8472  -43.9528 C.2       3 UNK         0.5000 
     56 O           0.5980  -11.1431  -42.9668 O.2       3 UNK        -0.5000 
     57 CA         -0.6866  -11.3749  -44.9744 C.3       3 UNK         0.1400 
     58 CB         -0.2492  -10.0590  -45.6382 C.3       3 UNK        -0.1800 
     59 N          -0.9659  -12.3550  -46.0244 N.am      3 UNK        -0.5000 
     60 C          -1.7524  -13.4320  -45.8816 C.2       2 UNK         0.5000 
     61 O          -2.4050  -13.6633  -44.8638 O.2       2 UNK        -0.5000 
     62 CA         -1.8396  -14.4120  -47.0734 C.3       2 UNK         0.1400 
     63 CB         -3.1904  -14.2525  -47.7868 C.3       2 UNK        -0.1800 
     64 N          -0.7663  -14.2689  -48.0629 N.am      2 UNK        -0.5000 
     65 C           0.5439  -14.4369  -47.8262 C.2       1 UNK         0.5000 
     66 O           0.9967  -14.7562  -46.7292 O.2       1 UNK        -0.5000 
     67 C           0.9216  -18.9553  -47.7979 C.2       11 UNK         0.5000 
     68 O           0.5075  -17.9004  -48.2737 O.2       11 UNK        -0.5000 
     69 N           1.2215  -19.1148  -46.5001 N.am      12 UNK        -0.5000 
     70 CA          1.1236  -18.0514  -45.4970 C.3       12 UNK         0.1400 
     71 CB          1.8720  -18.4781  -44.2247 C.3       12 UNK        -0.1800 
     72 C          -0.3253  -17.6375  -45.1679 C.2       12 UNK         0.5000 
     73 O          -0.5229  -16.5741  -44.5834 O.2       12 UNK        -0.5000 
     74 N          -1.3041  -18.4749  -45.5364 N.am      13 UNK        -0.5000 
     75 CA         -2.7356  -18.2166  -45.3804 C.3       13 UNK         0.1400 
     76 CB         -3.3333  -19.3574  -44.5438 C.3       13 UNK        -0.1800 
     77 C          -3.4718  -18.1287  -46.7308 C.2       13 UNK         0.5000 
     78 O          -4.6462  -17.7602  -46.7373 O.2       13 UNK        -0.5000 
     79 N          -2.8000  -18.5091  -47.8305 N.am      14 UNK        -0.5000 
     80 CA         -3.3656  -18.8096  -49.1535 C.3       14 UNK         0.1400 
     81 CB         -3.9010  -17.5340  -49.8360 C.3       14 UNK        -0.1800 
     82 C          -4.4029  -19.9548  -49.0888 C.2       14 UNK         0.5000 
     83 O          -5.4601  -19.8781  -49.7169 O.2       14 UNK        -0.5000 
     84 N          -4.0862  -20.9788  -48.2873 N.am      15 UNK        -0.5000 
     85 CA         -4.9600  -22.0943  -47.9365 C.3       15 UNK         0.1400 
     86 CB         -5.0819  -22.1352  -46.4038 C.3       15 UNK        -0.1800 
     87 C          -4.3893  -23.4233  -48.4527 C.2       15 UNK         0.5000 
     88 O          -3.2318  -23.4845  -48.8734 O.2       15 UNK        -0.5000 
     89 N          -5.2117  -24.4786  -48.3751 N.am      16 UNK        -0.5000 
     90 CA         -4.8826  -25.8713  -48.6954 C.3       16 UNK         0.1400 
     91 CB         -3.9403  -26.4506  -47.6142 C.3       16 UNK        -0.1800 
     92 C          -4.3581  -26.0215  -50.1390 C.2       16 UNK         0.5000 
     93 O          -5.0670  -25.6527  -51.0761 O.2       16 UNK        -0.5000 
     94 N          -3.1283  -26.5267  -50.2987 N.am      17 UNK        -0.5000 
     95 CA         -2.4512  -26.6939  -51.5850 C.3       17 UNK         0.1400 
     96 CB         -1.1651  -27.5057  -51.3688 C.3       17 UNK        -0.1800 
     97 C          -2.1334  -25.3646  -52.2973 C.2       17 UNK         0.5000 
     98 O          -2.0560  -25.3489  -53.5262 O.2       17 UNK        -0.5000 
     99 N          -1.9679  -24.2745  -51.5324 N.am      18 UNK        -0.5000 
    100 CA        -1.6944  -22.9440  -52.0745 C.3       18 UNK         0.1400 
    101 CB        -1.1199  -22.0365  -50.9822 C.3       18 UNK        -0.1800 
    102 C         -2.9402  -22.3000  -52.6963 C.2       18 UNK         0.5000 
    103 O         -2.8011  -21.5466  -53.6565 O.2       18 UNK        -0.5000 
    104 N         -4.1345  -22.6288  -52.1805 N.am      19 UNK        -0.5000 
    105 CA        -5.4182  -22.0887  -52.6418 C.3       19 UNK         0.1400 
    106 CB        -6.5535  -22.6225  -51.7572 C.3       19 UNK        -0.1800 
    107 C         -5.7099  -22.3825  -54.1257 C.2       19 UNK         0.5000 
    108 O         -6.3138  -21.5510  -54.8034 O.2       19 UNK        -0.5000 
    109 N         -5.2279  -23.5339  -54.6136 N.am      20 UNK        -0.5000 
    110 CA        -5.2995  -23.9450  -56.0158 C.3       20 UNK         0.1400 
    111 CB        -4.8706  -25.4162  -56.1236 C.3       20 UNK        -0.1800 
    112 C         -4.4532  -23.0648  -56.9585 C.2       20 UNK         0.5000 
    113 O         -4.7996  -22.9399  -58.1338 O.2       20 UNK        -0.5000 
    114 N         -3.3720  -22.4716  -56.4346 N.am      21 UNK        -0.5000 
    115 CA        -2.5114  -21.5337  -57.1522 C.3       21 UNK         0.1400 
    116 CB        -1.0585  -21.7130  -56.6821 C.3       21 UNK        -0.1800 
    117 C         -2.9792  -20.0825  -56.9499 C.2       21 UNK         0.5000 
    118 O         -2.9827  -19.3099  -57.9091 O.2       21 UNK        -0.5000 
    119 N         -3.3565  -19.7374  -55.7114 N.am      22 UNK        -0.5000 
    120 CA        -3.8230  -18.3999  -55.3187 C.3       22 UNK         0.1400 
    121 C         -5.2161  -18.0249  -55.9016 C.2       22 UNK         0.5000 
    122 N         -6.1305  -18.9674  -56.0959 N.am      22 UNK        -0.7600 
    123 O         -5.4696  -16.8572  -56.1849 O.2       22 UNK        -0.5000 
    124 C124       -3.8257  -18.2099  -53.7773 C.3       23 UNK        -0.0398 
    125 S125       -2.2438  -18.3642  -52.8597 S.3       23 UNK        -0.2404 
    126 C126       -0.9189  -18.3697  -54.1041 C.3       23 UNK        -0.0205 
    127 H127        0.1071  -11.7225  -51.8618 H         1 UNK         0.0600 
    128 H128        0.7414  -10.2598  -51.1025 H         1 UNK         0.0600 
    129 H129       -0.9071  -10.7918  -50.7549 H         1 UNK         0.0600 
    130 H130        0.9040  -13.5798  -50.9221 H         1 UNK         0.3000 
    131 H131        2.3749  -13.6218  -48.5183 H         1 UNK         0.0600 
    132 H132        1.2562  -15.9617  -50.1440 H         1 UNK         0.0800 
    133 H133        2.3881  -16.1258  -48.8283 H         1 UNK         0.0800 
    134 H134        3.5676  -15.2306  -53.1003 H         1 UNK         0.0800 
    135 H135        2.0217  -14.6533  -52.5349 H         1 UNK         0.0800 
    136 H136        0.3877  -16.0860  -53.4575 H         1 UNK         0.1150 
    137 H137        0.7776  -20.3500  -53.2781 H         1 UNK         0.1150 
    138 H138        3.9354  -17.8437  -51.8169 H         1 UNK         0.1150 
    139 H139        3.3397  -21.1087  -52.9917 H         1 UNK         0.0800 
    140 H140        4.2702  -20.1844  -51.8423 H         1 UNK         0.0800 
    141 H141        2.7037  -19.2207  -49.7735 H         1 UNK         0.0800 
    142 H142        3.2218  -20.4565  -48.6627 H         1 UNK         0.0800 
    143 H143        0.3021  -20.0548  -49.4990 H         1 UNK         0.0600 
    144 H144        1.4930  -22.1410  -48.0549 H         1 UNK         0.3000 
    145 H145       -1.1581  -23.7532  -47.3811 H         1 UNK         0.0600 
    146 H146        0.7391  -24.8975  -46.2294 H         1 UNK         0.0600 
    147 H147        1.2613  -24.1088  -47.7024 H         1 UNK         0.0600 
    148 H148        1.6170  -23.3770  -46.1353 H         1 UNK         0.0600 
    149 H149       -1.8919  -23.6999  -45.2919 H         1 UNK         0.3000 
    150 H150       -2.2862  -21.7540  -43.1452 H         1 UNK         0.0600 
    151 H151       -2.9056  -24.0614  -43.6300 H         1 UNK         0.0600 
    152 H152       -2.6251  -23.9371  -41.9066 H         1 UNK         0.0600 
    153 H153       -1.4080  -24.6803  -42.9397 H         1 UNK         0.0600 
    154 H154       -1.0165  -21.2611  -41.4402 H         1 UNK         0.3000 
    155 H155        1.3491  -22.7786  -39.5069 H         1 UNK         0.0600 
    156 H156        2.3420  -20.6853  -41.5131 H         1 UNK         0.0600 
    157 H157        3.1401  -22.1957  -41.0995 H         1 UNK         0.0600 
    158 H158        3.0021  -20.9236  -39.8948 H         1 UNK         0.0600 
    159 H159        0.5495  -20.0018  -39.9361 H         1 UNK         0.3000 
    160 H160       -2.5151  -20.2423  -38.2108 H         1 UNK         0.0600 
    161 H161        0.0440  -19.0631  -36.9968 H         1 UNK         0.0600 
    162 H162       -1.0230  -20.2139  -36.2009 H         1 UNK         0.0600 
    163 H163       -1.6078  -18.6024  -36.5810 H         1 UNK         0.0600 
    164 H164       -0.9740  -17.9706  -38.9638 H         1 UNK         0.3000 
    165 H165       -1.2407  -18.0839  -42.4057 H         1 UNK         0.0600 
    166 H166       -2.6098  -16.0319  -42.4276 H         1 UNK         0.0600 
    167 H167       -3.6324  -17.4078  -42.0466 H         1 UNK         0.0600 
    168 H168       -3.1266  -16.3135  -40.7636 H         1 UNK         0.0600 
    169 H169       -0.6366  -15.8053  -41.0006 H         1 UNK         0.3000 
    170 H170        1.2952  -15.4305  -39.6184 H         1 UNK         0.0600 
    171 H171        3.6412  -17.2406  -40.4021 H         1 UNK         0.0600 
    172 H172        3.7218  -15.8170  -39.3641 H         1 UNK         0.0600 
    173 H173        2.8340  -17.2382  -38.8389 H         1 UNK         0.0600 
    174 H174        3.0986  -15.3943  -41.8651 H         1 UNK         0.3000 
    175 H175        2.6392  -12.8073  -42.9047 H         1 UNK         0.0600 
    176 H176        2.4093  -15.3995  -44.5094 H         1 UNK         0.0600 
    177 H177        3.3000  -13.9831  -45.0546 H         1 UNK         0.0600 
    178 H178        3.8145  -14.8317  -43.6124 H         1 UNK         0.0600 
    179 H179        0.7656  -13.5339  -45.0216 H         1 UNK         0.3000 
    180 H180       -1.6082  -11.1834  -44.4209 H         1 UNK         0.0600 
    181 H181       -0.9981   -9.7047  -46.3468 H         1 UNK         0.0600 
    182 H182        0.6928  -10.1751  -46.1754 H         1 UNK         0.0600 
    183 H183       -0.1081   -9.2727  -44.8957 H         1 UNK         0.0600 
    184 H184       -0.4684  -12.2272  -46.8978 H         1 UNK         0.3000 
    185 H185       -1.7828  -15.4241  -46.6715 H         1 UNK         0.0600 
    186 H186       -3.2937  -14.9636  -48.6040 H         1 UNK         0.0600 
    187 H187       -4.0187  -14.4304  -47.0996 H         1 UNK         0.0600 
    188 H188       -3.3119  -13.2495  -48.1976 H         1 UNK         0.0600 
    189 H189       -1.0446  -13.9805  -48.9890 H         1 UNK         0.3000 
    190 H190        1.4845  -20.0310  -46.1625 H         1 UNK         0.3000 
    191 H191        1.6283  -17.1735  -45.9024 H         1 UNK         0.0600 
    192 H192        1.9192  -17.6553  -43.5114 H         1 UNK         0.0600 
    193 H193        2.8978  -18.7732  -44.4447 H         1 UNK         0.0600 
    194 H194        1.3799  -19.3114  -43.7230 H         1 UNK         0.0600 
    195 H195       -1.0506  -19.3505  -45.9788 H         1 UNK         0.3000 
    196 H196       -2.9081  -17.2740  -44.8570 H         1 UNK         0.0600 
    197 H197       -3.1939  -20.3214  -45.0324 H         1 UNK         0.0600 
    198 H198       -2.8657  -19.4125  -43.5639 H         1 UNK         0.0600 
    199 H199       -4.4030  -19.2164  -44.3848 H         1 UNK         0.0600 
    200 H200       -1.8393  -18.7957  -47.7079 H         1 UNK         0.3000 
    201 H201       -2.5428  -19.1869  -49.7628 H         1 UNK         0.0600 
    202 H202       -4.6808  -17.0471  -49.2512 H         1 UNK         0.0600 
    203 H203       -4.3292  -17.7600  -50.8123 H         1 UNK         0.0600 
    204 H204       -3.0967  -16.8174  -49.9992 H         1 UNK         0.0600 
    205 H205       -3.1531  -21.0067  -47.8830 H         1 UNK         0.3000 
    206 H206       -5.9541  -21.9557  -48.3649 H         1 UNK         0.0600 
    207 H207       -5.7794  -22.9086  -46.0803 H         1 UNK         0.0600 
    208 H208       -4.1213  -22.3419  -45.9305 H         1 UNK         0.0600 
    209 H209       -5.4515  -21.1864  -46.0141 H         1 UNK         0.0600 
    210 H210       -6.1554  -24.3271  -48.0483 H         1 UNK         0.3000 
    211 H211       -5.8179  -26.4312  -48.6537 H         1 UNK         0.0600 
    212 H212       -3.7488  -27.5112  -47.7822 H         1 UNK         0.0600 
    213 H213       -4.3887  -26.3635  -46.6245 H         1 UNK         0.0600 
    214 H214       -2.9794  -25.9354  -47.5827 H         1 UNK         0.0600 
    215 H215       -2.6062  -26.7892  -49.4757 H         1 UNK         0.3000 
    216 H216       -3.1113  -27.2661  -52.2402 H         1 UNK         0.0600 
    217 H217       -0.4723  -26.9918  -50.7011 H         1 UNK         0.0600 
    218 H218       -0.6461  -27.6744  -52.3135 H         1 UNK         0.0600 
    219 H219       -1.3826  -28.4843  -50.9405 H         1 UNK         0.0600 
    220 H220       -2.1124  -24.3378  -50.5313 H         1 UNK         0.3000 
    221 H221       -0.9399  -23.0389  -52.8586 H         1 UNK         0.0600 
    222 H222       -0.2675  -22.5066  -50.4942 H         1 UNK         0.0600 
    223 H223       -1.8571  -21.7942  -50.2180 H         1 UNK         0.0600 
    224 H224       -0.7772  -21.0932  -51.4089 H         1 UNK         0.0600 
    225 H225       -4.1642  -23.2967  -51.4229 H         1 UNK         0.3000 
    226 H226       -5.3774  -21.0049  -52.5205 H         1 UNK         0.0600 
    227 H227       -6.6653  -23.7027  -51.8496 H         1 UNK         0.0600 
    228 H228       -6.3810  -22.3890  -50.7079 H         1 UNK         0.0600 
    229 H229       -7.5065  -22.1710  -52.0355 H         1 UNK         0.0600 
    230 H230       -4.7325  -24.1493  -53.9841 H         1 UNK         0.3000 
    231 H231       -6.3402  -23.8665  -56.3373 H         1 UNK         0.0600 
    232 H232       -3.8402  -25.5591  -55.7951 H         1 UNK         0.0600 
    233 H233       -4.9391  -25.7690  -57.1535 H         1 UNK         0.0600 
    234 H234       -5.5086  -26.0594  -55.5172 H         1 UNK         0.0600 
    235 H235       -3.1878  -22.5793  -55.4450 H         1 UNK         0.3000 
    236 H236       -2.5414  -21.7483  -58.2227 H         1 UNK         0.0600 
    237 H237       -0.6971  -22.7173  -56.9037 H         1 UNK         0.0600 
    238 H238       -0.3949  -21.0097  -57.1867 H         1 UNK         0.0600 
    239 H239       -0.9526  -21.5522  -55.6091 H         1 UNK         0.0600 
    240 H240       -3.2639  -20.4180  -54.9600 H         1 UNK         0.3000 
    241 H241       -3.1264  -17.6755  -55.7421 H         1 UNK         0.0600 
    242 H242       -7.0256  -18.7107  -56.4797 H         1 UNK         0.3800 
    243 H243       -5.9801  -19.9238  -55.7886 H         1 UNK         0.3800 
    244 H244       -4.5262  -18.9132  -53.3254 H         1 UNK         0.0800 
    245 H245       -4.2137  -17.2190  -53.5338 H         1 UNK         0.0800 
    246 H246       -0.9518  -19.2955  -54.6767 H         1 UNK         0.0800 
    247 H247       -1.0614  -17.5506  -54.8091 H         1 UNK         0.0800 
@<TRIPOS>BOND
     1    1    2 1    
     2    1  127 1    
     3    1  128 1    
     4    1  129 1    
     5    2    3 2    
     6    2    4 am   BACKBONE|DICT|INTERRES
     7    4    5 1    
     8    4  130 1    
     9    5    6 1    
    10    5   65 1    
    11    5  131 1    
    12    6    7 1    
    13    6  132 1    
    14    6  133 1    
    15    7    8 1    
    16    8    9 1    
    17    8  134 1    
    18    8  135 1    
    19    9   10 ar   
    20    9   14 ar   
    21   10   11 ar   
    22   10  136 1    
    23   11   12 ar   
    24   11  126 1    
    25   12   13 ar   
    26   12  137 1    
    27   13   14 ar   
    28   13   15 1    
    29   14  138 1    
    30   15   16 1    
    31   15  139 1    
    32   15  140 1    
    33   16   17 1    
    34   17   18 1    
    35   17  141 1    
    36   17  142 1    
    37   18   19 1    
    38   18   67 1    
    39   18  143 1    
    40   19   20 am   BACKBONE|DICT|INTERRES
    41   19  144 1    
    42   20   21 2    
    43   20   22 1    
    44   22   23 1    
    45   22   24 1    
    46   22  145 1    
    47   23  146 1    
    48   23  147 1    
    49   23  148 1    
    50   24   25 am   BACKBONE|DICT|INTERRES
    51   24  149 1    
    52   25   26 2    
    53   25   27 1    
    54   27   28 1    
    55   27   29 1    
    56   27  150 1    
    57   28  151 1    
    58   28  152 1    
    59   28  153 1    
    60   29   30 am   BACKBONE|DICT|INTERRES
    61   29  154 1    
    62   30   31 2    
    63   30   32 1    
    64   32   33 1    
    65   32   34 1    
    66   32  155 1    
    67   33  156 1    
    68   33  157 1    
    69   33  158 1    
    70   34   35 am   BACKBONE|DICT|INTERRES
    71   34  159 1    
    72   35   36 2    
    73   35   37 1    
    74   37   38 1    
    75   37   39 1    
    76   37  160 1    
    77   38  161 1    
    78   38  162 1    
    79   38  163 1    
    80   39   40 am   BACKBONE|DICT|INTERRES
    81   39  164 1    
    82   40   41 2    
    83   40   42 1    
    84   42   43 1    
    85   42   44 1    
    86   42  165 1    
    87   43  166 1    
    88   43  167 1    
    89   43  168 1    
    90   44   45 am   BACKBONE|DICT|INTERRES
    91   44  169 1    
    92   45   46 2    
    93   45   47 1    
    94   47   48 1    
    95   47   49 1    
    96   47  170 1    
    97   48  171 1    
    98   48  172 1    
    99   48  173 1    
   100   49   50 am   BACKBONE|DICT|INTERRES
   101   49  174 1    
   102   50   51 2    
   103   50   52 1    
   104   52   53 1    
   105   52   54 1    
   106   52  175 1    
   107   53  176 1    
   108   53  177 1    
   109   53  178 1    
   110   54   55 am   BACKBONE|DICT|INTERRES
   111   54  179 1    
   112   55   56 2    
   113   55   57 1    
   114   57   58 1    
   115   57   59 1    
   116   57  180 1    
   117   58  181 1    
   118   58  182 1    
   119   58  183 1    
   120   59   60 am   BACKBONE|DICT|INTERRES
   121   59  184 1    
   122   60   61 2    
   123   60   62 1    
   124   62   63 1    
   125   62   64 1    
   126   62  185 1    
   127   63  186 1    
   128   63  187 1    
   129   63  188 1    
   130   64   65 am   BACKBONE|DICT|INTERRES
   131   64  189 1    
   132   65   66 2    
   133   67   68 2    
   134   67   69 am   BACKBONE|DICT|INTERRES
   135   69   70 1    
   136   69  190 1    
   137   70   71 1    
   138   70   72 1    
   139   70  191 1    
   140   71  192 1    
   141   71  193 1    
   142   71  194 1    
   143   72   73 2    
   144   72   74 am   BACKBONE|DICT|INTERRES
   145   74   75 1    
   146   74  195 1    
   147   75   76 1    
   148   75   77 1    
   149   75  196 1    
   150   76  197 1    
   151   76  198 1    
   152   76  199 1    
   153   77   78 2    
   154   77   79 am   BACKBONE|DICT|INTERRES
   155   79   80 1    
   156   79  200 1    
   157   80   81 1    
   158   80   82 1    
   159   80  201 1    
   160   81  202 1    
   161   81  203 1    
   162   81  204 1    
   163   82   83 2    
   164   82   84 am   BACKBONE|DICT|INTERRES
   165   84   85 1    
   166   84  205 1    
   167   85   86 1    
   168   85   87 1    
   169   85  206 1    
   170   86  207 1    
   171   86  208 1    
   172   86  209 1    
   173   87   88 2    
   174   87   89 am   BACKBONE|DICT|INTERRES
   175   89   90 1    
   176   89  210 1    
   177   90   91 1    
   178   90   92 1    
   179   90  211 1    
   180   91  212 1    
   181   91  213 1    
   182   91  214 1    
   183   92   93 2    
   184   92   94 am   BACKBONE|DICT|INTERRES
   185   94   95 1    
   186   94  215 1    
   187   95   96 1    
   188   95   97 1    
   189   95  216 1    
   190   96  217 1    
   191   96  218 1    
   192   96  219 1    
   193   97   98 2    
   194   97   99 am   BACKBONE|DICT|INTERRES
   195   99  100 1    
   196   99  220 1    
   197  100  101 1    
   198  100  102 1    
   199  100  221 1    
   200  101  222 1    
   201  101  223 1    
   202  101  224 1    
   203  102  103 2    
   204  102  104 am   BACKBONE|DICT|INTERRES
   205  104  105 1    
   206  104  225 1    
   207  105  106 1    
   208  105  107 1    
   209  105  226 1    
   210  106  227 1    
   211  106  228 1    
   212  106  229 1    
   213  107  108 2    
   214  107  109 am   BACKBONE|DICT|INTERRES
   215  109  110 1    
   216  109  230 1    
   217  110  111 1    
   218  110  112 1    
   219  110  231 1    
   220  111  232 1    
   221  111  233 1    
   222  111  234 1    
   223  112  113 2    
   224  112  114 am   BACKBONE|DICT|INTERRES
   225  114  115 1    
   226  114  235 1    
   227  115  116 1    
   228  115  117 1    
   229  115  236 1    
   230  116  237 1    
   231  116  238 1    
   232  116  239 1    
   233  117  118 2    
   234  117  119 am   BACKBONE|DICT|INTERRES
   235  119  120 1    
   236  119  240 1    
   237  120  121 1    
   238  120  124 1    
   239  120  241 1    
   240  121  122 am   BACKBONE|DICT|INTERRES
   241  121  123 2    
   242  122  242 1    
   243  122  243 1    
   244  124  125 1    
   245  124  244 1    
   246  124  245 1    
   247  125  126 1    
   248  126  246 1    
   249  126  247 1    
@<TRIPOS>SUBSTRUCTURE
     1 UNK         1 GROUP             0       ****    0 ROOT    
