@<TRIPOS>MOLECULE
3R540
247   249    1
SMALL
USER_CHARGES


@<TRIPOS>ATOM
      1 CA          2.8878   -7.5437  -47.7509 C.3       0 UNK        -0.1800 
      2 C           3.3789   -8.9318  -48.1381 C.2       0 UNK         0.5000 
      3 O           4.4484   -9.0586  -48.7354 O.2       0 UNK        -0.5000 
      4 N           2.5990   -9.9690  -47.8078 N.am      1 UNK        -0.5000 
      5 CA          2.9387  -11.3788  -48.0312 C.3       1 UNK         0.1400 
      6 C6          1.6794  -12.2787  -47.9453 C.3       23 UNK        -0.0398 
      7 S7          1.7110  -13.6288  -49.1648 S.3       23 UNK        -0.2404 
      8 C8          0.2938  -14.6010  -48.5769 C.3       23 UNK        -0.0205 
      9 C9         -0.1527  -15.6303  -49.6030 C.ar      23 UNK        -0.0193 
     10 C10        -1.3938  -15.5014  -50.2339 C.ar      23 UNK        -0.1150 
     11 C11        -1.8175  -16.4480  -51.1715 C.ar      23 UNK        -0.0193 
     12 C12        -0.9849  -17.5285  -51.4798 C.ar      23 UNK        -0.1150 
     13 C13         0.2579  -17.6701  -50.8541 C.ar      23 UNK        -0.0193 
     14 C14         0.6654  -16.7205  -49.9128 C.ar      23 UNK        -0.1150 
     15 C15         1.1718  -18.8342  -51.2113 C.3       23 UNK        -0.0205 
     16 S16         1.3119  -20.0466  -49.8611 S.3       23 UNK        -0.2404 
     17 C17        -0.4046  -20.6453  -49.7549 C.3       23 UNK        -0.0398 
     18 CA         -0.5264  -21.9114  -48.8754 C.3       11 UNK         0.1400 
     19 N          -0.2615  -21.6446  -47.4587 N.am      11 UNK        -0.5000 
     20 C          -0.1617  -22.5954  -46.5206 C.2       10 UNK         0.5000 
     21 O          -0.2397  -23.7989  -46.7582 O.2       10 UNK        -0.5000 
     22 CA         -0.0054  -22.1353  -45.0623 C.3       10 UNK         0.1400 
     23 CB          1.4399  -21.7084  -44.7698 C.3       10 UNK        -0.1800 
     24 N          -0.9430  -21.0723  -44.7046 N.am      10 UNK        -0.5000 
     25 C          -2.2776  -21.2106  -44.7249 C.2       9 UNK         0.5000 
     26 O          -2.8506  -22.2626  -45.0123 O.2       9 UNK        -0.5000 
     27 CA         -3.1166  -19.9604  -44.4073 C.3       9 UNK         0.1400 
     28 CB         -3.2301  -19.7562  -42.8897 C.3       9 UNK        -0.1800 
     29 N          -2.5863  -18.7465  -45.0256 N.am      9 UNK        -0.5000 
     30 C          -2.4669  -18.5540  -46.3472 C.2       8 UNK         0.5000 
     31 O          -2.8105  -19.3753  -47.1979 O.2       8 UNK        -0.5000 
     32 CA         -1.7705  -17.2544  -46.7869 C.3       8 UNK         0.1400 
     33 CB         -2.6750  -16.0302  -46.5844 C.3       8 UNK        -0.1800 
     34 N          -0.5066  -17.0409  -46.0835 N.am      8 UNK        -0.5000 
     35 C           0.5414  -17.8744  -46.1404 C.2       7 UNK         0.5000 
     36 O           0.5633  -18.9093  -46.8035 O.2       7 UNK        -0.5000 
     37 CA          1.7501  -17.5138  -45.2632 C.3       7 UNK         0.1400 
     38 CB          2.6409  -16.4723  -45.9592 C.3       7 UNK        -0.1800 
     39 N           1.3401  -17.0400  -43.9390 N.am      7 UNK        -0.5000 
     40 C           0.7399  -17.8162  -43.0232 C.2       6 UNK         0.5000 
     41 O           0.5425  -19.0212  -43.1707 O.2       6 UNK        -0.5000 
     42 CA          0.2116  -17.1202  -41.7586 C.3       6 UNK         0.1400 
     43 CB          1.3106  -16.9979  -40.6926 C.3       6 UNK        -0.1800 
     44 N          -0.3603  -15.8060  -42.0595 N.am      6 UNK        -0.5000 
     45 C          -1.5168  -15.6419  -42.7204 C.2       5 UNK         0.5000 
     46 O          -2.2080  -16.5813  -43.1136 O.2       5 UNK        -0.5000 
     47 CA         -1.9810  -14.2033  -43.0178 C.3       5 UNK         0.1400 
     48 CB         -2.9734  -13.7302  -41.9456 C.3       5 UNK        -0.1800 
     49 N          -0.8909  -13.2346  -43.1192 N.am      5 UNK        -0.5000 
     50 C           0.0597  -13.2336  -44.0622 C.2       4 UNK         0.5000 
     51 O           0.1238  -14.0715  -44.9660 O.2       4 UNK        -0.5000 
     52 CA          1.1436  -12.1337  -43.9643 C.3       4 UNK         0.1400 
     53 CB          0.9615  -11.1671  -42.7727 C.3       4 UNK        -0.1800 
     54 N           2.5006  -12.6889  -43.9448 N.am      4 UNK        -0.5000 
     55 C           2.9646  -13.6510  -43.1306 C.2       3 UNK         0.5000 
     56 O           2.2794  -14.2042  -42.2699 O.2       3 UNK        -0.5000 
     57 CA          4.4243  -14.0861  -43.3452 C.3       3 UNK         0.1400 
     58 CB          4.7288  -15.4907  -42.7887 C.3       3 UNK        -0.1800 
     59 N           4.7525  -14.0187  -44.7681 N.am      3 UNK        -0.5000 
     60 C           5.9295  -13.6356  -45.2709 C.2       2 UNK         0.5000 
     61 O           6.9314  -13.4210  -44.5873 O.2       2 UNK        -0.5000 
     62 CA          5.9926  -13.4232  -46.7979 C.3       2 UNK         0.1400 
     63 CB          6.3956  -14.7319  -47.4954 C.3       2 UNK        -0.1800 
     64 N           4.7726  -12.9039  -47.4378 N.am      2 UNK        -0.5000 
     65 C           4.0443  -11.8436  -47.0561 C.2       1 UNK         0.5000 
     66 O           4.1895  -11.2586  -45.9792 O.2       1 UNK        -0.5000 
     67 C          -1.9005  -22.5765  -49.0837 C.2       11 UNK         0.5000 
     68 O          -1.9800  -23.5932  -49.7748 O.2       11 UNK        -0.5000 
     69 N          -2.9475  -21.9928  -48.4865 N.am      12 UNK        -0.5000 
     70 CA         -4.3333  -22.4153  -48.6662 C.3       12 UNK         0.1400 
     71 CB         -5.2716  -21.3418  -48.0942 C.3       12 UNK        -0.1800 
     72 C          -4.6494  -23.7912  -48.0553 C.2       12 UNK         0.5000 
     73 O          -5.2521  -24.6226  -48.7356 O.2       12 UNK        -0.5000 
     74 N          -4.2767  -23.9961  -46.7849 N.am      13 UNK        -0.5000 
     75 CA         -4.7151  -25.1448  -45.9935 C.3       13 UNK         0.1400 
     76 CB         -5.2218  -24.6569  -44.6257 C.3       13 UNK        -0.1800 
     77 C          -3.6161  -26.2004  -45.8150 C.2       13 UNK         0.5000 
     78 O          -3.8803  -27.3804  -46.0483 O.2       13 UNK        -0.5000 
     79 N          -2.4254  -25.7806  -45.3633 N.am      14 UNK        -0.5000 
     80 CA         -1.3615  -26.6984  -44.9438 C.3       14 UNK         0.1400 
     81 CB         -0.3605  -25.9727  -44.0301 C.3       14 UNK        -0.1800 
     82 C          -0.6508  -27.3638  -46.1333 C.2       14 UNK         0.5000 
     83 O          -0.5567  -28.5912  -46.1811 O.2       14 UNK        -0.5000 
     84 N          -0.1679  -26.5408  -47.0706 N.am      15 UNK        -0.5000 
     85 CA          0.5114  -26.9808  -48.2868 C.3       15 UNK         0.1400 
     86 CB          1.3791  -25.8314  -48.8234 C.3       15 UNK        -0.1800 
     87 C          -0.4771  -27.4449  -49.3679 C.2       15 UNK         0.5000 
     88 O          -0.1311  -28.3271  -50.1545 O.2       15 UNK        -0.5000 
     89 N          -1.6711  -26.8295  -49.3904 N.am      16 UNK        -0.5000 
     90 CA         -2.7260  -26.9807  -50.3992 C.3       16 UNK         0.1400 
     91 CB         -3.3759  -28.3765  -50.3084 C.3       16 UNK        -0.1800 
     92 C          -2.2019  -26.6335  -51.8087 C.2       16 UNK         0.5000 
     93 O          -2.2759  -27.4493  -52.7307 O.2       16 UNK        -0.5000 
     94 N          -1.6194  -25.4330  -51.9142 N.am      17 UNK        -0.5000 
     95 CA         -0.9784  -24.8892  -53.1087 C.3       17 UNK         0.1400 
     96 CB         -0.2429  -23.5975  -52.7096 C.3       17 UNK        -0.1800 
     97 C          -1.9715  -24.6094  -54.2525 C.2       17 UNK         0.5000 
     98 O          -3.1843  -24.5454  -54.0314 O.2       17 UNK        -0.5000 
     99 N          -1.4267  -24.3913  -55.4567 N.am      18 UNK        -0.5000 
    100 CA        -2.1511  -23.9605  -56.6552 C.3       18 UNK         0.1400 
    101 CB        -1.2984  -24.2891  -57.8940 C.3       18 UNK        -0.1800 
    102 C         -2.5266  -22.4647  -56.5688 C.2       18 UNK         0.5000 
    103 O         -2.0095  -21.6402  -57.3251 O.2       18 UNK        -0.5000 
    104 N         -3.3960  -22.1469  -55.6090 N.am      19 UNK        -0.5000 
    105 CA        -3.8835  -20.8184  -55.2681 C.3       19 UNK         0.1400 
    106 CB        -2.9712  -20.2153  -54.1813 C.3       19 UNK        -0.1800 
    107 C         -5.3420  -20.9301  -54.7926 C.2       19 UNK         0.5000 
    108 O         -5.8931  -22.0329  -54.7179 O.2       19 UNK        -0.5000 
    109 N         -5.9443  -19.7783  -54.4824 N.am      20 UNK        -0.5000 
    110 CA        -7.2786  -19.6604  -53.8952 C.3       20 UNK         0.1400 
    111 CB        -7.7510  -18.2074  -54.0887 C.3       20 UNK        -0.1800 
    112 C         -7.2950  -20.0552  -52.4020 C.2       20 UNK         0.5000 
    113 O         -6.2624  -20.4140  -51.8290 O.2       20 UNK        -0.5000 
    114 N         -8.4668  -19.9241  -51.7673 N.am      21 UNK        -0.5000 
    115 CA        -8.6460  -20.0048  -50.3154 C.3       21 UNK         0.1400 
    116 CB       -10.1235  -20.3130  -50.0131 C.3       21 UNK        -0.1800 
    117 C         -8.1528  -18.7062  -49.6379 C.2       21 UNK         0.5000 
    118 O         -8.9540  -17.9422  -49.0963 O.2       21 UNK        -0.5000 
    119 N         -6.8436  -18.4588  -49.7533 N.am      22 UNK        -0.5000 
    120 CA        -6.1197  -17.2706  -49.2835 C.3       22 UNK         0.1400 
    121 C         -6.2699  -17.0207  -47.7562 C.2       22 UNK         0.5000 
    122 N         -6.4345  -15.7722  -47.3398 N.am      22 UNK        -0.7600 
    123 O         -6.1928  -17.9394  -46.9446 O.2       22 UNK        -0.5000 
    124 C124       -4.6190  -17.3409  -49.6715 C.3       23 UNK        -0.0398 
    125 S125       -4.3342  -17.6134  -51.4554 S.3       23 UNK        -0.2404 
    126 C126       -3.1604  -16.2853  -51.8727 C.3       23 UNK        -0.0205 
    127 H127        3.6067   -7.0637  -47.0870 H         1 UNK         0.0600 
    128 H128        1.9256   -7.5814  -47.2394 H         1 UNK         0.0600 
    129 H129        2.7758   -6.9233  -48.6401 H         1 UNK         0.0600 
    130 H130        1.7479   -9.7952  -47.2936 H         1 UNK         0.3000 
    131 H131        3.3470  -11.4401  -49.0429 H         1 UNK         0.0600 
    132 H132        1.5373  -12.6937  -46.9465 H         1 UNK         0.0800 
    133 H133        0.7797  -11.6980  -48.1554 H         1 UNK         0.0800 
    134 H134        0.5664  -15.1009  -47.6495 H         1 UNK         0.0800 
    135 H135       -0.5286  -13.9271  -48.3325 H         1 UNK         0.0800 
    136 H136       -2.0302  -14.6604  -49.9967 H         1 UNK         0.1150 
    137 H137       -1.3078  -18.2572  -52.2102 H         1 UNK         0.1150 
    138 H138        1.6236  -16.8277  -49.4241 H         1 UNK         0.1150 
    139 H139        0.8248  -19.3388  -52.1145 H         1 UNK         0.0800 
    140 H140        2.1659  -18.4485  -51.4412 H         1 UNK         0.0800 
    141 H141       -1.0346  -19.8429  -49.3658 H         1 UNK         0.0800 
    142 H142       -0.7493  -20.8451  -50.7714 H         1 UNK         0.0800 
    143 H143        0.2243  -22.6270  -49.2164 H         1 UNK         0.0600 
    144 H144       -0.1440  -20.6697  -47.1931 H         1 UNK         0.3000 
    145 H145       -0.2340  -22.9865  -44.4201 H         1 UNK         0.0600 
    146 H146        2.1398  -22.5054  -45.0238 H         1 UNK         0.0600 
    147 H147        1.7262  -20.8270  -45.3424 H         1 UNK         0.0600 
    148 H148        1.5776  -21.4823  -43.7125 H         1 UNK         0.0600 
    149 H149       -0.5386  -20.1879  -44.4151 H         1 UNK         0.3000 
    150 H150       -4.1196  -20.1239  -44.8069 H         1 UNK         0.0600 
    151 H151       -3.6372  -20.6442  -42.4045 H         1 UNK         0.0600 
    152 H152       -3.8922  -18.9230  -42.6534 H         1 UNK         0.0600 
    153 H153       -2.2589  -19.5488  -42.4385 H         1 UNK         0.0600 
    154 H154       -2.2975  -18.0054  -44.3927 H         1 UNK         0.3000 
    155 H155       -1.5483  -17.3462  -47.8514 H         1 UNK         0.0600 
    156 H156       -2.1736  -15.1087  -46.8788 H         1 UNK         0.0600 
    157 H157       -3.5788  -16.1121  -47.1818 H         1 UNK         0.0600 
    158 H158       -2.9898  -15.9245  -45.5478 H         1 UNK         0.0600 
    159 H159       -0.4311  -16.2056  -45.5169 H         1 UNK         0.3000 
    160 H160        2.3403  -18.4233  -45.1330 H         1 UNK         0.0600 
    161 H161        2.2073  -15.4734  -45.9237 H         1 UNK         0.0600 
    162 H162        2.7963  -16.7252  -47.0092 H         1 UNK         0.0600 
    163 H163        3.6258  -16.4362  -45.4978 H         1 UNK         0.0600 
    164 H164        1.4239  -16.0510  -43.7489 H         1 UNK         0.3000 
    165 H165       -0.5821  -17.7451  -41.3430 H         1 UNK         0.0600 
    166 H166        0.9464  -16.4804  -39.8051 H         1 UNK         0.0600 
    167 H167        1.6511  -17.9848  -40.3770 H         1 UNK         0.0600 
    168 H168        2.1829  -16.4605  -41.0622 H         1 UNK         0.0600 
    169 H169        0.1996  -14.9967  -41.8210 H         1 UNK         0.3000 
    170 H170       -2.5004  -14.2169  -43.9775 H         1 UNK         0.0600 
    171 H171       -3.8173  -14.4168  -41.8644 H         1 UNK         0.0600 
    172 H172       -2.5047  -13.6685  -40.9626 H         1 UNK         0.0600 
    173 H173       -3.3787  -12.7476  -42.1880 H         1 UNK         0.0600 
    174 H174       -0.8524  -12.5257  -42.4015 H         1 UNK         0.3000 
    175 H175        1.0606  -11.5444  -44.8777 H         1 UNK         0.0600 
    176 H176        1.0344  -11.6800  -41.8128 H         1 UNK         0.0600 
    177 H177        1.7262  -10.3903  -42.7859 H         1 UNK         0.0600 
    178 H178       -0.0033  -10.6599  -42.8137 H         1 UNK         0.0600 
    179 H179        3.1541  -12.2618  -44.5942 H         1 UNK         0.3000 
    180 H180        5.0346  -13.3634  -42.7996 H         1 UNK         0.0600 
    181 H181        4.0828  -16.2515  -43.2252 H         1 UNK         0.0600 
    182 H182        4.5822  -15.5207  -41.7084 H         1 UNK         0.0600 
    183 H183        5.7627  -15.7771  -42.9813 H         1 UNK         0.0600 
    184 H184        3.9859  -14.1638  -45.4084 H         1 UNK         0.3000 
    185 H185        6.7781  -12.6876  -46.9810 H         1 UNK         0.0600 
    186 H186        7.3108  -15.1409  -47.0650 H         1 UNK         0.0600 
    187 H187        5.6195  -15.4926  -47.4000 H         1 UNK         0.0600 
    188 H188        6.5823  -14.5734  -48.5577 H         1 UNK         0.0600 
    189 H189        4.5369  -13.3365  -48.3201 H         1 UNK         0.3000 
    190 H190       -2.7995  -21.1510  -47.9348 H         1 UNK         0.3000 
    191 H191       -4.5219  -22.4806  -49.7403 H         1 UNK         0.0600 
    192 H192       -5.1222  -20.3863  -48.5953 H         1 UNK         0.0600 
    193 H193       -5.1047  -21.1851  -47.0278 H         1 UNK         0.0600 
    194 H194       -6.3173  -21.6204  -48.2277 H         1 UNK         0.0600 
    195 H195       -3.7545  -23.2761  -46.2900 H         1 UNK         0.3000 
    196 H196       -5.5585  -25.6376  -46.4822 H         1 UNK         0.0600 
    197 H197       -5.5982  -25.4898  -44.0305 H         1 UNK         0.0600 
    198 H198       -6.0392  -23.9449  -44.7409 H         1 UNK         0.0600 
    199 H199       -4.4362  -24.1714  -44.0464 H         1 UNK         0.0600 
    200 H200       -2.2664  -24.7911  -45.2330 H         1 UNK         0.3000 
    201 H201       -1.8206  -27.4914  -44.3490 H         1 UNK         0.0600 
    202 H202       -0.8664  -25.4615  -43.2109 H         1 UNK         0.0600 
    203 H203        0.2334  -25.2392  -44.5730 H         1 UNK         0.0600 
    204 H204        0.3381  -26.6834  -43.5871 H         1 UNK         0.0600 
    205 H205       -0.2652  -25.5331  -46.9414 H         1 UNK         0.3000 
    206 H206        1.1679  -27.8188  -48.0431 H         1 UNK         0.0600 
    207 H207        2.0933  -25.4909  -48.0736 H         1 UNK         0.0600 
    208 H208        1.9483  -26.1477  -49.6984 H         1 UNK         0.0600 
    209 H209        0.7716  -24.9761  -49.1204 H         1 UNK         0.0600 
    210 H210       -1.8252  -26.1007  -48.7083 H         1 UNK         0.3000 
    211 H211       -3.4932  -26.2424  -50.1621 H         1 UNK         0.0600 
    212 H212       -2.6737  -29.1718  -50.5597 H         1 UNK         0.0600 
    213 H213       -4.2199  -28.4566  -50.9943 H         1 UNK         0.0600 
    214 H214       -3.7536  -28.5676  -49.3038 H         1 UNK         0.0600 
    215 H215       -1.6648  -24.8107  -51.1098 H         1 UNK         0.3000 
    216 H216       -0.2472  -25.6201  -53.4596 H         1 UNK         0.0600 
    217 H217       -0.9414  -22.8265  -52.3815 H         1 UNK         0.0600 
    218 H218        0.3259  -23.1887  -53.5454 H         1 UNK         0.0600 
    219 H219        0.4616  -23.7773  -51.8971 H         1 UNK         0.0600 
    220 H220       -0.4217  -24.4327  -55.5452 H         1 UNK         0.3000 
    221 H221       -3.0803  -24.5294  -56.7306 H         1 UNK         0.0600 
    222 H222       -0.3398  -23.7690  -57.8754 H         1 UNK         0.0600 
    223 H223       -1.0981  -25.3586  -57.9616 H         1 UNK         0.0600 
    224 H224       -1.8133  -23.9981  -58.8105 H         1 UNK         0.0600 
    225 H225       -3.7773  -22.8971  -55.0381 H         1 UNK         0.3000 
    226 H226       -3.8685  -20.1817  -56.1551 H         1 UNK         0.0600 
    227 H227       -1.9306  -20.1918  -54.5054 H         1 UNK         0.0600 
    228 H228       -3.2561  -19.1895  -53.9469 H         1 UNK         0.0600 
    229 H229       -3.0191  -20.7892  -53.2546 H         1 UNK         0.0600 
    230 H230       -5.4091  -18.9244  -54.5331 H         1 UNK         0.3000 
    231 H231       -7.9594  -20.3266  -54.4290 H         1 UNK         0.0600 
    232 H232       -8.7851  -18.0746  -53.7694 H         1 UNK         0.0600 
    233 H233       -7.7039  -17.9139  -55.1376 H         1 UNK         0.0600 
    234 H234       -7.1384  -17.5078  -53.5178 H         1 UNK         0.0600 
    235 H235       -9.2685  -19.6060  -52.2922 H         1 UNK         0.3000 
    236 H236       -8.0481  -20.8308  -49.9245 H         1 UNK         0.0600 
    237 H237      -10.4271  -21.2599  -50.4599 H         1 UNK         0.0600 
    238 H238      -10.2930  -20.3931  -48.9386 H         1 UNK         0.0600 
    239 H239      -10.7860  -19.5349  -50.3942 H         1 UNK         0.0600 
    240 H240       -6.2901  -19.1258  -50.2811 H         1 UNK         0.3000 
    241 H241       -6.5598  -16.4195  -49.8065 H         1 UNK         0.0600 
    242 H242       -6.5054  -15.0004  -47.9846 H         1 UNK         0.3800 
    243 H243       -6.5251  -15.5982  -46.3513 H         1 UNK         0.3800 
    244 H244       -4.1192  -16.4176  -49.3793 H         1 UNK         0.0800 
    245 H245       -4.1197  -18.1453  -49.1306 H         1 UNK         0.0800 
    246 H246       -2.9969  -16.2900  -52.9511 H         1 UNK         0.0800 
    247 H247       -3.6124  -15.3206  -51.6373 H         1 UNK         0.0800 
@<TRIPOS>BOND
     1    1    2 1    
     2    1  127 1    
     3    1  128 1    
     4    1  129 1    
     5    2    3 2    
     6    2    4 am   BACKBONE|DICT|INTERRES
     7    4    5 1    
     8    4  130 1    
     9    5    6 1    
    10    5   65 1    
    11    5  131 1    
    12    6    7 1    
    13    6  132 1    
    14    6  133 1    
    15    7    8 1    
    16    8    9 1    
    17    8  134 1    
    18    8  135 1    
    19    9   10 ar   
    20    9   14 ar   
    21   10   11 ar   
    22   10  136 1    
    23   11   12 ar   
    24   11  126 1    
    25   12   13 ar   
    26   12  137 1    
    27   13   14 ar   
    28   13   15 1    
    29   14  138 1    
    30   15   16 1    
    31   15  139 1    
    32   15  140 1    
    33   16   17 1    
    34   17   18 1    
    35   17  141 1    
    36   17  142 1    
    37   18   19 1    
    38   18   67 1    
    39   18  143 1    
    40   19   20 am   BACKBONE|DICT|INTERRES
    41   19  144 1    
    42   20   21 2    
    43   20   22 1    
    44   22   23 1    
    45   22   24 1    
    46   22  145 1    
    47   23  146 1    
    48   23  147 1    
    49   23  148 1    
    50   24   25 am   BACKBONE|DICT|INTERRES
    51   24  149 1    
    52   25   26 2    
    53   25   27 1    
    54   27   28 1    
    55   27   29 1    
    56   27  150 1    
    57   28  151 1    
    58   28  152 1    
    59   28  153 1    
    60   29   30 am   BACKBONE|DICT|INTERRES
    61   29  154 1    
    62   30   31 2    
    63   30   32 1    
    64   32   33 1    
    65   32   34 1    
    66   32  155 1    
    67   33  156 1    
    68   33  157 1    
    69   33  158 1    
    70   34   35 am   BACKBONE|DICT|INTERRES
    71   34  159 1    
    72   35   36 2    
    73   35   37 1    
    74   37   38 1    
    75   37   39 1    
    76   37  160 1    
    77   38  161 1    
    78   38  162 1    
    79   38  163 1    
    80   39   40 am   BACKBONE|DICT|INTERRES
    81   39  164 1    
    82   40   41 2    
    83   40   42 1    
    84   42   43 1    
    85   42   44 1    
    86   42  165 1    
    87   43  166 1    
    88   43  167 1    
    89   43  168 1    
    90   44   45 am   BACKBONE|DICT|INTERRES
    91   44  169 1    
    92   45   46 2    
    93   45   47 1    
    94   47   48 1    
    95   47   49 1    
    96   47  170 1    
    97   48  171 1    
    98   48  172 1    
    99   48  173 1    
   100   49   50 am   BACKBONE|DICT|INTERRES
   101   49  174 1    
   102   50   51 2    
   103   50   52 1    
   104   52   53 1    
   105   52   54 1    
   106   52  175 1    
   107   53  176 1    
   108   53  177 1    
   109   53  178 1    
   110   54   55 am   BACKBONE|DICT|INTERRES
   111   54  179 1    
   112   55   56 2    
   113   55   57 1    
   114   57   58 1    
   115   57   59 1    
   116   57  180 1    
   117   58  181 1    
   118   58  182 1    
   119   58  183 1    
   120   59   60 am   BACKBONE|DICT|INTERRES
   121   59  184 1    
   122   60   61 2    
   123   60   62 1    
   124   62   63 1    
   125   62   64 1    
   126   62  185 1    
   127   63  186 1    
   128   63  187 1    
   129   63  188 1    
   130   64   65 am   BACKBONE|DICT|INTERRES
   131   64  189 1    
   132   65   66 2    
   133   67   68 2    
   134   67   69 am   BACKBONE|DICT|INTERRES
   135   69   70 1    
   136   69  190 1    
   137   70   71 1    
   138   70   72 1    
   139   70  191 1    
   140   71  192 1    
   141   71  193 1    
   142   71  194 1    
   143   72   73 2    
   144   72   74 am   BACKBONE|DICT|INTERRES
   145   74   75 1    
   146   74  195 1    
   147   75   76 1    
   148   75   77 1    
   149   75  196 1    
   150   76  197 1    
   151   76  198 1    
   152   76  199 1    
   153   77   78 2    
   154   77   79 am   BACKBONE|DICT|INTERRES
   155   79   80 1    
   156   79  200 1    
   157   80   81 1    
   158   80   82 1    
   159   80  201 1    
   160   81  202 1    
   161   81  203 1    
   162   81  204 1    
   163   82   83 2    
   164   82   84 am   BACKBONE|DICT|INTERRES
   165   84   85 1    
   166   84  205 1    
   167   85   86 1    
   168   85   87 1    
   169   85  206 1    
   170   86  207 1    
   171   86  208 1    
   172   86  209 1    
   173   87   88 2    
   174   87   89 am   BACKBONE|DICT|INTERRES
   175   89   90 1    
   176   89  210 1    
   177   90   91 1    
   178   90   92 1    
   179   90  211 1    
   180   91  212 1    
   181   91  213 1    
   182   91  214 1    
   183   92   93 2    
   184   92   94 am   BACKBONE|DICT|INTERRES
   185   94   95 1    
   186   94  215 1    
   187   95   96 1    
   188   95   97 1    
   189   95  216 1    
   190   96  217 1    
   191   96  218 1    
   192   96  219 1    
   193   97   98 2    
   194   97   99 am   BACKBONE|DICT|INTERRES
   195   99  100 1    
   196   99  220 1    
   197  100  101 1    
   198  100  102 1    
   199  100  221 1    
   200  101  222 1    
   201  101  223 1    
   202  101  224 1    
   203  102  103 2    
   204  102  104 am   BACKBONE|DICT|INTERRES
   205  104  105 1    
   206  104  225 1    
   207  105  106 1    
   208  105  107 1    
   209  105  226 1    
   210  106  227 1    
   211  106  228 1    
   212  106  229 1    
   213  107  108 2    
   214  107  109 am   BACKBONE|DICT|INTERRES
   215  109  110 1    
   216  109  230 1    
   217  110  111 1    
   218  110  112 1    
   219  110  231 1    
   220  111  232 1    
   221  111  233 1    
   222  111  234 1    
   223  112  113 2    
   224  112  114 am   BACKBONE|DICT|INTERRES
   225  114  115 1    
   226  114  235 1    
   227  115  116 1    
   228  115  117 1    
   229  115  236 1    
   230  116  237 1    
   231  116  238 1    
   232  116  239 1    
   233  117  118 2    
   234  117  119 am   BACKBONE|DICT|INTERRES
   235  119  120 1    
   236  119  240 1    
   237  120  121 1    
   238  120  124 1    
   239  120  241 1    
   240  121  122 am   BACKBONE|DICT|INTERRES
   241  121  123 2    
   242  122  242 1    
   243  122  243 1    
   244  124  125 1    
   245  124  244 1    
   246  124  245 1    
   247  125  126 1    
   248  126  246 1    
   249  126  247 1    
@<TRIPOS>SUBSTRUCTURE
     1 UNK         1 GROUP             0       ****    0 ROOT    
