@<TRIPOS>MOLECULE
3R540
247   249    1
SMALL
USER_CHARGES


@<TRIPOS>ATOM
      1 CA         -6.9282  -16.3718  -45.9099 C.3       0 UNK        -0.1800 
      2 C          -5.5216  -15.8228  -46.1003 C.2       0 UNK         0.5000 
      3 O          -4.6536  -16.0612  -45.2628 O.2       0 UNK        -0.5000 
      4 N          -5.3037  -15.0708  -47.1877 N.am      1 UNK        -0.5000 
      5 CA         -4.0444  -14.4504  -47.6368 C.3       1 UNK         0.1400 
      6 C6         -2.9071  -15.4648  -47.9343 C.3       23 UNK        -0.0398 
      7 S7         -3.3573  -16.6043  -49.2882 S.3       23 UNK        -0.2404 
      8 C8         -2.5742  -15.7952  -50.7257 C.3       23 UNK        -0.0205 
      9 C9         -1.2882  -16.4855  -51.1669 C.ar      23 UNK        -0.0193 
     10 C10        -1.1259  -16.8751  -52.5008 C.ar      23 UNK        -0.1150 
     11 C11         0.0470  -17.5110  -52.9186 C.ar      23 UNK        -0.0193 
     12 C12         1.0549  -17.7786  -51.9881 C.ar      23 UNK        -0.1150 
     13 C13         0.9013  -17.4061  -50.6507 C.ar      23 UNK        -0.0193 
     14 C14        -0.2568  -16.7307  -50.2547 C.ar      23 UNK        -0.1150 
     15 C15         1.9792  -17.7477  -49.6330 C.3       23 UNK        -0.0205 
     16 S16         1.6761  -19.3605  -48.8354 S.3       23 UNK        -0.2404 
     17 C17         0.2600  -18.9555  -47.7617 C.3       23 UNK        -0.0398 
     18 CA         -0.1952  -20.1147  -46.8390 C.3       11 UNK         0.1400 
     19 N           0.8450  -20.5506  -45.9091 N.am      11 UNK        -0.5000 
     20 C           1.4662  -21.7357  -45.9246 C.2       10 UNK         0.5000 
     21 O           1.2750  -22.6065  -46.7727 O.2       10 UNK        -0.5000 
     22 CA          2.4370  -22.0043  -44.7608 C.3       10 UNK         0.1400 
     23 CB          3.8093  -21.3709  -45.0392 C.3       10 UNK        -0.1800 
     24 N           1.9101  -21.4732  -43.5045 N.am      10 UNK        -0.5000 
     25 C           0.9753  -22.0642  -42.7505 C.2       9 UNK         0.5000 
     26 O           0.5265  -23.1866  -42.9871 O.2       9 UNK        -0.5000 
     27 CA          0.4202  -21.2492  -41.5614 C.3       9 UNK         0.1400 
     28 CB         -0.0534  -22.1366  -40.3922 C.3       9 UNK        -0.1800 
     29 N           1.3156  -20.1862  -41.0907 N.am      9 UNK        -0.5000 
     30 C           2.5233  -20.3117  -40.5197 C.2       8 UNK         0.5000 
     31 O           3.0604  -21.3947  -40.2852 O.2       8 UNK        -0.5000 
     32 CA          3.2781  -19.0100  -40.1698 C.3       8 UNK         0.1400 
     33 CB          4.4983  -18.8446  -41.0896 C.3       8 UNK        -0.1800 
     34 N           2.4517  -17.8038  -40.2705 N.am      8 UNK        -0.5000 
     35 C           1.5132  -17.4313  -39.3887 C.2       7 UNK         0.5000 
     36 O           1.2912  -18.0256  -38.3336 O.2       7 UNK        -0.5000 
     37 CA          0.6388  -16.2235  -39.7845 C.3       7 UNK         0.1400 
     38 CB          1.3137  -14.9001  -39.3938 C.3       7 UNK        -0.1800 
     39 N           0.3191  -16.2070  -41.2150 N.am      7 UNK        -0.5000 
     40 C          -0.4100  -17.1425  -41.8415 C.2       6 UNK         0.5000 
     41 O          -0.9501  -18.0880  -41.2694 O.2       6 UNK        -0.5000 
     42 CA         -0.4867  -17.0518  -43.3710 C.3       6 UNK         0.1400 
     43 CB         -1.6028  -16.0962  -43.8142 C.3       6 UNK        -0.1800 
     44 N           0.7981  -16.6419  -43.9406 N.am      6 UNK        -0.5000 
     45 C           1.8331  -17.4767  -44.1108 C.2       5 UNK         0.5000 
     46 O           1.7663  -18.6834  -43.8833 O.2       5 UNK        -0.5000 
     47 CA          3.1675  -16.8871  -44.6069 C.3       5 UNK         0.1400 
     48 CB          3.2749  -17.0348  -46.1295 C.3       5 UNK        -0.1800 
     49 N           3.3507  -15.4815  -44.2510 N.am      5 UNK        -0.5000 
     50 C           3.5110  -15.0192  -43.0030 C.2       4 UNK         0.5000 
     51 O           3.5962  -15.7453  -42.0138 O.2       4 UNK        -0.5000 
     52 CA          3.4836  -13.4851  -42.8325 C.3       4 UNK         0.1400 
     53 CB          4.8976  -12.9009  -42.9616 C.3       4 UNK        -0.1800 
     54 N           2.5907  -12.8255  -43.7953 N.am      4 UNK        -0.5000 
     55 C           1.2771  -13.0741  -43.8886 C.2       3 UNK         0.5000 
     56 O           0.6800  -13.8163  -43.1047 O.2       3 UNK        -0.5000 
     57 CA          0.5483  -12.4871  -45.1122 C.3       3 UNK         0.1400 
     58 CB          1.0760  -13.1260  -46.4098 C.3       3 UNK        -0.1800 
     59 N          -0.8888  -12.7406  -45.0467 N.am      3 UNK        -0.5000 
     60 C          -1.7756  -12.0231  -44.3486 C.2       2 UNK         0.5000 
     61 O          -1.4773  -11.0074  -43.7173 O.2       2 UNK        -0.5000 
     62 CA         -3.2352  -12.5356  -44.3409 C.3       2 UNK         0.1400 
     63 CB         -4.2609  -11.3837  -44.3149 C.3       2 UNK        -0.1800 
     64 N          -3.5641  -13.4924  -45.4093 N.am      2 UNK        -0.5000 
     65 C          -3.5557  -13.2925  -46.7353 C.2       1 UNK         0.5000 
     66 O          -3.1945  -12.2403  -47.2628 O.2       1 UNK        -0.5000 
     67 C          -1.4200  -19.7161  -45.9973 C.2       11 UNK         0.5000 
     68 O          -1.8675  -18.5722  -46.0654 O.2       11 UNK        -0.5000 
     69 N          -1.9156  -20.6542  -45.1746 N.am      12 UNK        -0.5000 
     70 CA         -3.0455  -20.4602  -44.2533 C.3       12 UNK         0.1400 
     71 CB         -3.2265  -21.7364  -43.4167 C.3       12 UNK        -0.1800 
     72 C          -4.3732  -20.0814  -44.9461 C.2       12 UNK         0.5000 
     73 O          -5.2369  -19.4665  -44.3205 O.2       12 UNK        -0.5000 
     74 N          -4.4960  -20.4486  -46.2232 N.am      13 UNK        -0.5000 
     75 CA         -5.5226  -20.0344  -47.1646 C.3       13 UNK         0.1400 
     76 CB         -6.7794  -20.9061  -46.9960 C.3       13 UNK        -0.1800 
     77 C          -4.9244  -20.1861  -48.5690 C.2       13 UNK         0.5000 
     78 O          -3.9269  -20.8958  -48.7289 O.2       13 UNK        -0.5000 
     79 N          -5.5484  -19.5423  -49.5621 N.am      14 UNK        -0.5000 
     80 CA         -5.1963  -19.7104  -50.9709 C.3       14 UNK         0.1400 
     81 CB         -5.6882  -18.5042  -51.7884 C.3       14 UNK        -0.1800 
     82 C          -5.7741  -21.0258  -51.5146 C.2       14 UNK         0.5000 
     83 O          -5.0188  -21.8797  -51.9845 O.2       14 UNK        -0.5000 
     84 N          -7.1088  -21.1493  -51.4246 N.am      15 UNK        -0.5000 
     85 CA         -7.9440  -22.2542  -51.9121 C.3       15 UNK         0.1400 
     86 CB         -7.7214  -23.5187  -51.0592 C.3       15 UNK        -0.1800 
     87 C          -7.7534  -22.5079  -53.4216 C.2       15 UNK         0.5000 
     88 O          -7.5247  -23.6440  -53.8340 O.2       15 UNK        -0.5000 
     89 N          -7.7813  -21.4242  -54.2137 N.am      16 UNK        -0.5000 
     90 CA         -7.4850  -21.3916  -55.6550 C.3       16 UNK         0.1400 
     91 CB         -8.5798  -22.1245  -56.4587 C.3       16 UNK        -0.1800 
     92 C          -6.0580  -21.8955  -55.9741 C.2       16 UNK         0.5000 
     93 O          -5.8494  -22.5990  -56.9631 O.2       16 UNK        -0.5000 
     94 N          -5.1174  -21.5371  -55.0878 N.am      17 UNK        -0.5000 
     95 CA         -3.7043  -21.9242  -55.0323 C.3       17 UNK         0.1400 
     96 CB         -2.9616  -21.5694  -56.3374 C.3       17 UNK        -0.1800 
     97 C          -3.4535  -23.3844  -54.6010 C.2       17 UNK         0.5000 
     98 O          -2.2944  -23.7933  -54.5613 O.2       17 UNK        -0.5000 
     99 N          -4.4979  -24.1516  -54.2532 N.am      18 UNK        -0.5000 
    100 CA        -4.3616  -25.5461  -53.8250 C.3       18 UNK         0.1400 
    101 CB        -5.7178  -26.2605  -53.9173 C.3       18 UNK        -0.1800 
    102 C         -3.7775  -25.6885  -52.4078 C.2       18 UNK         0.5000 
    103 O         -3.0681  -26.6616  -52.1500 O.2       18 UNK        -0.5000 
    104 N         -4.0793  -24.7317  -51.5187 N.am      19 UNK        -0.5000 
    105 CA        -3.5979  -24.7282  -50.1362 C.3       19 UNK         0.1400 
    106 CB        -4.6749  -24.1472  -49.2072 C.3       19 UNK        -0.1800 
    107 C         -2.2727  -23.9627  -50.0036 C.2       19 UNK         0.5000 
    108 O         -1.3861  -24.4142  -49.2786 O.2       19 UNK        -0.5000 
    109 N         -2.1486  -22.8370  -50.7194 N.am      20 UNK        -0.5000 
    110 CA        -0.9488  -21.9961  -50.7165 C.3       20 UNK         0.1400 
    111 CB        -1.3301  -20.5768  -51.1565 C.3       20 UNK        -0.1800 
    112 C          0.1989  -22.5484  -51.5852 C.2       20 UNK         0.5000 
    113 O          1.3403  -22.1186  -51.4152 O.2       20 UNK        -0.5000 
    114 N         -0.1173  -23.4668  -52.5106 N.am      21 UNK        -0.5000 
    115 CA         0.7440  -24.1169  -53.5087 C.3       21 UNK         0.1400 
    116 CB         1.9137  -24.8772  -52.8546 C.3       21 UNK        -0.1800 
    117 C          1.2319  -23.1669  -54.6204 C.2       21 UNK         0.5000 
    118 O          1.1060  -23.5019  -55.7987 O.2       21 UNK        -0.5000 
    119 N          1.7597  -22.0013  -54.2281 N.am      22 UNK        -0.5000 
    120 CA         2.1679  -20.8769  -55.0895 C.3       22 UNK         0.1400 
    121 C          3.3663  -21.1703  -56.0447 C.2       22 UNK         0.5000 
    122 N          4.1583  -22.2096  -55.8110 N.am      22 UNK        -0.7600 
    123 O          3.6092  -20.4282  -56.9929 O.2       22 UNK        -0.5000 
    124 C124        0.9628  -20.2142  -55.8176 C.3       23 UNK        -0.0398 
    125 S125       -0.3123  -19.6289  -54.6474 S.3       23 UNK        -0.2404 
    126 C126        0.2310  -17.9155  -54.3713 C.3       23 UNK        -0.0205 
    127 H127       -7.4954  -16.3592  -46.8408 H         1 UNK         0.0600 
    128 H128       -6.8879  -17.4001  -45.5508 H         1 UNK         0.0600 
    129 H129       -7.4643  -15.7762  -45.1712 H         1 UNK         0.0600 
    130 H130       -6.0856  -14.8979  -47.8035 H         1 UNK         0.3000 
    131 H131       -4.2983  -13.9780  -48.5874 H         1 UNK         0.0600 
    132 H132       -2.6770  -16.0626  -47.0519 H         1 UNK         0.0800 
    133 H133       -1.9816  -14.9490  -48.1953 H         1 UNK         0.0800 
    134 H134       -2.3667  -14.7459  -50.5133 H         1 UNK         0.0800 
    135 H135       -3.2993  -15.7976  -51.5408 H         1 UNK         0.0800 
    136 H136       -1.9115  -16.6840  -53.2182 H         1 UNK         0.1150 
    137 H137        1.9506  -18.2963  -52.3016 H         1 UNK         0.1150 
    138 H138       -0.3710  -16.4288  -49.2241 H         1 UNK         0.1150 
    139 H139        2.0446  -16.9633  -48.8794 H         1 UNK         0.0800 
    140 H140        2.9536  -17.7781  -50.1226 H         1 UNK         0.0800 
    141 H141        0.5147  -18.0726  -47.1730 H         1 UNK         0.0800 
    142 H142       -0.5725  -18.6728  -48.4072 H         1 UNK         0.0800 
    143 H143       -0.5132  -20.9455  -47.4719 H         1 UNK         0.0600 
    144 H144        1.0685  -19.9044  -45.1576 H         1 UNK         0.3000 
    145 H145        2.5695  -23.0841  -44.6661 H         1 UNK         0.0600 
    146 H146        4.5137  -21.5908  -44.2368 H         1 UNK         0.0600 
    147 H147        4.2367  -21.7590  -45.9645 H         1 UNK         0.0600 
    148 H148        3.7430  -20.2868  -45.1379 H         1 UNK         0.0600 
    149 H149        2.1494  -20.5109  -43.2902 H         1 UNK         0.3000 
    150 H150       -0.4578  -20.7327  -41.9503 H         1 UNK         0.0600 
    151 H151       -0.8454  -22.8151  -40.7109 H         1 UNK         0.0600 
    152 H152       -0.4547  -21.5328  -39.5781 H         1 UNK         0.0600 
    153 H153        0.7564  -22.7467  -39.9916 H         1 UNK         0.0600 
    154 H154        0.9618  -19.2482  -41.2231 H         1 UNK         0.3000 
    155 H155        3.6334  -19.1021  -39.1415 H         1 UNK         0.0600 
    156 H156        5.1786  -19.6920  -40.9962 H         1 UNK         0.0600 
    157 H157        5.0633  -17.9462  -40.8401 H         1 UNK         0.0600 
    158 H158        4.2030  -18.7759  -42.1367 H         1 UNK         0.0600 
    159 H159        2.6342  -17.1968  -41.0636 H         1 UNK         0.3000 
    160 H160       -0.3015  -16.3001  -39.2346 H         1 UNK         0.0600 
    161 H161        2.2701  -14.7679  -39.8992 H         1 UNK         0.0600 
    162 H162        0.6827  -14.0467  -39.6428 H         1 UNK         0.0600 
    163 H163        1.5036  -14.8631  -38.3205 H         1 UNK         0.0600 
    164 H164        0.6930  -15.4401  -41.7624 H         1 UNK         0.3000 
    165 H165       -0.7326  -18.0466  -43.7424 H         1 UNK         0.0600 
    166 H166       -1.6108  -15.9744  -44.8965 H         1 UNK         0.0600 
    167 H167       -2.5773  -16.4924  -43.5269 H         1 UNK         0.0600 
    168 H168       -1.5098  -15.1111  -43.3600 H         1 UNK         0.0600 
    169 H169        0.9336  -15.6479  -44.0675 H         1 UNK         0.3000 
    170 H170        3.9744  -17.4629  -44.1500 H         1 UNK         0.0600 
    171 H171        3.1551  -18.0760  -46.4320 H         1 UNK         0.0600 
    172 H172        2.5091  -16.4503  -46.6395 H         1 UNK         0.0600 
    173 H173        4.2482  -16.7036  -46.4917 H         1 UNK         0.0600 
    174 H174        3.3036  -14.8133  -45.0053 H         1 UNK         0.3000 
    175 H175        3.1127  -13.2705  -41.8282 H         1 UNK         0.0600 
    176 H176        5.3129  -13.0639  -43.9568 H         1 UNK         0.0600 
    177 H177        4.9002  -11.8282  -42.7674 H         1 UNK         0.0600 
    178 H178        5.5766  -13.3616  -42.2427 H         1 UNK         0.0600 
    179 H179        3.0257  -12.2065  -44.4645 H         1 UNK         0.3000 
    180 H180        0.7284  -11.4106  -45.1427 H         1 UNK         0.0600 
    181 H181        2.1351  -12.9133  -46.5589 H         1 UNK         0.0600 
    182 H182        0.9542  -14.2102  -46.4064 H         1 UNK         0.0600 
    183 H183        0.5484  -12.7359  -47.2807 H         1 UNK         0.0600 
    184 H184       -1.2220  -13.5725  -45.5070 H         1 UNK         0.3000 
    185 H185       -3.3447  -13.0892  -43.4074 H         1 UNK         0.0600 
    186 H186       -4.1703  -10.7416  -45.1915 H         1 UNK         0.0600 
    187 H187       -5.2814  -11.7655  -44.2824 H         1 UNK         0.0600 
    188 H188       -4.1247  -10.7548  -43.4344 H         1 UNK         0.0600 
    189 H189       -3.8822  -14.4098  -45.0998 H         1 UNK         0.3000 
    190 H190       -1.4837  -21.5671  -45.1699 H         1 UNK         0.3000 
    191 H191       -2.7853  -19.6408  -43.5799 H         1 UNK         0.0600 
    192 H192       -4.0251  -21.6125  -42.6840 H         1 UNK         0.0600 
    193 H193       -2.3203  -21.9873  -42.8668 H         1 UNK         0.0600 
    194 H194       -3.4853  -22.5918  -44.0420 H         1 UNK         0.0600 
    195 H195       -3.7251  -20.9289  -46.6716 H         1 UNK         0.3000 
    196 H196       -5.7630  -18.9829  -46.9999 H         1 UNK         0.0600 
    197 H197       -7.5593  -20.6123  -47.6992 H         1 UNK         0.0600 
    198 H198       -7.1956  -20.8110  -45.9930 H         1 UNK         0.0600 
    199 H199       -6.5607  -21.9607  -47.1694 H         1 UNK         0.0600 
    200 H200       -6.3486  -18.9638  -49.3540 H         1 UNK         0.3000 
    201 H201       -4.1115  -19.7513  -51.0700 H         1 UNK         0.0600 
    202 H202       -6.7662  -18.3617  -51.7088 H         1 UNK         0.0600 
    203 H203       -5.4477  -18.6252  -52.8455 H         1 UNK         0.0600 
    204 H204       -5.2092  -17.5843  -51.4551 H         1 UNK         0.0600 
    205 H205       -7.6189  -20.3853  -51.0057 H         1 UNK         0.3000 
    206 H206       -8.9815  -21.9446  -51.7790 H         1 UNK         0.0600 
    207 H207       -6.7346  -23.9467  -51.2252 H         1 UNK         0.0600 
    208 H208       -7.8216  -23.3035  -49.9954 H         1 UNK         0.0600 
    209 H209       -8.4528  -24.2885  -51.3072 H         1 UNK         0.0600 
    210 H210       -7.9717  -20.5294  -53.7847 H         1 UNK         0.3000 
    211 H211       -7.5082  -20.3419  -55.9515 H         1 UNK         0.0600 
    212 H212       -8.5780  -23.1975  -56.2648 H         1 UNK         0.0600 
    213 H213       -8.4349  -21.9871  -57.5308 H         1 UNK         0.0600 
    214 H214       -9.5706  -21.7415  -56.2148 H         1 UNK         0.0600 
    215 H215       -5.4306  -21.0072  -54.2880 H         1 UNK         0.3000 
    216 H216       -3.2678  -21.3126  -54.2413 H         1 UNK         0.0600 
    217 H217       -3.2950  -22.1768  -57.1785 H         1 UNK         0.0600 
    218 H218       -1.8892  -21.7356  -56.2317 H         1 UNK         0.0600 
    219 H219       -3.1010  -20.5206  -56.5990 H         1 UNK         0.0600 
    220 H220       -5.4357  -23.7683  -54.2741 H         1 UNK         0.3000 
    221 H221       -3.6794  -26.0454  -54.5167 H         1 UNK         0.0600 
    222 H222       -6.4187  -25.8950  -53.1663 H         1 UNK         0.0600 
    223 H223       -6.1731  -26.1264  -54.8987 H         1 UNK         0.0600 
    224 H224       -5.6015  -27.3326  -53.7548 H         1 UNK         0.0600 
    225 H225       -4.6227  -23.9300  -51.8197 H         1 UNK         0.3000 
    226 H226       -3.4135  -25.7535  -49.8080 H         1 UNK         0.0600 
    227 H227       -5.5511  -24.7942  -49.1717 H         1 UNK         0.0600 
    228 H228       -4.3033  -24.0477  -48.1865 H         1 UNK         0.0600 
    229 H229       -5.0023  -23.1618  -49.5333 H         1 UNK         0.0600 
    230 H230       -2.9430  -22.5090  -51.2528 H         1 UNK         0.3000 
    231 H231       -0.5659  -21.9333  -49.6959 H         1 UNK         0.0600 
    232 H232       -1.8690  -20.5725  -52.1041 H         1 UNK         0.0600 
    233 H233       -1.9469  -20.0860  -50.4048 H         1 UNK         0.0600 
    234 H234       -0.4420  -19.9598  -51.2812 H         1 UNK         0.0600 
    235 H235       -1.0981  -23.6902  -52.6153 H         1 UNK         0.3000 
    236 H236        0.1122  -24.8632  -53.9926 H         1 UNK         0.0600 
    237 H237        1.5541  -25.5793  -52.1024 H         1 UNK         0.0600 
    238 H238        2.4646  -25.4524  -53.5996 H         1 UNK         0.0600 
    239 H239        2.6254  -24.2059  -52.3739 H         1 UNK         0.0600 
    240 H240        1.8094  -21.8365  -53.2262 H         1 UNK         0.3000 
    241 H241        2.5651  -20.1309  -54.4006 H         1 UNK         0.0600 
    242 H242        4.9382  -22.3893  -56.4239 H         1 UNK         0.3800 
    243 H243        3.9775  -22.8240  -55.0334 H         1 UNK         0.3800 
    244 H244        0.5009  -20.9213  -56.5074 H         1 UNK         0.0800 
    245 H245        1.2858  -19.3711  -56.4302 H         1 UNK         0.0800 
    246 H246        1.2813  -17.7999  -54.6427 H         1 UNK         0.0800 
    247 H247       -0.3298  -17.2499  -55.0291 H         1 UNK         0.0800 
@<TRIPOS>BOND
     1    1    2 1    
     2    1  127 1    
     3    1  128 1    
     4    1  129 1    
     5    2    3 2    
     6    2    4 am   BACKBONE|DICT|INTERRES
     7    4    5 1    
     8    4  130 1    
     9    5    6 1    
    10    5   65 1    
    11    5  131 1    
    12    6    7 1    
    13    6  132 1    
    14    6  133 1    
    15    7    8 1    
    16    8    9 1    
    17    8  134 1    
    18    8  135 1    
    19    9   10 ar   
    20    9   14 ar   
    21   10   11 ar   
    22   10  136 1    
    23   11   12 ar   
    24   11  126 1    
    25   12   13 ar   
    26   12  137 1    
    27   13   14 ar   
    28   13   15 1    
    29   14  138 1    
    30   15   16 1    
    31   15  139 1    
    32   15  140 1    
    33   16   17 1    
    34   17   18 1    
    35   17  141 1    
    36   17  142 1    
    37   18   19 1    
    38   18   67 1    
    39   18  143 1    
    40   19   20 am   BACKBONE|DICT|INTERRES
    41   19  144 1    
    42   20   21 2    
    43   20   22 1    
    44   22   23 1    
    45   22   24 1    
    46   22  145 1    
    47   23  146 1    
    48   23  147 1    
    49   23  148 1    
    50   24   25 am   BACKBONE|DICT|INTERRES
    51   24  149 1    
    52   25   26 2    
    53   25   27 1    
    54   27   28 1    
    55   27   29 1    
    56   27  150 1    
    57   28  151 1    
    58   28  152 1    
    59   28  153 1    
    60   29   30 am   BACKBONE|DICT|INTERRES
    61   29  154 1    
    62   30   31 2    
    63   30   32 1    
    64   32   33 1    
    65   32   34 1    
    66   32  155 1    
    67   33  156 1    
    68   33  157 1    
    69   33  158 1    
    70   34   35 am   BACKBONE|DICT|INTERRES
    71   34  159 1    
    72   35   36 2    
    73   35   37 1    
    74   37   38 1    
    75   37   39 1    
    76   37  160 1    
    77   38  161 1    
    78   38  162 1    
    79   38  163 1    
    80   39   40 am   BACKBONE|DICT|INTERRES
    81   39  164 1    
    82   40   41 2    
    83   40   42 1    
    84   42   43 1    
    85   42   44 1    
    86   42  165 1    
    87   43  166 1    
    88   43  167 1    
    89   43  168 1    
    90   44   45 am   BACKBONE|DICT|INTERRES
    91   44  169 1    
    92   45   46 2    
    93   45   47 1    
    94   47   48 1    
    95   47   49 1    
    96   47  170 1    
    97   48  171 1    
    98   48  172 1    
    99   48  173 1    
   100   49   50 am   BACKBONE|DICT|INTERRES
   101   49  174 1    
   102   50   51 2    
   103   50   52 1    
   104   52   53 1    
   105   52   54 1    
   106   52  175 1    
   107   53  176 1    
   108   53  177 1    
   109   53  178 1    
   110   54   55 am   BACKBONE|DICT|INTERRES
   111   54  179 1    
   112   55   56 2    
   113   55   57 1    
   114   57   58 1    
   115   57   59 1    
   116   57  180 1    
   117   58  181 1    
   118   58  182 1    
   119   58  183 1    
   120   59   60 am   BACKBONE|DICT|INTERRES
   121   59  184 1    
   122   60   61 2    
   123   60   62 1    
   124   62   63 1    
   125   62   64 1    
   126   62  185 1    
   127   63  186 1    
   128   63  187 1    
   129   63  188 1    
   130   64   65 am   BACKBONE|DICT|INTERRES
   131   64  189 1    
   132   65   66 2    
   133   67   68 2    
   134   67   69 am   BACKBONE|DICT|INTERRES
   135   69   70 1    
   136   69  190 1    
   137   70   71 1    
   138   70   72 1    
   139   70  191 1    
   140   71  192 1    
   141   71  193 1    
   142   71  194 1    
   143   72   73 2    
   144   72   74 am   BACKBONE|DICT|INTERRES
   145   74   75 1    
   146   74  195 1    
   147   75   76 1    
   148   75   77 1    
   149   75  196 1    
   150   76  197 1    
   151   76  198 1    
   152   76  199 1    
   153   77   78 2    
   154   77   79 am   BACKBONE|DICT|INTERRES
   155   79   80 1    
   156   79  200 1    
   157   80   81 1    
   158   80   82 1    
   159   80  201 1    
   160   81  202 1    
   161   81  203 1    
   162   81  204 1    
   163   82   83 2    
   164   82   84 am   BACKBONE|DICT|INTERRES
   165   84   85 1    
   166   84  205 1    
   167   85   86 1    
   168   85   87 1    
   169   85  206 1    
   170   86  207 1    
   171   86  208 1    
   172   86  209 1    
   173   87   88 2    
   174   87   89 am   BACKBONE|DICT|INTERRES
   175   89   90 1    
   176   89  210 1    
   177   90   91 1    
   178   90   92 1    
   179   90  211 1    
   180   91  212 1    
   181   91  213 1    
   182   91  214 1    
   183   92   93 2    
   184   92   94 am   BACKBONE|DICT|INTERRES
   185   94   95 1    
   186   94  215 1    
   187   95   96 1    
   188   95   97 1    
   189   95  216 1    
   190   96  217 1    
   191   96  218 1    
   192   96  219 1    
   193   97   98 2    
   194   97   99 am   BACKBONE|DICT|INTERRES
   195   99  100 1    
   196   99  220 1    
   197  100  101 1    
   198  100  102 1    
   199  100  221 1    
   200  101  222 1    
   201  101  223 1    
   202  101  224 1    
   203  102  103 2    
   204  102  104 am   BACKBONE|DICT|INTERRES
   205  104  105 1    
   206  104  225 1    
   207  105  106 1    
   208  105  107 1    
   209  105  226 1    
   210  106  227 1    
   211  106  228 1    
   212  106  229 1    
   213  107  108 2    
   214  107  109 am   BACKBONE|DICT|INTERRES
   215  109  110 1    
   216  109  230 1    
   217  110  111 1    
   218  110  112 1    
   219  110  231 1    
   220  111  232 1    
   221  111  233 1    
   222  111  234 1    
   223  112  113 2    
   224  112  114 am   BACKBONE|DICT|INTERRES
   225  114  115 1    
   226  114  235 1    
   227  115  116 1    
   228  115  117 1    
   229  115  236 1    
   230  116  237 1    
   231  116  238 1    
   232  116  239 1    
   233  117  118 2    
   234  117  119 am   BACKBONE|DICT|INTERRES
   235  119  120 1    
   236  119  240 1    
   237  120  121 1    
   238  120  124 1    
   239  120  241 1    
   240  121  122 am   BACKBONE|DICT|INTERRES
   241  121  123 2    
   242  122  242 1    
   243  122  243 1    
   244  124  125 1    
   245  124  244 1    
   246  124  245 1    
   247  125  126 1    
   248  126  246 1    
   249  126  247 1    
@<TRIPOS>SUBSTRUCTURE
     1 UNK         1 GROUP             0       ****    0 ROOT    
