@<TRIPOS>MOLECULE
3R540
247   249    1
SMALL
USER_CHARGES


@<TRIPOS>ATOM
      1 CA         -1.7906   -9.4946  -43.9866 C.3       0 UNK        -0.1800 
      2 C          -2.2020   -9.9979  -45.3631 C.2       0 UNK         0.5000 
      3 O          -1.7009   -9.5006  -46.3714 O.2       0 UNK        -0.5000 
      4 N          -3.1181  -10.9742  -45.4072 N.am      1 UNK        -0.5000 
      5 CA         -3.5968  -11.6169  -46.6376 C.3       1 UNK         0.1400 
      6 C6         -4.9368  -12.3561  -46.3900 C.3       23 UNK        -0.0398 
      7 S7         -5.8978  -12.6277  -47.9180 S.3       23 UNK        -0.2404 
      8 C8         -6.2776  -14.4083  -47.8218 C.3       23 UNK        -0.0205 
      9 C9         -5.0378  -15.2824  -47.9483 C.ar      23 UNK        -0.0193 
     10 C10        -4.3295  -15.3252  -49.1526 C.ar      23 UNK        -0.1150 
     11 C11        -3.1879  -16.1205  -49.2764 C.ar      23 UNK        -0.0193 
     12 C12        -2.7749  -16.9052  -48.1951 C.ar      23 UNK        -0.1150 
     13 C13        -3.4756  -16.8740  -46.9854 C.ar      23 UNK        -0.0193 
     14 C14        -4.6021  -16.0544  -46.8665 C.ar      23 UNK        -0.1150 
     15 C15        -2.9913  -17.6944  -45.7987 C.3       23 UNK        -0.0205 
     16 S16        -4.1666  -19.0033  -45.3332 S.3       23 UNK        -0.2404 
     17 C17        -3.1603  -19.9681  -44.1533 C.3       23 UNK        -0.0398 
     18 CA         -2.7080  -21.3364  -44.7226 C.3       11 UNK         0.1400 
     19 N          -1.4378  -21.7875  -44.1344 N.am      11 UNK        -0.5000 
     20 C          -0.7394  -22.8637  -44.5278 C.2       10 UNK         0.5000 
     21 O          -1.1621  -23.6624  -45.3639 O.2       10 UNK        -0.5000 
     22 CA          0.6478  -23.1103  -43.8985 C.3       10 UNK         0.1400 
     23 CB          1.7181  -23.3289  -44.9802 C.3       10 UNK        -0.1800 
     24 N           1.0966  -22.0388  -43.0076 N.am      10 UNK        -0.5000 
     25 C           0.7748  -21.9283  -41.7126 C.2       9 UNK         0.5000 
     26 O           0.0316  -22.7138  -41.1240 O.2       9 UNK        -0.5000 
     27 CA          1.3577  -20.7170  -40.9604 C.3       9 UNK         0.1400 
     28 CB          2.8118  -20.9813  -40.5410 C.3       9 UNK        -0.1800 
     29 N           1.2940  -19.4848  -41.7479 N.am      9 UNK        -0.5000 
     30 C           0.1571  -18.8608  -42.0856 C.2       8 UNK         0.5000 
     31 O          -0.9580  -19.2364  -41.7247 O.2       8 UNK        -0.5000 
     32 CA          0.2822  -17.6359  -43.0106 C.3       8 UNK         0.1400 
     33 CB          0.6608  -16.3840  -42.2045 C.3       8 UNK        -0.1800 
     34 N           1.2513  -17.8488  -44.0869 N.am      8 UNK        -0.5000 
     35 C           1.1051  -18.7434  -45.0757 C.2       7 UNK         0.5000 
     36 O           0.1003  -19.4321  -45.2295 O.2       7 UNK        -0.5000 
     37 CA          2.2940  -18.9322  -46.0330 C.3       7 UNK         0.1400 
     38 CB          2.2105  -17.9589  -47.2193 C.3       7 UNK        -0.1800 
     39 N           3.5805  -18.7850  -45.3518 N.am      7 UNK        -0.5000 
     40 C           4.0617  -19.6611  -44.4574 C.2       6 UNK         0.5000 
     41 O           3.4854  -20.7011  -44.1410 O.2       6 UNK        -0.5000 
     42 CA          5.3812  -19.2816  -43.7614 C.3       6 UNK         0.1400 
     43 CB          6.5838  -19.6055  -44.6602 C.3       6 UNK        -0.1800 
     44 N           5.4208  -17.8681  -43.3846 N.am      6 UNK        -0.5000 
     45 C           4.6169  -17.3059  -42.4705 C.2       5 UNK         0.5000 
     46 O           3.8032  -17.9392  -41.7989 O.2       5 UNK        -0.5000 
     47 CA          4.6992  -15.7737  -42.3211 C.3       5 UNK         0.1400 
     48 CB          5.7389  -15.3914  -41.2576 C.3       5 UNK        -0.1800 
     49 N           5.0122  -15.0841  -43.5776 N.am      5 UNK        -0.5000 
     50 C           4.2384  -15.1083  -44.6704 C.2       4 UNK         0.5000 
     51 O           3.1596  -15.7053  -44.7314 O.2       4 UNK        -0.5000 
     52 CA          4.7912  -14.4039  -45.9162 C.3       4 UNK         0.1400 
     53 CB          5.9563  -15.2126  -46.5206 C.3       4 UNK        -0.1800 
     54 N           3.7167  -14.2750  -46.8937 N.am      4 UNK        -0.5000 
     55 C           3.7095  -13.4663  -47.9591 C.2       3 UNK         0.5000 
     56 O           4.6298  -12.6959  -48.2366 O.2       3 UNK        -0.5000 
     57 CA          2.4766  -13.5319  -48.8835 C.3       3 UNK         0.1400 
     58 CB          2.7801  -14.4028  -50.1128 C.3       3 UNK        -0.1800 
     59 N           1.2738  -14.0521  -48.2287 N.am      3 UNK        -0.5000 
     60 C           0.5434  -13.3749  -47.3345 C.2       2 UNK         0.5000 
     61 O           0.8174  -12.2387  -46.9413 O.2       2 UNK        -0.5000 
     62 CA         -0.6688  -14.1239  -46.7536 C.3       2 UNK         0.1400 
     63 CB         -0.2479  -14.9206  -45.5121 C.3       2 UNK        -0.1800 
     64 N          -1.7576  -13.2233  -46.3835 N.am      2 UNK        -0.5000 
     65 C          -2.5232  -12.5456  -47.2507 C.2       1 UNK         0.5000 
     66 O          -2.3965  -12.6132  -48.4743 O.2       1 UNK        -0.5000 
     67 C          -3.8398  -22.3875  -44.6425 C.2       11 UNK         0.5000 
     68 O          -4.7022  -22.4253  -45.5214 O.2       11 UNK        -0.5000 
     69 N          -3.7839  -23.2601  -43.6258 N.am      12 UNK        -0.5000 
     70 CA         -4.6803  -24.4037  -43.4473 C.3       12 UNK         0.1400 
     71 CB         -4.3848  -25.0609  -42.0909 C.3       12 UNK        -0.1800 
     72 C          -4.5925  -25.4465  -44.5815 C.2       12 UNK         0.5000 
     73 O          -5.5852  -26.1217  -44.8557 O.2       12 UNK        -0.5000 
     74 N          -3.4334  -25.5412  -45.2487 N.am      13 UNK        -0.5000 
     75 CA         -3.1961  -26.4051  -46.4040 C.3       13 UNK         0.1400 
     76 CB         -1.7239  -26.8568  -46.4006 C.3       13 UNK        -0.1800 
     77 C          -3.5954  -25.6821  -47.7050 C.2       13 UNK         0.5000 
     78 O          -2.7561  -25.4830  -48.5841 O.2       13 UNK        -0.5000 
     79 N          -4.8709  -25.2748  -47.7863 N.am      14 UNK        -0.5000 
     80 CA         -5.5204  -24.6017  -48.9180 C.3       14 UNK         0.1400 
     81 CB         -5.7259  -25.5978  -50.0785 C.3       14 UNK        -0.1800 
     82 C          -4.7822  -23.3205  -49.3582 C.2       14 UNK         0.5000 
     83 O          -4.3962  -23.1993  -50.5203 O.2       14 UNK        -0.5000 
     84 N          -4.5592  -22.4113  -48.3984 N.am      15 UNK        -0.5000 
     85 CA         -3.8230  -21.1500  -48.5422 C.3       15 UNK         0.1400 
     86 CB         -4.5572  -20.1800  -49.4876 C.3       15 UNK        -0.1800 
     87 C          -2.3386  -21.3577  -48.9110 C.2       15 UNK         0.5000 
     88 O          -1.7715  -20.5561  -49.6516 O.2       15 UNK        -0.5000 
     89 N          -1.7443  -22.4387  -48.3802 N.am      16 UNK        -0.5000 
     90 CA         -0.3868  -22.9259  -48.6486 C.3       16 UNK         0.1400 
     91 CB          0.6681  -21.8937  -48.1972 C.3       16 UNK        -0.1800 
     92 C          -0.2145  -23.3773  -50.1157 C.2       16 UNK         0.5000 
     93 O           0.8111  -23.0939  -50.7390 O.2       16 UNK        -0.5000 
     94 N          -1.2418  -24.0643  -50.6373 N.am      17 UNK        -0.5000 
     95 CA         -1.4573  -24.5364  -52.0098 C.3       17 UNK         0.1400 
     96 CB         -0.3848  -25.5561  -52.4379 C.3       17 UNK        -0.1800 
     97 C          -1.6085  -23.3977  -53.0365 C.2       17 UNK         0.5000 
     98 O          -2.6471  -23.3131  -53.6926 O.2       17 UNK        -0.5000 
     99 N          -0.5719  -22.5534  -53.1459 N.am      18 UNK        -0.5000 
    100 CA        -0.4915  -21.2801  -53.8711 C.3       18 UNK         0.1400 
    101 CB        -1.1037  -20.1719  -53.0013 C.3       18 UNK        -0.1800 
    102 C         -1.0720  -21.3011  -55.3004 C.2       18 UNK         0.5000 
    103 O         -1.8297  -20.4012  -55.6736 O.2       18 UNK        -0.5000 
    104 N         -0.7333  -22.3591  -56.0523 N.am      19 UNK        -0.5000 
    105 CA        -1.1563  -22.7071  -57.4173 C.3       19 UNK         0.1400 
    106 CB        -0.6979  -21.6434  -58.4332 C.3       19 UNK        -0.1800 
    107 C         -2.6623  -23.0083  -57.5715 C.2       19 UNK         0.5000 
    108 O         -3.0187  -24.0256  -58.1674 O.2       19 UNK        -0.5000 
    109 N         -3.5114  -22.1296  -57.0350 N.am      20 UNK        -0.5000 
    110 CA        -4.9677  -22.2032  -57.0547 C.3       20 UNK         0.1400 
    111 CB        -5.5038  -21.6073  -58.3712 C.3       20 UNK        -0.1800 
    112 C         -5.5401  -21.5211  -55.7994 C.2       20 UNK         0.5000 
    113 O         -6.4951  -20.7476  -55.8980 O.2       20 UNK        -0.5000 
    114 N         -4.9251  -21.7991  -54.6392 N.am      21 UNK        -0.5000 
    115 CA        -5.3123  -21.3517  -53.2959 C.3       21 UNK         0.1400 
    116 CB        -6.5714  -22.1107  -52.8287 C.3       21 UNK        -0.1800 
    117 C         -5.4484  -19.8207  -53.1592 C.2       21 UNK         0.5000 
    118 O         -6.3756  -19.3394  -52.5054 O.2       21 UNK        -0.5000 
    119 N         -4.5307  -19.0878  -53.8043 N.am      22 UNK        -0.5000 
    120 CA        -4.4909  -17.6151  -53.8717 C.3       22 UNK         0.1400 
    121 C         -5.6514  -16.9735  -54.6961 C.2       22 UNK         0.5000 
    122 N         -6.4391  -17.7307  -55.4527 N.am      22 UNK        -0.7600 
    123 O         -5.8226  -15.7573  -54.6835 O.2       22 UNK        -0.5000 
    124 C124       -4.2980  -16.9359  -52.4811 C.3       23 UNK        -0.0398 
    125 S125       -2.7773  -17.5002  -51.6452 S.3       23 UNK        -0.2404 
    126 C126       -2.3737  -16.1003  -50.5602 C.3       23 UNK        -0.0205 
    127 H127       -0.7217   -9.6466  -43.8367 H         1 UNK         0.0600 
    128 H128       -2.3228  -10.0129  -43.1885 H         1 UNK         0.0600 
    129 H129       -2.0003   -8.4286  -43.8983 H         1 UNK         0.0600 
    130 H130       -3.5054  -11.3253  -44.5427 H         1 UNK         0.3000 
    131 H131       -3.7843  -10.8199  -47.3610 H         1 UNK         0.0600 
    132 H132       -4.7752  -13.2966  -45.8610 H         1 UNK         0.0800 
    133 H133       -5.5718  -11.7573  -45.7356 H         1 UNK         0.0800 
    134 H134       -6.9702  -14.6625  -48.6254 H         1 UNK         0.0800 
    135 H135       -6.8062  -14.6126  -46.8893 H         1 UNK         0.0800 
    136 H136       -4.6544  -14.7173  -49.9852 H         1 UNK         0.1150 
    137 H137       -1.8964  -17.5277  -48.2946 H         1 UNK         0.1150 
    138 H138       -5.1414  -16.0254  -45.9301 H         1 UNK         0.1150 
    139 H139       -2.0250  -18.1453  -46.0261 H         1 UNK         0.0800 
    140 H140       -2.8377  -17.0367  -44.9429 H         1 UNK         0.0800 
    141 H141       -3.7087  -20.0843  -43.2168 H         1 UNK         0.0800 
    142 H142       -2.2883  -19.3663  -43.9061 H         1 UNK         0.0800 
    143 H143       -2.4803  -21.1974  -45.7797 H         1 UNK         0.0600 
    144 H144       -1.0082  -21.1664  -43.4635 H         1 UNK         0.3000 
    145 H145        0.5671  -24.0361  -43.3254 H         1 UNK         0.0600 
    146 H146        2.6708  -23.6155  -44.5347 H         1 UNK         0.0600 
    147 H147        1.4336  -24.1224  -45.6725 H         1 UNK         0.0600 
    148 H148        1.8868  -22.4244  -45.5634 H         1 UNK         0.0600 
    149 H149        1.7511  -21.3716  -43.4056 H         1 UNK         0.3000 
    150 H150        0.7656  -20.5704  -40.0547 H         1 UNK         0.0600 
    151 H151        2.8857  -21.8847  -39.9343 H         1 UNK         0.0600 
    152 H152        3.2056  -20.1565  -39.9468 H         1 UNK         0.0600 
    153 H153        3.4647  -21.1104  -41.4047 H         1 UNK         0.0600 
    154 H154        2.1791  -19.0749  -42.0294 H         1 UNK         0.3000 
    155 H155       -0.6912  -17.4594  -43.4717 H         1 UNK         0.0600 
    156 H156       -0.1325  -16.1228  -41.5033 H         1 UNK         0.0600 
    157 H157        0.8216  -15.5226  -42.8509 H         1 UNK         0.0600 
    158 H158        1.5691  -16.5349  -41.6227 H         1 UNK         0.0600 
    159 H159        2.0828  -17.2679  -44.0799 H         1 UNK         0.3000 
    160 H160        2.2381  -19.9479  -46.4293 H         1 UNK         0.0600 
    161 H161        2.2776  -16.9204  -46.9003 H         1 UNK         0.0600 
    162 H162        1.2662  -18.0781  -47.7526 H         1 UNK         0.0600 
    163 H163        3.0121  -18.1414  -47.9350 H         1 UNK         0.0600 
    164 H164        4.0847  -17.9266  -45.5131 H         1 UNK         0.3000 
    165 H165        5.4626  -19.8796  -42.8511 H         1 UNK         0.0600 
    166 H166        7.5244  -19.4104  -44.1447 H         1 UNK         0.0600 
    167 H167        6.5837  -20.6580  -44.9466 H         1 UNK         0.0600 
    168 H168        6.5748  -19.0153  -45.5775 H         1 UNK         0.0600 
    169 H169        6.0687  -17.2778  -43.8843 H         1 UNK         0.3000 
    170 H170        3.7221  -15.4226  -41.9839 H         1 UNK         0.0600 
    171 H171        5.5174  -15.8736  -40.3045 H         1 UNK         0.0600 
    172 H172        6.7456  -15.6913  -41.5513 H         1 UNK         0.0600 
    173 H173        5.7461  -14.3156  -41.0816 H         1 UNK         0.0600 
    174 H174        5.8850  -14.5766  -43.6054 H         1 UNK         0.3000 
    175 H175        5.1357  -13.4092  -45.6263 H         1 UNK         0.0600 
    176 H176        5.6356  -16.2086  -46.8288 H         1 UNK         0.0600 
    177 H177        6.3759  -14.7144  -47.3945 H         1 UNK         0.0600 
    178 H178        6.7697  -15.3348  -45.8047 H         1 UNK         0.0600 
    179 H179        2.9023  -14.8370  -46.6852 H         1 UNK         0.3000 
    180 H180        2.2696  -12.5162  -49.2275 H         1 UNK         0.0600 
    181 H181        2.9841  -15.4372  -49.8329 H         1 UNK         0.0600 
    182 H182        3.6534  -14.0303  -50.6501 H         1 UNK         0.0600 
    183 H183        1.9451  -14.4018  -50.8139 H         1 UNK         0.0600 
    184 H184        0.9863  -14.9812  -48.4982 H         1 UNK         0.3000 
    185 H185       -1.0457  -14.8173  -47.5067 H         1 UNK         0.0600 
    186 H186        0.5049  -15.6666  -45.7638 H         1 UNK         0.0600 
    187 H187        0.1789  -14.2695  -44.7485 H         1 UNK         0.0600 
    188 H188       -1.0920  -15.4474  -45.0703 H         1 UNK         0.0600 
    189 H189       -1.8872  -13.0563  -45.3975 H         1 UNK         0.3000 
    190 H190       -3.0318  -23.1660  -42.9586 H         1 UNK         0.3000 
    191 H191       -5.7042  -24.0247  -43.4299 H         1 UNK         0.0600 
    192 H192       -4.5261  -24.3562  -41.2712 H         1 UNK         0.0600 
    193 H193       -5.0530  -25.9043  -41.9112 H         1 UNK         0.0600 
    194 H194       -3.3617  -25.4357  -42.0402 H         1 UNK         0.0600 
    195 H195       -2.6827  -24.8945  -45.0273 H         1 UNK         0.3000 
    196 H196       -3.8139  -27.3021  -46.3260 H         1 UNK         0.0600 
    197 H197       -1.5302  -27.5556  -47.2152 H         1 UNK         0.0600 
    198 H198       -1.4694  -27.3643  -45.4701 H         1 UNK         0.0600 
    199 H199       -1.0390  -26.0175  -46.5220 H         1 UNK         0.0600 
    200 H200       -5.4631  -25.4598  -46.9856 H         1 UNK         0.3000 
    201 H201       -6.5063  -24.2873  -48.5729 H         1 UNK         0.0600 
    202 H202       -6.2933  -26.4699  -49.7538 H         1 UNK         0.0600 
    203 H203       -4.7762  -25.9480  -50.4847 H         1 UNK         0.0600 
    204 H204       -6.2805  -25.1358  -50.8962 H         1 UNK         0.0600 
    205 H205       -4.8691  -22.6128  -47.4510 H         1 UNK         0.3000 
    206 H206       -3.8269  -20.6890  -47.5589 H         1 UNK         0.0600 
    207 H207       -5.6111  -20.0863  -49.2267 H         1 UNK         0.0600 
    208 H208       -4.1213  -19.1824  -49.4360 H         1 UNK         0.0600 
    209 H209       -4.4913  -20.5077  -50.5226 H         1 UNK         0.0600 
    210 H210       -2.3053  -23.0489  -47.8029 H         1 UNK         0.3000 
    211 H211       -0.2596  -23.8182  -48.0341 H         1 UNK         0.0600 
    212 H212        0.4506  -21.5271  -47.1946 H         1 UNK         0.0600 
    213 H213        0.7071  -21.0307  -48.8625 H         1 UNK         0.0600 
    214 H214        1.6639  -22.3371  -48.1801 H         1 UNK         0.0600 
    215 H215       -2.0138  -24.2657  -50.0087 H         1 UNK         0.3000 
    216 H216       -2.4135  -25.0618  -51.9851 H         1 UNK         0.0600 
    217 H217       -0.6052  -25.9567  -53.4280 H         1 UNK         0.0600 
    218 H218       -0.3487  -26.3986  -51.7473 H         1 UNK         0.0600 
    219 H219        0.6116  -25.1161  -52.4799 H         1 UNK         0.0600 
    220 H220        0.1992  -22.7314  -52.5073 H         1 UNK         0.3000 
    221 H221        0.5700  -21.0568  -53.9850 H         1 UNK         0.0600 
    222 H222       -2.1539  -20.3667  -52.7833 H         1 UNK         0.0600 
    223 H223       -0.5799  -20.0887  -52.0491 H         1 UNK         0.0600 
    224 H224       -1.0363  -19.1985  -53.4883 H         1 UNK         0.0600 
    225 H225       -0.1473  -23.0521  -55.6080 H         1 UNK         0.3000 
    226 H226       -0.6299  -23.6320  -57.6583 H         1 UNK         0.0600 
    227 H227        0.3795  -21.4869  -58.3803 H         1 UNK         0.0600 
    228 H228       -0.9315  -21.9541  -59.4522 H         1 UNK         0.0600 
    229 H229       -1.1847  -20.6819  -58.2681 H         1 UNK         0.0600 
    230 H230       -3.1039  -21.3364  -56.5423 H         1 UNK         0.3000 
    231 H231       -5.2732  -23.2500  -57.0003 H         1 UNK         0.0600 
    232 H232       -5.2346  -20.5552  -58.4715 H         1 UNK         0.0600 
    233 H233       -6.5911  -21.6773  -58.4204 H         1 UNK         0.0600 
    234 H234       -5.1076  -22.1384  -59.2367 H         1 UNK         0.0600 
    235 H235       -4.1215  -22.4222  -54.6487 H         1 UNK         0.3000 
    236 H236       -4.4913  -21.6355  -52.6380 H         1 UNK         0.0600 
    237 H237       -6.4229  -23.1889  -52.8887 H         1 UNK         0.0600 
    238 H238       -6.8043  -21.8777  -51.7889 H         1 UNK         0.0600 
    239 H239       -7.4444  -21.8546  -53.4296 H         1 UNK         0.0600 
    240 H240       -3.8151  -19.5679  -54.3326 H         1 UNK         0.3000 
    241 H241       -3.5991  -17.3899  -54.4575 H         1 UNK         0.0600 
    242 H242       -7.1737  -17.2950  -55.9871 H         1 UNK         0.3800 
    243 H243       -6.3362  -18.7393  -55.4787 H         1 UNK         0.3800 
    244 H244       -4.2369  -15.8530  -52.5965 H         1 UNK         0.0800 
    245 H245       -5.1502  -17.1228  -51.8269 H         1 UNK         0.0800 
    246 H246       -1.3127  -16.1513  -50.3119 H         1 UNK         0.0800 
    247 H247       -2.5108  -15.1577  -51.0922 H         1 UNK         0.0800 
@<TRIPOS>BOND
     1    1    2 1    
     2    1  127 1    
     3    1  128 1    
     4    1  129 1    
     5    2    3 2    
     6    2    4 am   BACKBONE|DICT|INTERRES
     7    4    5 1    
     8    4  130 1    
     9    5    6 1    
    10    5   65 1    
    11    5  131 1    
    12    6    7 1    
    13    6  132 1    
    14    6  133 1    
    15    7    8 1    
    16    8    9 1    
    17    8  134 1    
    18    8  135 1    
    19    9   10 ar   
    20    9   14 ar   
    21   10   11 ar   
    22   10  136 1    
    23   11   12 ar   
    24   11  126 1    
    25   12   13 ar   
    26   12  137 1    
    27   13   14 ar   
    28   13   15 1    
    29   14  138 1    
    30   15   16 1    
    31   15  139 1    
    32   15  140 1    
    33   16   17 1    
    34   17   18 1    
    35   17  141 1    
    36   17  142 1    
    37   18   19 1    
    38   18   67 1    
    39   18  143 1    
    40   19   20 am   BACKBONE|DICT|INTERRES
    41   19  144 1    
    42   20   21 2    
    43   20   22 1    
    44   22   23 1    
    45   22   24 1    
    46   22  145 1    
    47   23  146 1    
    48   23  147 1    
    49   23  148 1    
    50   24   25 am   BACKBONE|DICT|INTERRES
    51   24  149 1    
    52   25   26 2    
    53   25   27 1    
    54   27   28 1    
    55   27   29 1    
    56   27  150 1    
    57   28  151 1    
    58   28  152 1    
    59   28  153 1    
    60   29   30 am   BACKBONE|DICT|INTERRES
    61   29  154 1    
    62   30   31 2    
    63   30   32 1    
    64   32   33 1    
    65   32   34 1    
    66   32  155 1    
    67   33  156 1    
    68   33  157 1    
    69   33  158 1    
    70   34   35 am   BACKBONE|DICT|INTERRES
    71   34  159 1    
    72   35   36 2    
    73   35   37 1    
    74   37   38 1    
    75   37   39 1    
    76   37  160 1    
    77   38  161 1    
    78   38  162 1    
    79   38  163 1    
    80   39   40 am   BACKBONE|DICT|INTERRES
    81   39  164 1    
    82   40   41 2    
    83   40   42 1    
    84   42   43 1    
    85   42   44 1    
    86   42  165 1    
    87   43  166 1    
    88   43  167 1    
    89   43  168 1    
    90   44   45 am   BACKBONE|DICT|INTERRES
    91   44  169 1    
    92   45   46 2    
    93   45   47 1    
    94   47   48 1    
    95   47   49 1    
    96   47  170 1    
    97   48  171 1    
    98   48  172 1    
    99   48  173 1    
   100   49   50 am   BACKBONE|DICT|INTERRES
   101   49  174 1    
   102   50   51 2    
   103   50   52 1    
   104   52   53 1    
   105   52   54 1    
   106   52  175 1    
   107   53  176 1    
   108   53  177 1    
   109   53  178 1    
   110   54   55 am   BACKBONE|DICT|INTERRES
   111   54  179 1    
   112   55   56 2    
   113   55   57 1    
   114   57   58 1    
   115   57   59 1    
   116   57  180 1    
   117   58  181 1    
   118   58  182 1    
   119   58  183 1    
   120   59   60 am   BACKBONE|DICT|INTERRES
   121   59  184 1    
   122   60   61 2    
   123   60   62 1    
   124   62   63 1    
   125   62   64 1    
   126   62  185 1    
   127   63  186 1    
   128   63  187 1    
   129   63  188 1    
   130   64   65 am   BACKBONE|DICT|INTERRES
   131   64  189 1    
   132   65   66 2    
   133   67   68 2    
   134   67   69 am   BACKBONE|DICT|INTERRES
   135   69   70 1    
   136   69  190 1    
   137   70   71 1    
   138   70   72 1    
   139   70  191 1    
   140   71  192 1    
   141   71  193 1    
   142   71  194 1    
   143   72   73 2    
   144   72   74 am   BACKBONE|DICT|INTERRES
   145   74   75 1    
   146   74  195 1    
   147   75   76 1    
   148   75   77 1    
   149   75  196 1    
   150   76  197 1    
   151   76  198 1    
   152   76  199 1    
   153   77   78 2    
   154   77   79 am   BACKBONE|DICT|INTERRES
   155   79   80 1    
   156   79  200 1    
   157   80   81 1    
   158   80   82 1    
   159   80  201 1    
   160   81  202 1    
   161   81  203 1    
   162   81  204 1    
   163   82   83 2    
   164   82   84 am   BACKBONE|DICT|INTERRES
   165   84   85 1    
   166   84  205 1    
   167   85   86 1    
   168   85   87 1    
   169   85  206 1    
   170   86  207 1    
   171   86  208 1    
   172   86  209 1    
   173   87   88 2    
   174   87   89 am   BACKBONE|DICT|INTERRES
   175   89   90 1    
   176   89  210 1    
   177   90   91 1    
   178   90   92 1    
   179   90  211 1    
   180   91  212 1    
   181   91  213 1    
   182   91  214 1    
   183   92   93 2    
   184   92   94 am   BACKBONE|DICT|INTERRES
   185   94   95 1    
   186   94  215 1    
   187   95   96 1    
   188   95   97 1    
   189   95  216 1    
   190   96  217 1    
   191   96  218 1    
   192   96  219 1    
   193   97   98 2    
   194   97   99 am   BACKBONE|DICT|INTERRES
   195   99  100 1    
   196   99  220 1    
   197  100  101 1    
   198  100  102 1    
   199  100  221 1    
   200  101  222 1    
   201  101  223 1    
   202  101  224 1    
   203  102  103 2    
   204  102  104 am   BACKBONE|DICT|INTERRES
   205  104  105 1    
   206  104  225 1    
   207  105  106 1    
   208  105  107 1    
   209  105  226 1    
   210  106  227 1    
   211  106  228 1    
   212  106  229 1    
   213  107  108 2    
   214  107  109 am   BACKBONE|DICT|INTERRES
   215  109  110 1    
   216  109  230 1    
   217  110  111 1    
   218  110  112 1    
   219  110  231 1    
   220  111  232 1    
   221  111  233 1    
   222  111  234 1    
   223  112  113 2    
   224  112  114 am   BACKBONE|DICT|INTERRES
   225  114  115 1    
   226  114  235 1    
   227  115  116 1    
   228  115  117 1    
   229  115  236 1    
   230  116  237 1    
   231  116  238 1    
   232  116  239 1    
   233  117  118 2    
   234  117  119 am   BACKBONE|DICT|INTERRES
   235  119  120 1    
   236  119  240 1    
   237  120  121 1    
   238  120  124 1    
   239  120  241 1    
   240  121  122 am   BACKBONE|DICT|INTERRES
   241  121  123 2    
   242  122  242 1    
   243  122  243 1    
   244  124  125 1    
   245  124  244 1    
   246  124  245 1    
   247  125  126 1    
   248  126  246 1    
   249  126  247 1    
@<TRIPOS>SUBSTRUCTURE
     1 UNK         1 GROUP             0       ****    0 ROOT    
