@<TRIPOS>MOLECULE
3R540
247   249    1
SMALL
USER_CHARGES


@<TRIPOS>ATOM
      1 CA          3.0221  -16.0493  -46.1587 C.3       0 UNK        -0.1800 
      2 C           2.2591  -14.9694  -45.4036 C.2       0 UNK         0.5000 
      3 O           2.5056  -14.7590  -44.2181 O.2       0 UNK        -0.5000 
      4 N           1.3310  -14.2961  -46.0923 N.am      1 UNK        -0.5000 
      5 CA          0.5367  -13.1630  -45.5936 C.3       1 UNK         0.1400 
      6 C6         -0.9767  -13.3072  -45.9272 C.3       23 UNK        -0.0398 
      7 S7         -1.3344  -13.9334  -47.6111 S.3       23 UNK        -0.2404 
      8 C8         -1.8411  -15.6415  -47.2253 C.3       23 UNK        -0.0205 
      9 C9         -1.4775  -16.6141  -48.3338 C.ar      23 UNK        -0.0193 
     10 C10        -2.4701  -17.2159  -49.1113 C.ar      23 UNK        -0.1150 
     11 C11        -2.1300  -18.1464  -50.0982 C.ar      23 UNK        -0.0193 
     12 C12        -0.7850  -18.4696  -50.3062 C.ar      23 UNK        -0.1150 
     13 C13         0.2166  -17.8593  -49.5466 C.ar      23 UNK        -0.0193 
     14 C14        -0.1382  -16.9414  -48.5561 C.ar      23 UNK        -0.1150 
     15 C15         1.6847  -18.1742  -49.7973 C.3       23 UNK        -0.0205 
     16 S16         2.1209  -19.8997  -49.4187 S.3       23 UNK        -0.2404 
     17 C17         1.6413  -20.0511  -47.6633 C.3       23 UNK        -0.0398 
     18 CA          1.0204  -21.4303  -47.3479 C.3       11 UNK         0.1400 
     19 N           1.0144  -21.6992  -45.9108 N.am      11 UNK        -0.5000 
     20 C           0.8107  -22.9040  -45.3639 C.2       10 UNK         0.5000 
     21 O           0.6146  -23.9271  -46.0187 O.2       10 UNK        -0.5000 
     22 CA          0.7799  -22.9671  -43.8270 C.3       10 UNK         0.1400 
     23 CB          2.2008  -22.9291  -43.2444 C.3       10 UNK        -0.1800 
     24 N          -0.0188  -21.8899  -43.2430 N.am      10 UNK        -0.5000 
     25 C          -1.3414  -21.7526  -43.4115 C.2       9 UNK         0.5000 
     26 O          -2.0357  -22.5298  -44.0651 O.2       9 UNK        -0.5000 
     27 CA         -1.9891  -20.5129  -42.7757 C.3       9 UNK         0.1400 
     28 CB         -2.2565  -20.7411  -41.2805 C.3       9 UNK        -0.1800 
     29 N          -1.1718  -19.3135  -42.9470 N.am      9 UNK        -0.5000 
     30 C          -0.9406  -18.7188  -44.1255 C.2       8 UNK         0.5000 
     31 O          -1.3752  -19.1243  -45.2022 O.2       8 UNK        -0.5000 
     32 CA         -0.0314  -17.4811  -44.0931 C.3       8 UNK         0.1400 
     33 CB         -0.7815  -16.2850  -43.4837 C.3       8 UNK        -0.1800 
     34 N           1.1979  -17.6938  -43.3343 N.am      8 UNK        -0.5000 
     35 C           2.0948  -18.6727  -43.5196 C.2       7 UNK         0.5000 
     36 O           2.0275  -19.5053  -44.4222 O.2       7 UNK        -0.5000 
     37 CA          3.2406  -18.7534  -42.4933 C.3       7 UNK         0.1400 
     38 CB          4.4796  -18.0175  -43.0236 C.3       7 UNK        -0.1800 
     39 N           2.8730  -18.1932  -41.1904 N.am      7 UNK        -0.5000 
     40 C           1.8967  -18.6439  -40.3918 C.2       6 UNK         0.5000 
     41 O           1.2433  -19.6621  -40.6244 O.2       6 UNK        -0.5000 
     42 CA          1.5283  -17.7634  -39.1823 C.3       6 UNK         0.1400 
     43 CB          2.5251  -17.9475  -38.0220 C.3       6 UNK        -0.1800 
     44 N           1.3312  -16.3435  -39.5251 N.am      6 UNK        -0.5000 
     45 C           2.2414  -15.4353  -39.9072 C.2       5 UNK         0.5000 
     46 O           3.4483  -15.6725  -40.0162 O.2       5 UNK        -0.5000 
     47 CA          1.7054  -14.0354  -40.2457 C.3       5 UNK         0.1400 
     48 CB          1.1847  -13.3094  -38.9924 C.3       5 UNK        -0.1800 
     49 N           2.7780  -13.2514  -40.8487 N.am      5 UNK        -0.5000 
     50 C           2.6290  -12.3155  -41.7891 C.2       4 UNK         0.5000 
     51 O           1.5365  -11.9673  -42.2473 O.2       4 UNK        -0.5000 
     52 CA          3.9204  -11.6440  -42.2844 C.3       4 UNK         0.1400 
     53 CB          4.8520  -12.6307  -43.0148 C.3       4 UNK        -0.1800 
     54 N           3.5750  -10.5473  -43.1802 N.am      4 UNK        -0.5000 
     55 C           4.3295   -9.4761  -43.4443 C.2       3 UNK         0.5000 
     56 O           5.4248   -9.2654  -42.9193 O.2       3 UNK        -0.5000 
     57 CA          3.7525   -8.4907  -44.4838 C.3       3 UNK         0.1400 
     58 CB          4.7788   -7.4448  -44.9686 C.3       3 UNK        -0.1800 
     59 N           3.1279   -9.1806  -45.6205 N.am      3 UNK        -0.5000 
     60 C           3.7187  -10.0129  -46.4906 C.2       2 UNK         0.5000 
     61 O           4.9179  -10.2964  -46.4751 O.2       2 UNK        -0.5000 
     62 CA          2.7876  -10.6706  -47.5276 C.3       2 UNK         0.1400 
     63 CB          3.5394  -11.1034  -48.7988 C.3       2 UNK        -0.1800 
     64 N           2.1160  -11.8395  -46.9614 N.am      2 UNK        -0.5000 
     65 C           1.1016  -11.8106  -46.0847 C.2       1 UNK         0.5000 
     66 O           0.6130  -10.7622  -45.6600 O.2       1 UNK        -0.5000 
     67 C          -0.3775  -21.6235  -47.9763 C.2       11 UNK         0.5000 
     68 O          -0.4791  -22.2362  -49.0397 O.2       11 UNK        -0.5000 
     69 N          -1.4369  -21.1695  -47.2892 N.am      12 UNK        -0.5000 
     70 CA         -2.8245  -21.3976  -47.6965 C.3       12 UNK         0.1400 
     71 CB         -3.7759  -20.5830  -46.8099 C.3       12 UNK        -0.1800 
     72 C          -3.2071  -22.8894  -47.6909 C.2       12 UNK         0.5000 
     73 O          -3.8703  -23.3426  -48.6238 O.2       12 UNK        -0.5000 
     74 N          -2.7512  -23.6361  -46.6744 N.am      13 UNK        -0.5000 
     75 CA         -2.9162  -25.0874  -46.5759 C.3       13 UNK         0.1400 
     76 CB         -2.4884  -25.5732  -45.1834 C.3       13 UNK        -0.1800 
     77 C          -2.1586  -25.8459  -47.6806 C.2       13 UNK         0.5000 
     78 O          -2.7219  -26.7678  -48.2703 O.2       13 UNK        -0.5000 
     79 N          -0.9238  -25.4186  -47.9836 N.am      14 UNK        -0.5000 
     80 CA         -0.1056  -25.9441  -49.0822 C.3       14 UNK         0.1400 
     81 CB          1.3087  -25.3502  -49.0038 C.3       14 UNK        -0.1800 
     82 C          -0.7291  -25.6937  -50.4701 C.2       14 UNK         0.5000 
     83 O          -0.6177  -26.5467  -51.3508 O.2       14 UNK        -0.5000 
     84 N          -1.4204  -24.5561  -50.6196 N.am      15 UNK        -0.5000 
     85 CA         -2.2244  -24.1945  -51.7886 C.3       15 UNK         0.1400 
     86 CB         -2.3511  -22.6635  -51.8440 C.3       15 UNK        -0.1800 
     87 C          -3.6186  -24.8618  -51.8125 C.2       15 UNK         0.5000 
     88 O          -4.4128  -24.5461  -52.6999 O.2       15 UNK        -0.5000 
     89 N          -3.9111  -25.7399  -50.8397 N.am      16 UNK        -0.5000 
     90 CA         -5.1567  -26.4921  -50.6577 C.3       16 UNK         0.1400 
     91 CB         -5.3245  -27.5407  -51.7763 C.3       16 UNK        -0.1800 
     92 C          -6.3848  -25.5769  -50.4771 C.2       16 UNK         0.5000 
     93 O          -7.4248  -25.8009  -51.0981 O.2       16 UNK        -0.5000 
     94 N          -6.2176  -24.5468  -49.6339 N.am      17 UNK        -0.5000 
     95 CA         -7.1635  -23.4634  -49.3489 C.3       17 UNK         0.1400 
     96 CB         -8.4612  -23.9978  -48.7066 C.3       17 UNK        -0.1800 
     97 C          -7.4050  -22.5687  -50.5816 C.2       17 UNK         0.5000 
     98 O          -8.5322  -22.1305  -50.8171 O.2       17 UNK        -0.5000 
     99 N          -6.3225  -22.3225  -51.3365 N.am      18 UNK        -0.5000 
    100 CA        -6.2616  -21.5784  -52.5975 C.3       18 UNK         0.1400 
    101 CB        -6.6093  -20.0917  -52.3772 C.3       18 UNK        -0.1800 
    102 C         -7.1205  -22.2432  -53.6904 C.2       18 UNK         0.5000 
    103 O         -8.0420  -21.6206  -54.2227 O.2       18 UNK        -0.5000 
    104 N         -6.8159  -23.5153  -53.9819 N.am      19 UNK        -0.5000 
    105 CA        -7.4620  -24.3204  -55.0180 C.3       19 UNK         0.1400 
    106 CB        -6.9727  -25.7725  -54.9106 C.3       19 UNK        -0.1800 
    107 C         -7.1942  -23.7298  -56.4145 C.2       19 UNK         0.5000 
    108 O         -6.0833  -23.8584  -56.9311 O.2       19 UNK        -0.5000 
    109 N         -8.2002  -23.0291  -56.9549 N.am      20 UNK        -0.5000 
    110 CA        -8.2022  -22.1887  -58.1607 C.3       20 UNK         0.1400 
    111 CB        -7.7635  -22.9665  -59.4168 C.3       20 UNK        -0.1800 
    112 C         -7.4123  -20.8722  -58.0030 C.2       20 UNK         0.5000 
    113 O         -7.8876  -19.8311  -58.4585 O.2       20 UNK        -0.5000 
    114 N         -6.2497  -20.9238  -57.3465 N.am      21 UNK        -0.5000 
    115 CA        -5.3855  -19.7964  -57.0175 C.3       21 UNK         0.1400 
    116 CB        -4.6138  -19.3416  -58.2718 C.3       21 UNK        -0.1800 
    117 C         -4.4182  -20.2204  -55.9020 C.2       21 UNK         0.5000 
    118 O         -4.3057  -21.4118  -55.5993 O.2       21 UNK        -0.5000 
    119 N         -3.7047  -19.2450  -55.3298 N.am      22 UNK        -0.5000 
    120 CA        -2.6062  -19.4500  -54.3702 C.3       22 UNK         0.1400 
    121 C         -1.3204  -20.0151  -55.0463 C.2       22 UNK         0.5000 
    122 N         -1.3908  -21.1980  -55.6406 N.am      22 UNK        -0.7600 
    123 O         -0.2628  -19.3907  -55.0434 O.2       22 UNK        -0.5000 
    124 C124       -2.3367  -18.1778  -53.5247 C.3       23 UNK        -0.0398 
    125 S125       -3.7022  -17.8182  -52.3703 S.3       23 UNK        -0.2404 
    126 C126       -3.2219  -18.8133  -50.9197 C.3       23 UNK        -0.0205 
    127 H127        4.0526  -16.0994  -45.8068 H         1 UNK         0.0600 
    128 H128        3.0430  -15.8483  -47.2298 H         1 UNK         0.0600 
    129 H129        2.5611  -17.0237  -46.0022 H         1 UNK         0.0600 
    130 H130        1.1494  -14.5368  -47.0563 H         1 UNK         0.3000 
    131 H131        0.6146  -13.1240  -44.5057 H         1 UNK         0.0600 
    132 H132       -1.5039  -12.3604  -45.7961 H         1 UNK         0.0800 
    133 H133       -1.4389  -13.9711  -45.1979 H         1 UNK         0.0800 
    134 H134       -2.9123  -15.6615  -47.0196 H         1 UNK         0.0800 
    135 H135       -1.3479  -15.9802  -46.3169 H         1 UNK         0.0800 
    136 H136       -3.5091  -16.9697  -48.9431 H         1 UNK         0.1150 
    137 H137       -0.5118  -19.1982  -51.0564 H         1 UNK         0.1150 
    138 H138        0.6292  -16.4791  -47.9543 H         1 UNK         0.1150 
    139 H139        1.9141  -17.9763  -50.8451 H         1 UNK         0.0800 
    140 H140        2.3295  -17.5144  -49.2148 H         1 UNK         0.0800 
    141 H141        0.9671  -19.2502  -47.3589 H         1 UNK         0.0800 
    142 H142        2.5504  -19.9112  -47.0769 H         1 UNK         0.0800 
    143 H143        1.6716  -22.1856  -47.7934 H         1 UNK         0.0600 
    144 H144        1.2076  -20.9075  -45.3011 H         1 UNK         0.3000 
    145 H145        0.3215  -23.9164  -43.5422 H         1 UNK         0.0600 
    146 H146        2.1848  -23.0272  -42.1588 H         1 UNK         0.0600 
    147 H147        2.8033  -23.7495  -43.6363 H         1 UNK         0.0600 
    148 H148        2.7152  -21.9997  -43.4891 H         1 UNK         0.0600 
    149 H149        0.4739  -21.1927  -42.7028 H         1 UNK         0.3000 
    150 H150       -2.9473  -20.3451  -43.2722 H         1 UNK         0.0600 
    151 H151       -2.8798  -21.6228  -41.1263 H         1 UNK         0.0600 
    152 H152       -2.7800  -19.8925  -40.8399 H         1 UNK         0.0600 
    153 H153       -1.3313  -20.8910  -40.7224 H         1 UNK         0.0600 
    154 H154       -0.7260  -18.9462  -42.1189 H         1 UNK         0.3000 
    155 H155        0.2450  -17.2451  -45.1215 H         1 UNK         0.0600 
    156 H156       -1.0063  -16.4451  -42.4286 H         1 UNK         0.0600 
    157 H157       -1.7308  -16.1116  -43.9912 H         1 UNK         0.0600 
    158 H158       -0.1952  -15.3700  -43.5587 H         1 UNK         0.0600 
    159 H159        1.3767  -17.0426  -42.5855 H         1 UNK         0.3000 
    160 H160        3.4905  -19.8067  -42.3530 H         1 UNK         0.0600 
    161 H161        5.3236  -18.1242  -42.3420 H         1 UNK         0.0600 
    162 H162        4.2875  -16.9514  -43.1553 H         1 UNK         0.0600 
    163 H163        4.7889  -18.4176  -43.9901 H         1 UNK         0.0600 
    164 H164        3.3381  -17.3333  -40.9101 H         1 UNK         0.3000 
    165 H165        0.5577  -18.1151  -38.8285 H         1 UNK         0.0600 
    166 H166        2.2347  -17.3531  -37.1558 H         1 UNK         0.0600 
    167 H167        2.5589  -18.9902  -37.7041 H         1 UNK         0.0600 
    168 H168        3.5399  -17.6622  -38.2996 H         1 UNK         0.0600 
    169 H169        0.3684  -16.0393  -39.4793 H         1 UNK         0.3000 
    170 H170        0.8917  -14.1573  -40.9642 H         1 UNK         0.0600 
    171 H171        0.3648  -13.8572  -38.5269 H         1 UNK         0.0600 
    172 H172        1.9688  -13.1907  -38.2436 H         1 UNK         0.0600 
    173 H173        0.8077  -12.3171  -39.2408 H         1 UNK         0.0600 
    174 H174        3.7063  -13.5488  -40.5757 H         1 UNK         0.3000 
    175 H175        4.4337  -11.2444  -41.4074 H         1 UNK         0.0600 
    176 H176        4.4169  -12.9665  -43.9559 H         1 UNK         0.0600 
    177 H177        5.8111  -12.1666  -43.2447 H         1 UNK         0.0600 
    178 H178        5.0586  -13.5152  -42.4116 H         1 UNK         0.0600 
    179 H179        2.6544  -10.6256  -43.5944 H         1 UNK         0.3000 
    180 H180        2.9517   -7.9512  -43.9761 H         1 UNK         0.0600 
    181 H181        5.6450   -7.9113  -45.4384 H         1 UNK         0.0600 
    182 H182        5.1447   -6.8428  -44.1360 H         1 UNK         0.0600 
    183 H183        4.3332   -6.7606  -45.6907 H         1 UNK         0.0600 
    184 H184        2.1203   -9.0944  -45.6810 H         1 UNK         0.3000 
    185 H185        2.0340   -9.9369  -47.8223 H         1 UNK         0.0600 
    186 H186        4.0640  -10.2590  -49.2477 H         1 UNK         0.0600 
    187 H187        4.2796  -11.8770  -48.5901 H         1 UNK         0.0600 
    188 H188        2.8513  -11.4932  -49.5492 H         1 UNK         0.0600 
    189 H189        2.4925  -12.7382  -47.2214 H         1 UNK         0.3000 
    190 H190       -1.2950  -20.6306  -46.4397 H         1 UNK         0.3000 
    191 H191       -2.9312  -21.0357  -48.7210 H         1 UNK         0.0600 
    192 H192       -3.6838  -20.8610  -45.7595 H         1 UNK         0.0600 
    193 H193       -4.8147  -20.7385  -47.1038 H         1 UNK         0.0600 
    194 H194       -3.5707  -19.5154  -46.8936 H         1 UNK         0.0600 
    195 H195       -2.2614  -23.1826  -45.9088 H         1 UNK         0.3000 
    196 H196       -3.9789  -25.3085  -46.6953 H         1 UNK         0.0600 
    197 H197       -2.6137  -26.6527  -45.0904 H         1 UNK         0.0600 
    198 H198       -3.0909  -25.1082  -44.4030 H         1 UNK         0.0600 
    199 H199       -1.4426  -25.3448  -44.9781 H         1 UNK         0.0600 
    200 H200       -0.5039  -24.6912  -47.4114 H         1 UNK         0.3000 
    201 H201       -0.0266  -27.0247  -48.9470 H         1 UNK         0.0600 
    202 H202        1.7782  -25.5736  -48.0457 H         1 UNK         0.0600 
    203 H203        1.2989  -24.2676  -49.1277 H         1 UNK         0.0600 
    204 H204        1.9488  -25.7634  -49.7842 H         1 UNK         0.0600 
    205 H205       -1.3962  -23.8781  -49.8647 H         1 UNK         0.3000 
    206 H206       -1.6989  -24.5205  -52.6883 H         1 UNK         0.0600 
    207 H207       -2.8730  -22.3519  -52.7484 H         1 UNK         0.0600 
    208 H208       -2.9050  -22.2760  -50.9890 H         1 UNK         0.0600 
    209 H209       -1.3718  -22.1844  -51.8542 H         1 UNK         0.0600 
    210 H210       -3.2095  -25.9092  -50.1289 H         1 UNK         0.3000 
    211 H211       -5.0525  -27.0363  -49.7183 H         1 UNK         0.0600 
    212 H212       -5.4096  -27.0773  -52.7581 H         1 UNK         0.0600 
    213 H213       -6.2178  -28.1461  -51.6187 H         1 UNK         0.0600 
    214 H214       -4.4736  -28.2213  -51.8036 H         1 UNK         0.0600 
    215 H215       -5.2958  -24.4106  -49.2244 H         1 UNK         0.3000 
    216 H216       -6.6760  -22.8269  -48.6090 H         1 UNK         0.0600 
    217 H217       -9.0874  -23.1768  -48.3559 H         1 UNK         0.0600 
    218 H218       -8.2435  -24.6295  -47.8454 H         1 UNK         0.0600 
    219 H219       -9.0556  -24.5809  -49.4101 H         1 UNK         0.0600 
    220 H220       -5.4652  -22.7812  -51.0642 H         1 UNK         0.3000 
    221 H221       -5.2266  -21.6269  -52.9378 H         1 UNK         0.0600 
    222 H222       -7.6607  -19.9487  -52.1267 H         1 UNK         0.0600 
    223 H223       -6.0177  -19.6637  -51.5701 H         1 UNK         0.0600 
    224 H224       -6.4056  -19.5099  -53.2769 H         1 UNK         0.0600 
    225 H225       -6.0180  -23.9407  -53.5151 H         1 UNK         0.3000 
    226 H226       -8.5379  -24.3163  -54.8318 H         1 UNK         0.0600 
    227 H227       -7.3975  -26.3890  -55.7036 H         1 UNK         0.0600 
    228 H228       -5.8864  -25.8393  -54.9850 H         1 UNK         0.0600 
    229 H229       -7.2735  -26.2135  -53.9604 H         1 UNK         0.0600 
    230 H230       -9.0371  -22.9396  -56.3947 H         1 UNK         0.3000 
    231 H231       -9.2454  -21.9051  -58.3087 H         1 UNK         0.0600 
    232 H232       -8.3396  -23.8841  -59.5350 H         1 UNK         0.0600 
    233 H233       -6.7068  -23.2328  -59.3878 H         1 UNK         0.0600 
    234 H234       -7.9187  -22.3667  -60.3143 H         1 UNK         0.0600 
    235 H235       -5.9259  -21.8203  -56.9910 H         1 UNK         0.3000 
    236 H236       -5.9997  -18.9758  -56.6413 H         1 UNK         0.0600 
    237 H237       -3.9557  -18.5008  -58.0503 H         1 UNK         0.0600 
    238 H238       -3.9953  -20.1458  -58.6725 H         1 UNK         0.0600 
    239 H239       -5.2905  -19.0164  -59.0619 H         1 UNK         0.0600 
    240 H240       -3.8439  -18.2940  -55.6381 H         1 UNK         0.3000 
    241 H241       -2.9202  -20.2247  -53.6704 H         1 UNK         0.0600 
    242 H242       -2.2808  -21.6820  -55.6817 H         1 UNK         0.3800 
    243 H243       -0.5771  -21.5871  -56.0899 H         1 UNK         0.3800 
    244 H244       -1.4132  -18.2709  -52.9555 H         1 UNK         0.0800 
    245 H245       -2.1922  -17.3138  -54.1749 H         1 UNK         0.0800 
    246 H246       -4.1003  -18.9652  -50.2911 H         1 UNK         0.0800 
    247 H247       -2.9059  -19.8067  -51.2384 H         1 UNK         0.0800 
@<TRIPOS>BOND
     1    1    2 1    
     2    1  127 1    
     3    1  128 1    
     4    1  129 1    
     5    2    3 2    
     6    2    4 am   BACKBONE|DICT|INTERRES
     7    4    5 1    
     8    4  130 1    
     9    5    6 1    
    10    5   65 1    
    11    5  131 1    
    12    6    7 1    
    13    6  132 1    
    14    6  133 1    
    15    7    8 1    
    16    8    9 1    
    17    8  134 1    
    18    8  135 1    
    19    9   10 ar   
    20    9   14 ar   
    21   10   11 ar   
    22   10  136 1    
    23   11   12 ar   
    24   11  126 1    
    25   12   13 ar   
    26   12  137 1    
    27   13   14 ar   
    28   13   15 1    
    29   14  138 1    
    30   15   16 1    
    31   15  139 1    
    32   15  140 1    
    33   16   17 1    
    34   17   18 1    
    35   17  141 1    
    36   17  142 1    
    37   18   19 1    
    38   18   67 1    
    39   18  143 1    
    40   19   20 am   BACKBONE|DICT|INTERRES
    41   19  144 1    
    42   20   21 2    
    43   20   22 1    
    44   22   23 1    
    45   22   24 1    
    46   22  145 1    
    47   23  146 1    
    48   23  147 1    
    49   23  148 1    
    50   24   25 am   BACKBONE|DICT|INTERRES
    51   24  149 1    
    52   25   26 2    
    53   25   27 1    
    54   27   28 1    
    55   27   29 1    
    56   27  150 1    
    57   28  151 1    
    58   28  152 1    
    59   28  153 1    
    60   29   30 am   BACKBONE|DICT|INTERRES
    61   29  154 1    
    62   30   31 2    
    63   30   32 1    
    64   32   33 1    
    65   32   34 1    
    66   32  155 1    
    67   33  156 1    
    68   33  157 1    
    69   33  158 1    
    70   34   35 am   BACKBONE|DICT|INTERRES
    71   34  159 1    
    72   35   36 2    
    73   35   37 1    
    74   37   38 1    
    75   37   39 1    
    76   37  160 1    
    77   38  161 1    
    78   38  162 1    
    79   38  163 1    
    80   39   40 am   BACKBONE|DICT|INTERRES
    81   39  164 1    
    82   40   41 2    
    83   40   42 1    
    84   42   43 1    
    85   42   44 1    
    86   42  165 1    
    87   43  166 1    
    88   43  167 1    
    89   43  168 1    
    90   44   45 am   BACKBONE|DICT|INTERRES
    91   44  169 1    
    92   45   46 2    
    93   45   47 1    
    94   47   48 1    
    95   47   49 1    
    96   47  170 1    
    97   48  171 1    
    98   48  172 1    
    99   48  173 1    
   100   49   50 am   BACKBONE|DICT|INTERRES
   101   49  174 1    
   102   50   51 2    
   103   50   52 1    
   104   52   53 1    
   105   52   54 1    
   106   52  175 1    
   107   53  176 1    
   108   53  177 1    
   109   53  178 1    
   110   54   55 am   BACKBONE|DICT|INTERRES
   111   54  179 1    
   112   55   56 2    
   113   55   57 1    
   114   57   58 1    
   115   57   59 1    
   116   57  180 1    
   117   58  181 1    
   118   58  182 1    
   119   58  183 1    
   120   59   60 am   BACKBONE|DICT|INTERRES
   121   59  184 1    
   122   60   61 2    
   123   60   62 1    
   124   62   63 1    
   125   62   64 1    
   126   62  185 1    
   127   63  186 1    
   128   63  187 1    
   129   63  188 1    
   130   64   65 am   BACKBONE|DICT|INTERRES
   131   64  189 1    
   132   65   66 2    
   133   67   68 2    
   134   67   69 am   BACKBONE|DICT|INTERRES
   135   69   70 1    
   136   69  190 1    
   137   70   71 1    
   138   70   72 1    
   139   70  191 1    
   140   71  192 1    
   141   71  193 1    
   142   71  194 1    
   143   72   73 2    
   144   72   74 am   BACKBONE|DICT|INTERRES
   145   74   75 1    
   146   74  195 1    
   147   75   76 1    
   148   75   77 1    
   149   75  196 1    
   150   76  197 1    
   151   76  198 1    
   152   76  199 1    
   153   77   78 2    
   154   77   79 am   BACKBONE|DICT|INTERRES
   155   79   80 1    
   156   79  200 1    
   157   80   81 1    
   158   80   82 1    
   159   80  201 1    
   160   81  202 1    
   161   81  203 1    
   162   81  204 1    
   163   82   83 2    
   164   82   84 am   BACKBONE|DICT|INTERRES
   165   84   85 1    
   166   84  205 1    
   167   85   86 1    
   168   85   87 1    
   169   85  206 1    
   170   86  207 1    
   171   86  208 1    
   172   86  209 1    
   173   87   88 2    
   174   87   89 am   BACKBONE|DICT|INTERRES
   175   89   90 1    
   176   89  210 1    
   177   90   91 1    
   178   90   92 1    
   179   90  211 1    
   180   91  212 1    
   181   91  213 1    
   182   91  214 1    
   183   92   93 2    
   184   92   94 am   BACKBONE|DICT|INTERRES
   185   94   95 1    
   186   94  215 1    
   187   95   96 1    
   188   95   97 1    
   189   95  216 1    
   190   96  217 1    
   191   96  218 1    
   192   96  219 1    
   193   97   98 2    
   194   97   99 am   BACKBONE|DICT|INTERRES
   195   99  100 1    
   196   99  220 1    
   197  100  101 1    
   198  100  102 1    
   199  100  221 1    
   200  101  222 1    
   201  101  223 1    
   202  101  224 1    
   203  102  103 2    
   204  102  104 am   BACKBONE|DICT|INTERRES
   205  104  105 1    
   206  104  225 1    
   207  105  106 1    
   208  105  107 1    
   209  105  226 1    
   210  106  227 1    
   211  106  228 1    
   212  106  229 1    
   213  107  108 2    
   214  107  109 am   BACKBONE|DICT|INTERRES
   215  109  110 1    
   216  109  230 1    
   217  110  111 1    
   218  110  112 1    
   219  110  231 1    
   220  111  232 1    
   221  111  233 1    
   222  111  234 1    
   223  112  113 2    
   224  112  114 am   BACKBONE|DICT|INTERRES
   225  114  115 1    
   226  114  235 1    
   227  115  116 1    
   228  115  117 1    
   229  115  236 1    
   230  116  237 1    
   231  116  238 1    
   232  116  239 1    
   233  117  118 2    
   234  117  119 am   BACKBONE|DICT|INTERRES
   235  119  120 1    
   236  119  240 1    
   237  120  121 1    
   238  120  124 1    
   239  120  241 1    
   240  121  122 am   BACKBONE|DICT|INTERRES
   241  121  123 2    
   242  122  242 1    
   243  122  243 1    
   244  124  125 1    
   245  124  244 1    
   246  124  245 1    
   247  125  126 1    
   248  126  246 1    
   249  126  247 1    
@<TRIPOS>SUBSTRUCTURE
     1 UNK         1 GROUP             0       ****    0 ROOT    
