@<TRIPOS>MOLECULE
3R540
247   249    1
SMALL
USER_CHARGES


@<TRIPOS>ATOM
      1 CA          1.2629   -9.3091  -45.6344 C.3       0 UNK        -0.1800 
      2 C           1.8853   -9.4516  -47.0159 C.2       0 UNK         0.5000 
      3 O           2.6193   -8.5657  -47.4549 O.2       0 UNK        -0.5000 
      4 N           1.6099  -10.5661  -47.7032 N.am      1 UNK        -0.5000 
      5 CA          2.0633  -10.8893  -49.0629 C.3       1 UNK         0.1400 
      6 C6          1.0587  -11.8319  -49.7775 C.3       23 UNK        -0.0398 
      7 S7          0.6760  -13.3871  -48.8844 S.3       23 UNK        -0.2404 
      8 C8          1.1884  -14.6136  -50.1305 C.3       23 UNK        -0.0205 
      9 C9          0.6623  -16.0118  -49.8394 C.ar      23 UNK        -0.0193 
     10 C10        -0.7138  -16.2440  -49.7912 C.ar      23 UNK        -0.1150 
     11 C11        -1.2166  -17.5388  -49.6241 C.ar      23 UNK        -0.0193 
     12 C12        -0.3179  -18.5999  -49.4803 C.ar      23 UNK        -0.1150 
     13 C13         1.0677  -18.3897  -49.5150 C.ar      23 UNK        -0.0193 
     14 C14         1.5438  -17.0864  -49.6922 C.ar      23 UNK        -0.1150 
     15 C15         2.0954  -19.5224  -49.4028 C.3       23 UNK        -0.0205 
     16 S16         1.4453  -21.2010  -49.0744 S.3       23 UNK        -0.2404 
     17 C17         0.9614  -21.0241  -47.3263 C.3       23 UNK        -0.0398 
     18 CA          0.2443  -22.2439  -46.6978 C.3       11 UNK         0.1400 
     19 N          -0.0674  -21.9769  -45.2930 N.am      11 UNK        -0.5000 
     20 C          -0.5804  -22.8503  -44.4180 C.2       10 UNK         0.5000 
     21 O          -0.7937  -24.0332  -44.6760 O.2       10 UNK        -0.5000 
     22 CA         -0.9737  -22.2899  -43.0394 C.3       10 UNK         0.1400 
     23 CB          0.2525  -22.1866  -42.1208 C.3       10 UNK        -0.1800 
     24 N          -1.6359  -20.9863  -43.1342 N.am      10 UNK        -0.5000 
     25 C          -2.8174  -20.7822  -43.7353 C.2       9 UNK         0.5000 
     26 O          -3.4952  -21.6852  -44.2244 O.2       9 UNK        -0.5000 
     27 CA         -3.3087  -19.3272  -43.8474 C.3       9 UNK         0.1400 
     28 CB         -3.9341  -18.8571  -42.5261 C.3       9 UNK        -0.1800 
     29 N          -2.2513  -18.4010  -44.2556 N.am      9 UNK        -0.5000 
     30 C          -1.6288  -18.4376  -45.4431 C.2       8 UNK         0.5000 
     31 O          -1.9174  -19.2322  -46.3374 O.2       8 UNK        -0.5000 
     32 CA         -0.4486  -17.4669  -45.6439 C.3       8 UNK         0.1400 
     33 CB         -0.9424  -16.0603  -46.0117 C.3       8 UNK        -0.1800 
     34 N           0.4186  -17.3930  -44.4671 N.am      8 UNK        -0.5000 
     35 C           1.1111  -18.4250  -43.9650 C.2       7 UNK         0.5000 
     36 O           1.1460  -19.5404  -44.4811 O.2       7 UNK        -0.5000 
     37 CA          1.8360  -18.1933  -42.6292 C.3       7 UNK         0.1400 
     38 CB          3.1853  -17.4896  -42.8399 C.3       7 UNK        -0.1800 
     39 N           1.0115  -17.4319  -41.6908 N.am      7 UNK        -0.5000 
     40 C          -0.0885  -17.9128  -41.0935 C.2       6 UNK         0.5000 
     41 O          -0.4989  -19.0627  -41.2447 O.2       6 UNK        -0.5000 
     42 CA         -0.8827  -16.9362  -40.2066 C.3       6 UNK         0.1400 
     43 CB         -0.2984  -16.8994  -38.7868 C.3       6 UNK        -0.1800 
     44 N          -0.9139  -15.5790  -40.7522 N.am      6 UNK        -0.5000 
     45 C          -1.5458  -15.2292  -41.8818 C.2       5 UNK         0.5000 
     46 O          -2.2162  -16.0072  -42.5592 O.2       5 UNK        -0.5000 
     47 CA         -1.3380  -13.7804  -42.3648 C.3       5 UNK         0.1400 
     48 CB         -2.3499  -12.8356  -41.7001 C.3       5 UNK        -0.1800 
     49 N           0.0230  -13.2877  -42.1250 N.am      5 UNK        -0.5000 
     50 C           1.1230  -13.8342  -42.6587 C.2       4 UNK         0.5000 
     51 O           1.0981  -14.8113  -43.4100 O.2       4 UNK        -0.5000 
     52 CA          2.4741  -13.2393  -42.2207 C.3       4 UNK         0.1400 
     53 CB          2.9047  -13.8415  -40.8735 C.3       4 UNK        -0.1800 
     54 N           3.5266  -13.4947  -43.2050 N.am      4 UNK        -0.5000 
     55 C           3.5661  -12.9402  -44.4209 C.2       3 UNK         0.5000 
     56 O           2.7633  -12.0873  -44.8126 O.2       3 UNK        -0.5000 
     57 CA          4.6837  -13.4174  -45.3585 C.3       3 UNK         0.1400 
     58 CB          4.3031  -14.7462  -46.0377 C.3       3 UNK        -0.1800 
     59 N           4.8667  -12.3822  -46.3630 N.am      3 UNK        -0.5000 
     60 C           5.9283  -12.1737  -47.1469 C.2       2 UNK         0.5000 
     61 O           6.9503  -12.8610  -47.1100 O.2       2 UNK        -0.5000 
     62 CA          5.8201  -10.9780  -48.1223 C.3       2 UNK         0.1400 
     63 CB          6.6688  -11.1595  -49.3982 C.3       2 UNK        -0.1800 
     64 N           4.4264  -10.6351  -48.4442 N.am      2 UNK        -0.5000 
     65 C           3.5268  -11.3950  -49.0881 C.2       1 UNK         0.5000 
     66 O           3.8107  -12.4560  -49.6447 O.2       1 UNK        -0.5000 
     67 C          -1.0147  -22.6879  -47.4763 C.2       11 UNK         0.5000 
     68 O          -0.9790  -23.7283  -48.1343 O.2       11 UNK        -0.5000 
     69 N          -2.1157  -21.9344  -47.3329 N.am      12 UNK        -0.5000 
     70 CA         -3.4200  -22.2419  -47.9242 C.3       12 UNK         0.1400 
     71 CB         -4.3741  -21.0575  -47.7161 C.3       12 UNK        -0.1800 
     72 C          -4.0495  -23.5495  -47.4114 C.2       12 UNK         0.5000 
     73 O          -4.7383  -24.2239  -48.1738 O.2       12 UNK        -0.5000 
     74 N          -3.8075  -23.8961  -46.1415 N.am      13 UNK        -0.5000 
     75 CA         -4.2266  -25.1683  -45.5560 C.3       13 UNK         0.1400 
     76 CB         -4.1592  -25.0754  -44.0238 C.3       13 UNK        -0.1800 
     77 C          -3.3892  -26.3539  -46.0734 C.2       13 UNK         0.5000 
     78 O          -3.9427  -27.4277  -46.3135 O.2       13 UNK        -0.5000 
     79 N          -2.0743  -26.1444  -46.2178 N.am      14 UNK        -0.5000 
     80 CA         -1.1082  -27.1606  -46.6251 C.3       14 UNK         0.1400 
     81 CB          0.3070  -26.7058  -46.2328 C.3       14 UNK        -0.1800 
     82 C          -1.1712  -27.5032  -48.1234 C.2       14 UNK         0.5000 
     83 O          -1.2442  -28.6845  -48.4663 O.2       14 UNK        -0.5000 
     84 N          -1.1036  -26.4821  -48.9864 N.am      15 UNK        -0.5000 
     85 CA         -0.9936  -26.6407  -50.4344 C.3       15 UNK         0.1400 
     86 CB          0.0818  -25.6777  -50.9632 C.3       15 UNK        -0.1800 
     87 C          -2.3415  -26.3684  -51.1129 C.2       15 UNK         0.5000 
     88 O          -2.9161  -25.2962  -50.9230 O.2       15 UNK        -0.5000 
     89 N          -2.7933  -27.3121  -51.9501 N.am      16 UNK        -0.5000 
     90 CA         -4.0346  -27.2181  -52.7276 C.3       16 UNK         0.1400 
     91 CB         -4.3019  -28.5637  -53.4178 C.3       16 UNK        -0.1800 
     92 C          -4.0317  -26.0733  -53.7606 C.2       16 UNK         0.5000 
     93 O          -5.0860  -25.5048  -54.0441 O.2       16 UNK        -0.5000 
     94 N          -2.8432  -25.7281  -54.2752 N.am      17 UNK        -0.5000 
     95 CA         -2.6286  -24.5860  -55.1650 C.3       17 UNK         0.1400 
     96 CB         -1.2150  -24.6684  -55.7604 C.3       17 UNK        -0.1800 
     97 C          -2.8390  -23.2352  -54.4548 C.2       17 UNK         0.5000 
     98 O          -3.3296  -22.2942  -55.0768 O.2       17 UNK        -0.5000 
     99 N          -2.4859  -23.1717  -53.1637 N.am      18 UNK        -0.5000 
    100 CA        -2.6868  -22.0003  -52.3144 C.3       18 UNK         0.1400 
    101 CB        -1.6244  -21.9838  -51.2107 C.3       18 UNK        -0.1800 
    102 C         -4.1065  -21.9482  -51.7221 C.2       18 UNK         0.5000 
    103 O         -4.6042  -20.8556  -51.4544 O.2       18 UNK        -0.5000 
    104 N         -4.7540  -23.1112  -51.5546 N.am      19 UNK        -0.5000 
    105 CA        -6.1561  -23.2341  -51.1404 C.3       19 UNK         0.1400 
    106 CB        -6.5201  -24.7163  -50.9608 C.3       19 UNK        -0.1800 
    107 C         -7.1261  -22.5695  -52.1363 C.2       19 UNK         0.5000 
    108 O         -8.1506  -22.0235  -51.7243 O.2       19 UNK        -0.5000 
    109 N         -6.7582  -22.5817  -53.4247 N.am      20 UNK        -0.5000 
    110 CA        -7.4246  -21.8807  -54.5196 C.3       20 UNK         0.1400 
    111 CB        -7.0171  -22.5490  -55.8448 C.3       20 UNK        -0.1800 
    112 C         -7.1208  -20.3655  -54.4956 C.2       20 UNK         0.5000 
    113 O         -6.5173  -19.8377  -55.4321 O.2       20 UNK        -0.5000 
    114 N         -7.5339  -19.6990  -53.4073 N.am      21 UNK        -0.5000 
    115 CA        -7.4702  -18.2525  -53.1570 C.3       21 UNK         0.1400 
    116 CB        -8.5212  -17.5271  -54.0226 C.3       21 UNK        -0.1800 
    117 C         -6.0555  -17.6487  -53.3060 C.2       21 UNK         0.5000 
    118 O         -5.9031  -16.5577  -53.8591 O.2       21 UNK        -0.5000 
    119 N         -5.0469  -18.3856  -52.8252 N.am      22 UNK        -0.5000 
    120 CA        -3.6104  -18.0766  -52.9230 C.3       22 UNK         0.1400 
    121 C         -3.0198  -18.1704  -54.3641 C.2       22 UNK         0.5000 
    122 N         -3.7283  -18.7115  -55.3485 N.am      22 UNK        -0.7600 
    123 O         -1.8799  -17.7757  -54.5929 O.2       22 UNK        -0.5000 
    124 C124       -3.1930  -16.7697  -52.1910 C.3       23 UNK        -0.0398 
    125 S125       -3.7909  -16.6485  -50.4657 S.3       23 UNK        -0.2404 
    126 C126       -2.7163  -17.8333  -49.5789 C.3       23 UNK        -0.0205 
    127 H127        0.6403  -10.1678  -45.3816 H         1 UNK         0.0600 
    128 H128        0.6434   -8.4135  -45.5908 H         1 UNK         0.0600 
    129 H129        2.0439   -9.2241  -44.8790 H         1 UNK         0.0600 
    130 H130        1.0464  -11.2834  -47.2673 H         1 UNK         0.3000 
    131 H131        2.0701   -9.9607  -49.6377 H         1 UNK         0.0600 
    132 H132        1.4049  -12.0504  -50.7889 H         1 UNK         0.0800 
    133 H133        0.1146  -11.3026  -49.9118 H         1 UNK         0.0800 
    134 H134        2.2772  -14.6146  -50.1988 H         1 UNK         0.0800 
    135 H135        0.8166  -14.3131  -51.1110 H         1 UNK         0.0800 
    136 H136       -1.3883  -15.4075  -49.9019 H         1 UNK         0.1150 
    137 H137       -0.7144  -19.5925  -49.3393 H         1 UNK         0.1150 
    138 H138        2.6097  -16.9115  -49.7403 H         1 UNK         0.1150 
    139 H139        2.6543  -19.5630  -50.3387 H         1 UNK         0.0800 
    140 H140        2.8195  -19.2716  -48.6260 H         1 UNK         0.0800 
    141 H141        0.3400  -20.1363  -47.2286 H         1 UNK         0.0800 
    142 H142        1.8690  -20.8120  -46.7596 H         1 UNK         0.0800 
    143 H143        0.9430  -23.0828  -46.7146 H         1 UNK         0.0600 
    144 H144        0.1310  -21.0339  -44.9678 H         1 UNK         0.3000 
    145 H145       -1.6784  -22.9899  -42.5859 H         1 UNK         0.0600 
    146 H146       -0.0325  -21.8652  -41.1189 H         1 UNK         0.0600 
    147 H147        0.9853  -21.4763  -42.5038 H         1 UNK         0.0600 
    148 H148        0.7499  -23.1524  -42.0236 H         1 UNK         0.0600 
    149 H149       -1.1604  -20.2010  -42.7000 H         1 UNK         0.3000 
    150 H150       -4.0852  -19.3002  -44.6146 H         1 UNK         0.0600 
    151 H151       -4.7394  -19.5242  -42.2163 H         1 UNK         0.0600 
    152 H152       -4.3594  -17.8583  -42.6254 H         1 UNK         0.0600 
    153 H153       -3.2016  -18.8298  -41.7195 H         1 UNK         0.0600 
    154 H154       -1.9985  -17.6766  -43.5907 H         1 UNK         0.3000 
    155 H155        0.1514  -17.8383  -46.4767 H         1 UNK         0.0600 
    156 H156       -1.5789  -16.0894  -46.8967 H         1 UNK         0.0600 
    157 H157       -0.1067  -15.3965  -46.2352 H         1 UNK         0.0600 
    158 H158       -1.5211  -15.6110  -45.2049 H         1 UNK         0.0600 
    159 H159        0.4936  -16.4886  -44.0078 H         1 UNK         0.3000 
    160 H160        2.0366  -19.1713  -42.1865 H         1 UNK         0.0600 
    161 H161        3.0660  -16.5039  -43.2871 H         1 UNK         0.0600 
    162 H162        3.8261  -18.0718  -43.5032 H         1 UNK         0.0600 
    163 H163        3.7185  -17.3687  -41.8970 H         1 UNK         0.0600 
    164 H164        1.2442  -16.4586  -41.5684 H         1 UNK         0.3000 
    165 H165       -1.9098  -17.3018  -40.1441 H         1 UNK         0.0600 
    166 H166       -0.8978  -16.2687  -38.1300 H         1 UNK         0.0600 
    167 H167       -0.2789  -17.8978  -38.3475 H         1 UNK         0.0600 
    168 H168        0.7232  -16.5174  -38.7796 H         1 UNK         0.0600 
    169 H169       -0.3893  -14.8742  -40.2560 H         1 UNK         0.3000 
    170 H170       -1.5132  -13.7642  -43.4425 H         1 UNK         0.0600 
    171 H171       -2.2058  -12.7840  -40.6202 H         1 UNK         0.0600 
    172 H172       -2.2667  -11.8246  -42.0994 H         1 UNK         0.0600 
    173 H173       -3.3724  -13.1712  -41.8794 H         1 UNK         0.0600 
    174 H174        0.1146  -12.4928  -41.5087 H         1 UNK         0.3000 
    175 H175        2.3600  -12.1591  -42.1067 H         1 UNK         0.0600 
    176 H176        3.0410  -14.9217  -40.9379 H         1 UNK         0.0600 
    177 H177        3.8437  -13.4064  -40.5307 H         1 UNK         0.0600 
    178 H178        2.1607  -13.6499  -40.0992 H         1 UNK         0.0600 
    179 H179        4.2052  -14.2017  -42.9649 H         1 UNK         0.3000 
    180 H180        5.6057  -13.5359  -44.7858 H         1 UNK         0.0600 
    181 H181        5.0871  -15.0852  -46.7149 H         1 UNK         0.0600 
    182 H182        3.3819  -14.6507  -46.6150 H         1 UNK         0.0600 
    183 H183        4.1482  -15.5347  -45.3010 H         1 UNK         0.0600 
    184 H184        4.0775  -11.7509  -46.4275 H         1 UNK         0.3000 
    185 H185        6.2217  -10.1182  -47.5845 H         1 UNK         0.0600 
    186 H186        6.5556  -10.3102  -50.0718 H         1 UNK         0.0600 
    187 H187        7.7284  -11.2383  -49.1525 H         1 UNK         0.0600 
    188 H188        6.3960  -12.0621  -49.9452 H         1 UNK         0.0600 
    189 H189        4.0770   -9.7742  -48.0326 H         1 UNK         0.3000 
    190 H190       -2.0573  -21.0733  -46.7948 H         1 UNK         0.3000 
    191 H191       -3.2732  -22.3677  -48.9947 H         1 UNK         0.0600 
    192 H192       -3.9759  -20.1484  -48.1643 H         1 UNK         0.0600 
    193 H193       -4.5475  -20.8615  -46.6578 H         1 UNK         0.0600 
    194 H194       -5.3420  -21.2493  -48.1807 H         1 UNK         0.0600 
    195 H195       -3.3079  -23.2490  -45.5414 H         1 UNK         0.3000 
    196 H196       -5.2674  -25.3487  -45.8334 H         1 UNK         0.0600 
    197 H197       -4.7910  -24.2694  -43.6501 H         1 UNK         0.0600 
    198 H198       -3.1436  -24.8926  -43.6730 H         1 UNK         0.0600 
    199 H199       -4.5040  -26.0012  -43.5619 H         1 UNK         0.0600 
    200 H200       -1.6937  -25.2418  -45.9502 H         1 UNK         0.3000 
    201 H201       -1.3256  -28.0751  -46.0689 H         1 UNK         0.0600 
    202 H202        0.3920  -26.5738  -45.1540 H         1 UNK         0.0600 
    203 H203        0.5723  -25.7595  -46.7058 H         1 UNK         0.0600 
    204 H204        1.0531  -27.4439  -46.5297 H         1 UNK         0.0600 
    205 H205       -1.1096  -25.5250  -48.6376 H         1 UNK         0.3000 
    206 H206       -0.6725  -27.6544  -50.6834 H         1 UNK         0.0600 
    207 H207       -0.1366  -24.6423  -50.7033 H         1 UNK         0.0600 
    208 H208        1.0603  -25.9206  -50.5487 H         1 UNK         0.0600 
    209 H209        0.1651  -25.7359  -52.0491 H         1 UNK         0.0600 
    210 H210       -2.2618  -28.1640  -52.0587 H         1 UNK         0.3000 
    211 H211       -4.8503  -27.0274  -52.0279 H         1 UNK         0.0600 
    212 H212       -3.5033  -28.8261  -54.1128 H         1 UNK         0.0600 
    213 H213       -5.2336  -28.5334  -53.9845 H         1 UNK         0.0600 
    214 H214       -4.3930  -29.3698  -52.6896 H         1 UNK         0.0600 
    215 H215       -2.0284  -26.2580  -54.0039 H         1 UNK         0.3000 
    216 H216       -3.3498  -24.6485  -55.9828 H         1 UNK         0.0600 
    217 H217       -1.0316  -23.8390  -56.4448 H         1 UNK         0.0600 
    218 H218       -1.0779  -25.5906  -56.3253 H         1 UNK         0.0600 
    219 H219       -0.4477  -24.6307  -54.9860 H         1 UNK         0.0600 
    220 H220       -2.1429  -24.0047  -52.7070 H         1 UNK         0.3000 
    221 H221       -2.5497  -21.1011  -52.9174 H         1 UNK         0.0600 
    222 H222       -1.7764  -21.1388  -50.5411 H         1 UNK         0.0600 
    223 H223       -1.6604  -22.8897  -50.6080 H         1 UNK         0.0600 
    224 H224       -0.6202  -21.8963  -51.6256 H         1 UNK         0.0600 
    225 H225       -4.2355  -23.9745  -51.6728 H         1 UNK         0.3000 
    226 H226       -6.2594  -22.7325  -50.1763 H         1 UNK         0.0600 
    227 H227       -5.7867  -25.2406  -50.3490 H         1 UNK         0.0600 
    228 H228       -7.4873  -24.8170  -50.4674 H         1 UNK         0.0600 
    229 H229       -6.5897  -25.2357  -51.9158 H         1 UNK         0.0600 
    230 H230       -5.8986  -23.0587  -53.6602 H         1 UNK         0.3000 
    231 H231       -8.5042  -21.9983  -54.4062 H         1 UNK         0.0600 
    232 H232       -7.5229  -22.0819  -56.6907 H         1 UNK         0.0600 
    233 H233       -7.2826  -23.6064  -55.8509 H         1 UNK         0.0600 
    234 H234       -5.9433  -22.4741  -56.0204 H         1 UNK         0.0600 
    235 H235       -7.9587  -20.2543  -52.6709 H         1 UNK         0.3000 
    236 H236       -7.7483  -18.1103  -52.1118 H         1 UNK         0.0600 
    237 H237       -8.2864  -17.5996  -55.0851 H         1 UNK         0.0600 
    238 H238       -9.5155  -17.9466  -53.8697 H         1 UNK         0.0600 
    239 H239       -8.5762  -16.4676  -53.7695 H         1 UNK         0.0600 
    240 H240       -5.2518  -19.2743  -52.3784 H         1 UNK         0.3000 
    241 H241       -3.1150  -18.8862  -52.3908 H         1 UNK         0.0600 
    242 H242       -3.3199  -18.7815  -56.2663 H         1 UNK         0.3800 
    243 H243       -4.6720  -19.0529  -55.1989 H         1 UNK         0.3800 
    244 H244       -3.5667  -15.9007  -52.7337 H         1 UNK         0.0800 
    245 H245       -2.1073  -16.6680  -52.1888 H         1 UNK         0.0800 
    246 H246       -2.9118  -18.8312  -49.9740 H         1 UNK         0.0800 
    247 H247       -3.0235  -17.8538  -48.5328 H         1 UNK         0.0800 
@<TRIPOS>BOND
     1    1    2 1    
     2    1  127 1    
     3    1  128 1    
     4    1  129 1    
     5    2    3 2    
     6    2    4 am   BACKBONE|DICT|INTERRES
     7    4    5 1    
     8    4  130 1    
     9    5    6 1    
    10    5   65 1    
    11    5  131 1    
    12    6    7 1    
    13    6  132 1    
    14    6  133 1    
    15    7    8 1    
    16    8    9 1    
    17    8  134 1    
    18    8  135 1    
    19    9   10 ar   
    20    9   14 ar   
    21   10   11 ar   
    22   10  136 1    
    23   11   12 ar   
    24   11  126 1    
    25   12   13 ar   
    26   12  137 1    
    27   13   14 ar   
    28   13   15 1    
    29   14  138 1    
    30   15   16 1    
    31   15  139 1    
    32   15  140 1    
    33   16   17 1    
    34   17   18 1    
    35   17  141 1    
    36   17  142 1    
    37   18   19 1    
    38   18   67 1    
    39   18  143 1    
    40   19   20 am   BACKBONE|DICT|INTERRES
    41   19  144 1    
    42   20   21 2    
    43   20   22 1    
    44   22   23 1    
    45   22   24 1    
    46   22  145 1    
    47   23  146 1    
    48   23  147 1    
    49   23  148 1    
    50   24   25 am   BACKBONE|DICT|INTERRES
    51   24  149 1    
    52   25   26 2    
    53   25   27 1    
    54   27   28 1    
    55   27   29 1    
    56   27  150 1    
    57   28  151 1    
    58   28  152 1    
    59   28  153 1    
    60   29   30 am   BACKBONE|DICT|INTERRES
    61   29  154 1    
    62   30   31 2    
    63   30   32 1    
    64   32   33 1    
    65   32   34 1    
    66   32  155 1    
    67   33  156 1    
    68   33  157 1    
    69   33  158 1    
    70   34   35 am   BACKBONE|DICT|INTERRES
    71   34  159 1    
    72   35   36 2    
    73   35   37 1    
    74   37   38 1    
    75   37   39 1    
    76   37  160 1    
    77   38  161 1    
    78   38  162 1    
    79   38  163 1    
    80   39   40 am   BACKBONE|DICT|INTERRES
    81   39  164 1    
    82   40   41 2    
    83   40   42 1    
    84   42   43 1    
    85   42   44 1    
    86   42  165 1    
    87   43  166 1    
    88   43  167 1    
    89   43  168 1    
    90   44   45 am   BACKBONE|DICT|INTERRES
    91   44  169 1    
    92   45   46 2    
    93   45   47 1    
    94   47   48 1    
    95   47   49 1    
    96   47  170 1    
    97   48  171 1    
    98   48  172 1    
    99   48  173 1    
   100   49   50 am   BACKBONE|DICT|INTERRES
   101   49  174 1    
   102   50   51 2    
   103   50   52 1    
   104   52   53 1    
   105   52   54 1    
   106   52  175 1    
   107   53  176 1    
   108   53  177 1    
   109   53  178 1    
   110   54   55 am   BACKBONE|DICT|INTERRES
   111   54  179 1    
   112   55   56 2    
   113   55   57 1    
   114   57   58 1    
   115   57   59 1    
   116   57  180 1    
   117   58  181 1    
   118   58  182 1    
   119   58  183 1    
   120   59   60 am   BACKBONE|DICT|INTERRES
   121   59  184 1    
   122   60   61 2    
   123   60   62 1    
   124   62   63 1    
   125   62   64 1    
   126   62  185 1    
   127   63  186 1    
   128   63  187 1    
   129   63  188 1    
   130   64   65 am   BACKBONE|DICT|INTERRES
   131   64  189 1    
   132   65   66 2    
   133   67   68 2    
   134   67   69 am   BACKBONE|DICT|INTERRES
   135   69   70 1    
   136   69  190 1    
   137   70   71 1    
   138   70   72 1    
   139   70  191 1    
   140   71  192 1    
   141   71  193 1    
   142   71  194 1    
   143   72   73 2    
   144   72   74 am   BACKBONE|DICT|INTERRES
   145   74   75 1    
   146   74  195 1    
   147   75   76 1    
   148   75   77 1    
   149   75  196 1    
   150   76  197 1    
   151   76  198 1    
   152   76  199 1    
   153   77   78 2    
   154   77   79 am   BACKBONE|DICT|INTERRES
   155   79   80 1    
   156   79  200 1    
   157   80   81 1    
   158   80   82 1    
   159   80  201 1    
   160   81  202 1    
   161   81  203 1    
   162   81  204 1    
   163   82   83 2    
   164   82   84 am   BACKBONE|DICT|INTERRES
   165   84   85 1    
   166   84  205 1    
   167   85   86 1    
   168   85   87 1    
   169   85  206 1    
   170   86  207 1    
   171   86  208 1    
   172   86  209 1    
   173   87   88 2    
   174   87   89 am   BACKBONE|DICT|INTERRES
   175   89   90 1    
   176   89  210 1    
   177   90   91 1    
   178   90   92 1    
   179   90  211 1    
   180   91  212 1    
   181   91  213 1    
   182   91  214 1    
   183   92   93 2    
   184   92   94 am   BACKBONE|DICT|INTERRES
   185   94   95 1    
   186   94  215 1    
   187   95   96 1    
   188   95   97 1    
   189   95  216 1    
   190   96  217 1    
   191   96  218 1    
   192   96  219 1    
   193   97   98 2    
   194   97   99 am   BACKBONE|DICT|INTERRES
   195   99  100 1    
   196   99  220 1    
   197  100  101 1    
   198  100  102 1    
   199  100  221 1    
   200  101  222 1    
   201  101  223 1    
   202  101  224 1    
   203  102  103 2    
   204  102  104 am   BACKBONE|DICT|INTERRES
   205  104  105 1    
   206  104  225 1    
   207  105  106 1    
   208  105  107 1    
   209  105  226 1    
   210  106  227 1    
   211  106  228 1    
   212  106  229 1    
   213  107  108 2    
   214  107  109 am   BACKBONE|DICT|INTERRES
   215  109  110 1    
   216  109  230 1    
   217  110  111 1    
   218  110  112 1    
   219  110  231 1    
   220  111  232 1    
   221  111  233 1    
   222  111  234 1    
   223  112  113 2    
   224  112  114 am   BACKBONE|DICT|INTERRES
   225  114  115 1    
   226  114  235 1    
   227  115  116 1    
   228  115  117 1    
   229  115  236 1    
   230  116  237 1    
   231  116  238 1    
   232  116  239 1    
   233  117  118 2    
   234  117  119 am   BACKBONE|DICT|INTERRES
   235  119  120 1    
   236  119  240 1    
   237  120  121 1    
   238  120  124 1    
   239  120  241 1    
   240  121  122 am   BACKBONE|DICT|INTERRES
   241  121  123 2    
   242  122  242 1    
   243  122  243 1    
   244  124  125 1    
   245  124  244 1    
   246  124  245 1    
   247  125  126 1    
   248  126  246 1    
   249  126  247 1    
@<TRIPOS>SUBSTRUCTURE
     1 UNK         1 GROUP             0       ****    0 ROOT    
