@<TRIPOS>MOLECULE
3R540
247   249    1
SMALL
USER_CHARGES


@<TRIPOS>ATOM
      1 CA         -0.8533  -12.3422  -47.0528 C.3       0 UNK        -0.1800 
      2 C           0.4856  -12.0688  -47.7228 C.2       0 UNK         0.5000 
      3 O           1.1946  -11.1480  -47.3183 O.2       0 UNK        -0.5000 
      4 N           0.8381  -12.8700  -48.7383 N.am      1 UNK        -0.5000 
      5 CA          2.0473  -12.7412  -49.5716 C.3       1 UNK         0.1400 
      6 C6          2.1095  -13.8064  -50.6955 C.3       23 UNK        -0.0398 
      7 S7          0.5607  -13.9859  -51.6445 S.3       23 UNK        -0.2404 
      8 C8         -0.1183  -15.5296  -50.9501 C.3       23 UNK        -0.0205 
      9 C9          0.7264  -16.7470  -51.2965 C.ar      23 UNK        -0.0193 
     10 C10         0.6835  -17.2755  -52.5884 C.ar      23 UNK        -0.1150 
     11 C11         1.4144  -18.4217  -52.9099 C.ar      23 UNK        -0.0193 
     12 C12         2.2093  -19.0279  -51.9339 C.ar      23 UNK        -0.1150 
     13 C13         2.2692  -18.5071  -50.6381 C.ar      23 UNK        -0.0193 
     14 C14         1.5245  -17.3638  -50.3262 C.ar      23 UNK        -0.1150 
     15 C15         3.1513  -19.1844  -49.5929 C.3       23 UNK        -0.0205 
     16 S16         2.2856  -19.5586  -48.0324 S.3       23 UNK        -0.2404 
     17 C17         0.8732  -20.5661  -48.5951 C.3       23 UNK        -0.0398 
     18 CA          0.6366  -21.8471  -47.7526 C.3       11 UNK         0.1400 
     19 N           0.5102  -21.6090  -46.3062 N.am      11 UNK        -0.5000 
     20 C           0.3970  -22.5802  -45.3840 C.2       10 UNK         0.5000 
     21 O           0.4911  -23.7801  -45.6442 O.2       10 UNK        -0.5000 
     22 CA          0.0540  -22.1594  -43.9416 C.3       10 UNK         0.1400 
     23 CB          1.3184  -21.8427  -43.1291 C.3       10 UNK        -0.1800 
     24 N          -0.8799  -21.0329  -43.8977 N.am      10 UNK        -0.5000 
     25 C          -2.1628  -21.1128  -44.2810 C.2       9 UNK         0.5000 
     26 O          -2.6986  -22.1629  -44.6318 O.2       9 UNK        -0.5000 
     27 CA         -2.9753  -19.8043  -44.3308 C.3       9 UNK         0.1400 
     28 CB         -3.6466  -19.5249  -42.9787 C.3       9 UNK        -0.1800 
     29 N          -2.1723  -18.6509  -44.7393 N.am      9 UNK        -0.5000 
     30 C          -1.5919  -18.5232  -45.9409 C.2       8 UNK         0.5000 
     31 O          -1.7473  -19.3364  -46.8513 O.2       8 UNK        -0.5000 
     32 CA         -0.6257  -17.3348  -46.1314 C.3       8 UNK         0.1400 
     33 CB         -1.3745  -16.0686  -46.5674 C.3       8 UNK        -0.1800 
     34 N           0.1684  -17.0506  -44.9306 N.am      8 UNK        -0.5000 
     35 C           1.0582  -17.9081  -44.4081 C.2       7 UNK         0.5000 
     36 O           1.3357  -18.9890  -44.9216 O.2       7 UNK        -0.5000 
     37 CA          1.6821  -17.5440  -43.0501 C.3       7 UNK         0.1400 
     38 CB          2.8585  -16.5717  -43.2007 C.3       7 UNK        -0.1800 
     39 N           0.6892  -16.9830  -42.1379 N.am      7 UNK        -0.5000 
     40 C          -0.2553  -17.7097  -41.5249 C.2       6 UNK         0.5000 
     41 O          -0.3452  -18.9330  -41.6245 O.2       6 UNK        -0.5000 
     42 CA         -1.2911  -16.9355  -40.6882 C.3       6 UNK         0.1400 
     43 CB         -0.7974  -16.7647  -39.2440 C.3       6 UNK        -0.1800 
     44 N          -1.6033  -15.6198  -41.2498 N.am      6 UNK        -0.5000 
     45 C          -2.2280  -15.4203  -42.4194 C.2       5 UNK         0.5000 
     46 O          -2.6444  -16.3296  -43.1340 O.2       5 UNK        -0.5000 
     47 CA         -2.3573  -13.9626  -42.8953 C.3       5 UNK         0.1400 
     48 CB         -3.6410  -13.3242  -42.3453 C.3       5 UNK        -0.1800 
     49 N          -1.2027  -13.1452  -42.5153 N.am      5 UNK        -0.5000 
     50 C           0.0317  -13.3140  -43.0040 C.2       4 UNK         0.5000 
     51 O           0.3284  -14.1683  -43.8446 O.2       4 UNK        -0.5000 
     52 CA          1.1229  -12.4085  -42.4266 C.3       4 UNK         0.1400 
     53 CB          1.9267  -13.1414  -41.3379 C.3       4 UNK        -0.1800 
     54 N           1.9973  -11.9918  -43.5139 N.am      4 UNK        -0.5000 
     55 C           2.7596  -10.8926  -43.5155 C.2       3 UNK         0.5000 
     56 O           2.8599  -10.1379  -42.5462 O.2       3 UNK        -0.5000 
     57 CA          3.4965  -10.5519  -44.8269 C.3       3 UNK         0.1400 
     58 CB          4.8360   -9.8198  -44.5966 C.3       3 UNK        -0.1800 
     59 N           3.6506  -11.6926  -45.7370 N.am      3 UNK        -0.5000 
     60 C           4.4519  -12.7611  -45.6017 C.2       2 UNK         0.5000 
     61 O           5.1889  -12.9408  -44.6320 O.2       2 UNK        -0.5000 
     62 CA          4.4278  -13.8113  -46.7364 C.3       2 UNK         0.1400 
     63 CB          4.3175  -15.2464  -46.1973 C.3       2 UNK        -0.1800 
     64 N           3.3341  -13.6078  -47.6848 N.am      2 UNK        -0.5000 
     65 C           3.3569  -12.8065  -48.7568 C.2       1 UNK         0.5000 
     66 O           4.3331  -12.1389  -49.0987 O.2       1 UNK        -0.5000 
     67 C          -0.5956  -22.6029  -48.2888 C.2       11 UNK         0.5000 
     68 O          -0.4380  -23.6415  -48.9303 O.2       11 UNK        -0.5000 
     69 N          -1.7928  -22.0982  -47.9536 N.am      12 UNK        -0.5000 
     70 CA         -3.0803  -22.6886  -48.3189 C.3       12 UNK         0.1400 
     71 CB         -4.2167  -21.7669  -47.8551 C.3       12 UNK        -0.1800 
     72 C          -3.2766  -24.1132  -47.7699 C.2       12 UNK         0.5000 
     73 O          -3.7783  -24.9771  -48.4885 O.2       12 UNK        -0.5000 
     74 N          -2.8523  -24.3453  -46.5200 N.am      13 UNK        -0.5000 
     75 CA         -2.8629  -25.6559  -45.8710 C.3       13 UNK         0.1400 
     76 CB         -2.5193  -25.5007  -44.3822 C.3       13 UNK        -0.1800 
     77 C          -1.9155  -26.6623  -46.5488 C.2       13 UNK         0.5000 
     78 O          -2.3002  -27.8167  -46.7363 O.2       13 UNK        -0.5000 
     79 N          -0.7139  -26.2059  -46.9312 N.am      14 UNK        -0.5000 
     80 CA          0.2790  -26.9982  -47.6601 C.3       14 UNK         0.1400 
     81 CB          1.6272  -26.2615  -47.6626 C.3       14 UNK        -0.1800 
     82 C          -0.1676  -27.3374  -49.0951 C.2       14 UNK         0.5000 
     83 O           0.0429  -28.4641  -49.5460 O.2       14 UNK        -0.5000 
     84 N          -0.7987  -26.3702  -49.7748 N.am      15 UNK        -0.5000 
     85 CA         -1.3909  -26.5315  -51.1053 C.3       15 UNK         0.1400 
     86 CB         -1.6798  -25.1417  -51.6910 C.3       15 UNK        -0.1800 
     87 C          -2.6769  -27.3823  -51.1054 C.2       15 UNK         0.5000 
     88 O          -3.0422  -27.9200  -52.1514 O.2       15 UNK        -0.5000 
     89 N          -3.3384  -27.4698  -49.9424 N.am      16 UNK        -0.5000 
     90 CA         -4.6323  -28.1073  -49.6811 C.3       16 UNK         0.1400 
     91 CB         -4.5708  -29.6271  -49.9400 C.3       16 UNK        -0.1800 
     92 C          -5.8040  -27.4097  -50.4070 C.2       16 UNK         0.5000 
     93 O          -6.8035  -28.0547  -50.7295 O.2       16 UNK        -0.5000 
     94 N          -5.6667  -26.0988  -50.6336 N.am      17 UNK        -0.5000 
     95 CA         -6.6333  -25.2189  -51.2790 C.3       17 UNK         0.1400 
     96 CB         -6.7097  -25.5034  -52.7910 C.3       17 UNK        -0.1800 
     97 C          -6.1843  -23.7756  -51.0299 C.2       17 UNK         0.5000 
     98 O          -4.9854  -23.5015  -51.0914 O.2       17 UNK        -0.5000 
     99 N          -7.1432  -22.8765  -50.7837 N.am      18 UNK        -0.5000 
    100 CA        -6.9065  -21.4628  -50.4680 C.3       18 UNK         0.1400 
    101 CB        -7.8494  -21.0507  -49.3241 C.3       18 UNK        -0.1800 
    102 C         -7.0563  -20.5323  -51.6875 C.2       18 UNK         0.5000 
    103 O         -7.1496  -19.3155  -51.5111 O.2       18 UNK        -0.5000 
    104 N         -7.0796  -21.1079  -52.8988 N.am      19 UNK        -0.5000 
    105 CA        -7.1979  -20.4138  -54.1829 C.3       19 UNK         0.1400 
    106 CB        -7.1090  -21.4455  -55.3176 C.3       19 UNK        -0.1800 
    107 C         -6.1245  -19.3234  -54.3537 C.2       19 UNK         0.5000 
    108 O         -4.9336  -19.6265  -54.2437 O.2       19 UNK        -0.5000 
    109 N         -6.5746  -18.0754  -54.5520 N.am      20 UNK        -0.5000 
    110 CA        -5.7757  -16.8474  -54.6855 C.3       20 UNK         0.1400 
    111 CB        -4.9845  -16.8739  -56.0103 C.3       20 UNK        -0.1800 
    112 C         -4.8673  -16.5423  -53.4699 C.2       20 UNK         0.5000 
    113 O         -3.8642  -15.8448  -53.6228 O.2       20 UNK        -0.5000 
    114 N         -5.2076  -17.1079  -52.2995 N.am      21 UNK        -0.5000 
    115 CA        -4.4235  -17.1617  -51.0566 C.3       21 UNK         0.1400 
    116 CB        -4.1513  -15.7510  -50.4929 C.3       21 UNK        -0.1800 
    117 C         -3.1379  -18.0168  -51.1538 C.2       21 UNK         0.5000 
    118 O         -2.3961  -18.0968  -50.1754 O.2       21 UNK        -0.5000 
    119 N         -2.9120  -18.6583  -52.3065 N.am      22 UNK        -0.5000 
    120 CA        -1.8636  -19.6549  -52.5404 C.3       22 UNK         0.1400 
    121 C         -2.3211  -21.0614  -52.0795 C.2       22 UNK         0.5000 
    122 N         -3.5616  -21.4464  -52.3551 N.am      22 UNK        -0.7600 
    123 O         -1.5601  -21.7839  -51.4475 O.2       22 UNK        -0.5000 
    124 C124       -1.4278  -19.6433  -54.0295 C.3       23 UNK        -0.0398 
    125 S125        0.1835  -20.4492  -54.3291 S.3       23 UNK        -0.2404 
    126 C126        1.3209  -19.0269  -54.3009 C.3       23 UNK        -0.0205 
    127 H127       -0.6977  -12.7474  -46.0533 H         1 UNK         0.0600 
    128 H128       -1.4539  -13.0515  -47.6225 H         1 UNK         0.0600 
    129 H129       -1.4225  -11.4173  -46.9608 H         1 UNK         0.0600 
    130 H130        0.1916  -13.5827  -49.0408 H         1 UNK         0.3000 
    131 H131        2.0038  -11.7555  -50.0395 H         1 UNK         0.0600 
    132 H132        2.8964  -13.5464  -51.4058 H         1 UNK         0.0800 
    133 H133        2.3954  -14.7765  -50.2895 H         1 UNK         0.0800 
    134 H134       -0.2353  -15.4371  -49.8697 H         1 UNK         0.0800 
    135 H135       -1.1222  -15.6750  -51.3501 H         1 UNK         0.0800 
    136 H136        0.0592  -16.8053  -53.3352 H         1 UNK         0.1150 
    137 H137        2.7714  -19.9165  -52.1851 H         1 UNK         0.1150 
    138 H138        1.5602  -16.9623  -49.3234 H         1 UNK         0.1150 
    139 H139        3.5725  -20.1119  -49.9838 H         1 UNK         0.0800 
    140 H140        3.9971  -18.5314  -49.3749 H         1 UNK         0.0800 
    141 H141        1.0337  -20.8474  -49.6376 H         1 UNK         0.0800 
    142 H142       -0.0075  -19.9236  -48.6020 H         1 UNK         0.0800 
    143 H143        1.5034  -22.4967  -47.8913 H         1 UNK         0.0600 
    144 H144        0.4804  -20.6416  -46.0047 H         1 UNK         0.3000 
    145 H145       -0.4359  -23.0080  -43.4599 H         1 UNK         0.0600 
    146 H146        1.0689  -21.5234  -42.1170 H         1 UNK         0.0600 
    147 H147        1.9516  -22.7267  -43.0451 H         1 UNK         0.0600 
    148 H148        1.9195  -21.0605  -43.5893 H         1 UNK         0.0600 
    149 H149       -0.5098  -20.1400  -43.5985 H         1 UNK         0.3000 
    150 H150       -3.7643  -19.9337  -45.0738 H         1 UNK         0.0600 
    151 H151       -4.2907  -20.3550  -42.6859 H         1 UNK         0.0600 
    152 H152       -4.2688  -18.6309  -43.0236 H         1 UNK         0.0600 
    153 H153       -2.9140  -19.3847  -42.1850 H         1 UNK         0.0600 
    154 H154       -2.0763  -17.8971  -44.0648 H         1 UNK         0.3000 
    155 H155        0.0670  -17.6042  -46.9316 H         1 UNK         0.0600 
    156 H156       -2.0784  -15.7323  -45.8061 H         1 UNK         0.0600 
    157 H157       -0.6767  -15.2560  -46.7648 H         1 UNK         0.0600 
    158 H158       -1.9381  -16.2467  -47.4844 H         1 UNK         0.0600 
    159 H159        0.0102  -16.1624  -44.4685 H         1 UNK         0.3000 
    160 H160        2.0721  -18.4649  -42.6105 H         1 UNK         0.0600 
    161 H161        2.5422  -15.6113  -43.6056 H         1 UNK         0.0600 
    162 H162        3.6170  -16.9837  -43.8669 H         1 UNK         0.0600 
    163 H163        3.3398  -16.3865  -42.2404 H         1 UNK         0.0600 
    164 H164        0.6724  -15.9792  -42.0413 H         1 UNK         0.3000 
    165 H165       -2.2109  -17.5235  -40.6686 H         1 UNK         0.0600 
    166 H166       -1.5530  -16.2827  -38.6232 H         1 UNK         0.0600 
    167 H167       -0.5752  -17.7319  -38.7910 H         1 UNK         0.0600 
    168 H168        0.1113  -16.1631  -39.1962 H         1 UNK         0.0600 
    169 H169       -1.3000  -14.8148  -40.7223 H         1 UNK         0.3000 
    170 H170       -2.4217  -13.9738  -43.9855 H         1 UNK         0.0600 
    171 H171       -4.5187  -13.9052  -42.6319 H         1 UNK         0.0600 
    172 H172       -3.6283  -13.2638  -41.2564 H         1 UNK         0.0600 
    173 H173       -3.7786  -12.3161  -42.7366 H         1 UNK         0.0600 
    174 H174       -1.3686  -12.4223  -41.8295 H         1 UNK         0.3000 
    175 H175        0.6488  -11.5261  -41.9913 H         1 UNK         0.0600 
    176 H176        2.4649  -13.9980  -41.7430 H         1 UNK         0.0600 
    177 H177        2.6592  -12.4795  -40.8759 H         1 UNK         0.0600 
    178 H178        1.2740  -13.5053  -40.5435 H         1 UNK         0.0600 
    179 H179        1.9406  -12.5598  -44.3486 H         1 UNK         0.3000 
    180 H180        2.8412   -9.8550  -45.3511 H         1 UNK         0.0600 
    181 H181        5.5216  -10.4064  -43.9849 H         1 UNK         0.0600 
    182 H182        4.6783   -8.8700  -44.0845 H         1 UNK         0.0600 
    183 H183        5.3324   -9.5978  -45.5413 H         1 UNK         0.0600 
    184 H184        3.0477  -11.6542  -46.5518 H         1 UNK         0.3000 
    185 H185        5.3808  -13.7234  -47.2620 H         1 UNK         0.0600 
    186 H186        5.0686  -15.4517  -45.4337 H         1 UNK         0.0600 
    187 H187        3.3357  -15.4287  -45.7629 H         1 UNK         0.0600 
    188 H188        4.4631  -15.9751  -46.9951 H         1 UNK         0.0600 
    189 H189        2.4729  -14.0932  -47.4801 H         1 UNK         0.3000 
    190 H190       -1.8216  -21.2208  -47.4419 H         1 UNK         0.3000 
    191 H191       -3.1120  -22.7501  -49.4073 H         1 UNK         0.0600 
    192 H192       -4.1850  -21.5965  -46.7801 H         1 UNK         0.0600 
    193 H193       -5.1884  -22.2059  -48.0817 H         1 UNK         0.0600 
    194 H194       -4.1642  -20.7972  -48.3508 H         1 UNK         0.0600 
    195 H195       -2.5243  -23.5619  -45.9627 H         1 UNK         0.3000 
    196 H196       -3.8772  -26.0537  -45.9439 H         1 UNK         0.0600 
    197 H197       -2.5542  -26.4636  -43.8713 H         1 UNK         0.0600 
    198 H198       -3.2271  -24.8405  -43.8807 H         1 UNK         0.0600 
    199 H199       -1.5198  -25.0901  -44.2403 H         1 UNK         0.0600 
    200 H200       -0.4581  -25.2484  -46.7109 H         1 UNK         0.3000 
    201 H201        0.4131  -27.9405  -47.1248 H         1 UNK         0.0600 
    202 H202        1.9824  -26.0883  -46.6466 H         1 UNK         0.0600 
    203 H203        1.5589  -25.2941  -48.1605 H         1 UNK         0.0600 
    204 H204        2.3901  -26.8446  -48.1798 H         1 UNK         0.0600 
    205 H205       -0.8604  -25.4429  -49.3595 H         1 UNK         0.3000 
    206 H206       -0.6633  -27.0305  -51.7485 H         1 UNK         0.0600 
    207 H207       -0.7684  -24.5489  -51.7713 H         1 UNK         0.0600 
    208 H208       -2.1109  -25.2140  -52.6902 H         1 UNK         0.0600 
    209 H209       -2.3828  -24.5839  -51.0709 H         1 UNK         0.0600 
    210 H210       -2.9726  -26.9267  -49.1702 H         1 UNK         0.3000 
    211 H211       -4.8176  -27.9664  -48.6153 H         1 UNK         0.0600 
    212 H212       -4.4702  -29.8557  -51.0012 H         1 UNK         0.0600 
    213 H213       -5.4767  -30.1200  -49.5856 H         1 UNK         0.0600 
    214 H214       -3.7295  -30.0813  -49.4163 H         1 UNK         0.0600 
    215 H215       -4.8392  -25.6255  -50.2812 H         1 UNK         0.3000 
    216 H216       -7.6128  -25.3758  -50.8232 H         1 UNK         0.0600 
    217 H217       -5.7340  -25.3954  -53.2671 H         1 UNK         0.0600 
    218 H218       -7.3959  -24.8148  -53.2853 H         1 UNK         0.0600 
    219 H219       -7.0681  -26.5129  -52.9914 H         1 UNK         0.0600 
    220 H220       -8.1088  -23.1746  -50.7839 H         1 UNK         0.3000 
    221 H221       -5.8813  -21.3282  -50.1218 H         1 UNK         0.0600 
    222 H222       -7.7188  -21.6951  -48.4546 H         1 UNK         0.0600 
    223 H223       -8.8957  -21.1037  -49.6272 H         1 UNK         0.0600 
    224 H224       -7.6520  -20.0288  -48.9975 H         1 UNK         0.0600 
    225 H225       -6.9782  -22.1102  -52.9407 H         1 UNK         0.3000 
    226 H226       -8.1860  -19.9506  -54.2166 H         1 UNK         0.0600 
    227 H227       -7.9048  -22.1867  -55.2419 H         1 UNK         0.0600 
    228 H228       -7.2053  -20.9641  -56.2916 H         1 UNK         0.0600 
    229 H229       -6.1550  -21.9748  -55.3059 H         1 UNK         0.0600 
    230 H230       -7.5751  -17.9353  -54.5851 H         1 UNK         0.3000 
    231 H231       -6.4880  -16.0231  -54.7415 H         1 UNK         0.0600 
    232 H232       -4.2022  -17.6338  -55.9985 H         1 UNK         0.0600 
    233 H233       -4.5045  -15.9136  -56.2021 H         1 UNK         0.0600 
    234 H234       -5.6393  -17.0803  -56.8569 H         1 UNK         0.0600 
    235 H235       -6.0420  -17.6856  -52.2847 H         1 UNK         0.3000 
    236 H236       -5.0593  -17.6784  -50.3361 H         1 UNK         0.0600 
    237 H237       -3.6874  -15.8071  -49.5075 H         1 UNK         0.0600 
    238 H238       -3.4828  -15.1748  -51.1318 H         1 UNK         0.0600 
    239 H239       -5.0773  -15.1870  -50.3820 H         1 UNK         0.0600 
    240 H240       -3.6120  -18.5901  -53.0347 H         1 UNK         0.3000 
    241 H241       -1.0028  -19.3866  -51.9267 H         1 UNK         0.0600 
    242 H242       -3.9080  -22.3298  -51.9892 H         1 UNK         0.3800 
    243 H243       -4.1537  -20.8683  -52.9400 H         1 UNK         0.3800 
    244 H244       -1.3676  -18.6165  -54.3924 H         1 UNK         0.0800 
    245 H245       -2.1801  -20.1261  -54.6559 H         1 UNK         0.0800 
    246 H246        2.3099  -19.3582  -54.6207 H         1 UNK         0.0800 
    247 H247        0.9989  -18.2812  -55.0295 H         1 UNK         0.0800 
@<TRIPOS>BOND
     1    1    2 1    
     2    1  127 1    
     3    1  128 1    
     4    1  129 1    
     5    2    3 2    
     6    2    4 am   BACKBONE|DICT|INTERRES
     7    4    5 1    
     8    4  130 1    
     9    5    6 1    
    10    5   65 1    
    11    5  131 1    
    12    6    7 1    
    13    6  132 1    
    14    6  133 1    
    15    7    8 1    
    16    8    9 1    
    17    8  134 1    
    18    8  135 1    
    19    9   10 ar   
    20    9   14 ar   
    21   10   11 ar   
    22   10  136 1    
    23   11   12 ar   
    24   11  126 1    
    25   12   13 ar   
    26   12  137 1    
    27   13   14 ar   
    28   13   15 1    
    29   14  138 1    
    30   15   16 1    
    31   15  139 1    
    32   15  140 1    
    33   16   17 1    
    34   17   18 1    
    35   17  141 1    
    36   17  142 1    
    37   18   19 1    
    38   18   67 1    
    39   18  143 1    
    40   19   20 am   BACKBONE|DICT|INTERRES
    41   19  144 1    
    42   20   21 2    
    43   20   22 1    
    44   22   23 1    
    45   22   24 1    
    46   22  145 1    
    47   23  146 1    
    48   23  147 1    
    49   23  148 1    
    50   24   25 am   BACKBONE|DICT|INTERRES
    51   24  149 1    
    52   25   26 2    
    53   25   27 1    
    54   27   28 1    
    55   27   29 1    
    56   27  150 1    
    57   28  151 1    
    58   28  152 1    
    59   28  153 1    
    60   29   30 am   BACKBONE|DICT|INTERRES
    61   29  154 1    
    62   30   31 2    
    63   30   32 1    
    64   32   33 1    
    65   32   34 1    
    66   32  155 1    
    67   33  156 1    
    68   33  157 1    
    69   33  158 1    
    70   34   35 am   BACKBONE|DICT|INTERRES
    71   34  159 1    
    72   35   36 2    
    73   35   37 1    
    74   37   38 1    
    75   37   39 1    
    76   37  160 1    
    77   38  161 1    
    78   38  162 1    
    79   38  163 1    
    80   39   40 am   BACKBONE|DICT|INTERRES
    81   39  164 1    
    82   40   41 2    
    83   40   42 1    
    84   42   43 1    
    85   42   44 1    
    86   42  165 1    
    87   43  166 1    
    88   43  167 1    
    89   43  168 1    
    90   44   45 am   BACKBONE|DICT|INTERRES
    91   44  169 1    
    92   45   46 2    
    93   45   47 1    
    94   47   48 1    
    95   47   49 1    
    96   47  170 1    
    97   48  171 1    
    98   48  172 1    
    99   48  173 1    
   100   49   50 am   BACKBONE|DICT|INTERRES
   101   49  174 1    
   102   50   51 2    
   103   50   52 1    
   104   52   53 1    
   105   52   54 1    
   106   52  175 1    
   107   53  176 1    
   108   53  177 1    
   109   53  178 1    
   110   54   55 am   BACKBONE|DICT|INTERRES
   111   54  179 1    
   112   55   56 2    
   113   55   57 1    
   114   57   58 1    
   115   57   59 1    
   116   57  180 1    
   117   58  181 1    
   118   58  182 1    
   119   58  183 1    
   120   59   60 am   BACKBONE|DICT|INTERRES
   121   59  184 1    
   122   60   61 2    
   123   60   62 1    
   124   62   63 1    
   125   62   64 1    
   126   62  185 1    
   127   63  186 1    
   128   63  187 1    
   129   63  188 1    
   130   64   65 am   BACKBONE|DICT|INTERRES
   131   64  189 1    
   132   65   66 2    
   133   67   68 2    
   134   67   69 am   BACKBONE|DICT|INTERRES
   135   69   70 1    
   136   69  190 1    
   137   70   71 1    
   138   70   72 1    
   139   70  191 1    
   140   71  192 1    
   141   71  193 1    
   142   71  194 1    
   143   72   73 2    
   144   72   74 am   BACKBONE|DICT|INTERRES
   145   74   75 1    
   146   74  195 1    
   147   75   76 1    
   148   75   77 1    
   149   75  196 1    
   150   76  197 1    
   151   76  198 1    
   152   76  199 1    
   153   77   78 2    
   154   77   79 am   BACKBONE|DICT|INTERRES
   155   79   80 1    
   156   79  200 1    
   157   80   81 1    
   158   80   82 1    
   159   80  201 1    
   160   81  202 1    
   161   81  203 1    
   162   81  204 1    
   163   82   83 2    
   164   82   84 am   BACKBONE|DICT|INTERRES
   165   84   85 1    
   166   84  205 1    
   167   85   86 1    
   168   85   87 1    
   169   85  206 1    
   170   86  207 1    
   171   86  208 1    
   172   86  209 1    
   173   87   88 2    
   174   87   89 am   BACKBONE|DICT|INTERRES
   175   89   90 1    
   176   89  210 1    
   177   90   91 1    
   178   90   92 1    
   179   90  211 1    
   180   91  212 1    
   181   91  213 1    
   182   91  214 1    
   183   92   93 2    
   184   92   94 am   BACKBONE|DICT|INTERRES
   185   94   95 1    
   186   94  215 1    
   187   95   96 1    
   188   95   97 1    
   189   95  216 1    
   190   96  217 1    
   191   96  218 1    
   192   96  219 1    
   193   97   98 2    
   194   97   99 am   BACKBONE|DICT|INTERRES
   195   99  100 1    
   196   99  220 1    
   197  100  101 1    
   198  100  102 1    
   199  100  221 1    
   200  101  222 1    
   201  101  223 1    
   202  101  224 1    
   203  102  103 2    
   204  102  104 am   BACKBONE|DICT|INTERRES
   205  104  105 1    
   206  104  225 1    
   207  105  106 1    
   208  105  107 1    
   209  105  226 1    
   210  106  227 1    
   211  106  228 1    
   212  106  229 1    
   213  107  108 2    
   214  107  109 am   BACKBONE|DICT|INTERRES
   215  109  110 1    
   216  109  230 1    
   217  110  111 1    
   218  110  112 1    
   219  110  231 1    
   220  111  232 1    
   221  111  233 1    
   222  111  234 1    
   223  112  113 2    
   224  112  114 am   BACKBONE|DICT|INTERRES
   225  114  115 1    
   226  114  235 1    
   227  115  116 1    
   228  115  117 1    
   229  115  236 1    
   230  116  237 1    
   231  116  238 1    
   232  116  239 1    
   233  117  118 2    
   234  117  119 am   BACKBONE|DICT|INTERRES
   235  119  120 1    
   236  119  240 1    
   237  120  121 1    
   238  120  124 1    
   239  120  241 1    
   240  121  122 am   BACKBONE|DICT|INTERRES
   241  121  123 2    
   242  122  242 1    
   243  122  243 1    
   244  124  125 1    
   245  124  244 1    
   246  124  245 1    
   247  125  126 1    
   248  126  246 1    
   249  126  247 1    
@<TRIPOS>SUBSTRUCTURE
     1 UNK         1 GROUP             0       ****    0 ROOT    
