@<TRIPOS>MOLECULE
3R540
247   249    1
SMALL
USER_CHARGES


@<TRIPOS>ATOM
      1 CA          4.8860  -10.2387  -47.2594 C.3       0 UNK        -0.1800 
      2 C           3.7941  -11.2919  -47.3741 C.2       0 UNK         0.5000 
      3 O           2.6247  -10.9426  -47.5385 O.2       0 UNK        -0.5000 
      4 N           4.1677  -12.5761  -47.2724 N.am      1 UNK        -0.5000 
      5 CA          3.2796  -13.7444  -47.3075 C.3       1 UNK         0.1400 
      6 C6          2.6938  -13.9982  -48.7251 C.3       23 UNK        -0.0398 
      7 S7          1.9284  -15.6488  -48.8887 S.3       23 UNK        -0.2404 
      8 C8          3.1161  -16.5074  -49.9602 C.3       23 UNK        -0.0205 
      9 C9          2.7145  -17.9555  -50.2086 C.ar      23 UNK        -0.0193 
     10 C10         2.0263  -18.3114  -51.3737 C.ar      23 UNK        -0.1150 
     11 C11         1.7366  -19.6552  -51.6548 C.ar      23 UNK        -0.0193 
     12 C12         2.1382  -20.6354  -50.7402 C.ar      23 UNK        -0.1150 
     13 C13         2.8216  -20.2949  -49.5683 C.ar      23 UNK        -0.0193 
     14 C14         3.0947  -18.9501  -49.3037 C.ar      23 UNK        -0.1150 
     15 C15         3.3561  -21.3793  -48.6378 C.3       23 UNK        -0.0205 
     16 S16         2.0729  -22.4998  -47.9926 S.3       23 UNK        -0.2404 
     17 C17         1.1762  -21.4090  -46.8397 C.3       23 UNK        -0.0398 
     18 CA         -0.3583  -21.5569  -46.9594 C.3       11 UNK         0.1400 
     19 N          -1.0522  -21.0292  -45.7819 N.am      11 UNK        -0.5000 
     20 C          -2.3676  -21.1460  -45.5487 C.2       10 UNK         0.5000 
     21 O          -3.1388  -21.7732  -46.2748 O.2       10 UNK        -0.5000 
     22 CA         -2.9249  -20.3812  -44.3340 C.3       10 UNK         0.1400 
     23 CB         -2.6906  -21.1610  -43.0319 C.3       10 UNK        -0.1800 
     24 N          -2.3543  -19.0388  -44.2159 N.am      10 UNK        -0.5000 
     25 C          -2.5229  -18.0633  -45.1201 C.2       9 UNK         0.5000 
     26 O          -3.2397  -18.1711  -46.1148 O.2       9 UNK        -0.5000 
     27 CA         -1.7150  -16.7710  -44.9019 C.3       9 UNK         0.1400 
     28 CB         -2.4031  -15.8746  -43.8580 C.3       9 UNK        -0.1800 
     29 N          -0.3253  -17.0398  -44.5158 N.am      9 UNK        -0.5000 
     30 C           0.5619  -17.6761  -45.2972 C.2       8 UNK         0.5000 
     31 O           0.3187  -18.0266  -46.4483 O.2       8 UNK        -0.5000 
     32 CA          1.9188  -18.0604  -44.6809 C.3       8 UNK         0.1400 
     33 CB          2.9644  -16.9563  -44.8646 C.3       8 UNK        -0.1800 
     34 N           1.8030  -18.4023  -43.2664 N.am      8 UNK        -0.5000 
     35 C           1.2322  -19.5263  -42.8128 C.2       7 UNK         0.5000 
     36 O           0.8021  -20.4168  -43.5456 O.2       7 UNK        -0.5000 
     37 CA          1.0658  -19.6398  -41.2866 C.3       7 UNK         0.1400 
     38 CB          2.3589  -20.1516  -40.6353 C.3       7 UNK        -0.1800 
     39 N           0.6873  -18.3611  -40.6809 N.am      7 UNK        -0.5000 
     40 C          -0.4803  -17.7397  -40.9018 C.2       6 UNK         0.5000 
     41 O          -1.3876  -18.2247  -41.5765 O.2       6 UNK        -0.5000 
     42 CA         -0.6415  -16.3245  -40.3144 C.3       6 UNK         0.1400 
     43 CB         -1.2812  -16.3905  -38.9200 C.3       6 UNK        -0.1800 
     44 N           0.6270  -15.5948  -40.2328 N.am      6 UNK        -0.5000 
     45 C           1.3227  -15.1529  -41.2892 C.2       5 UNK         0.5000 
     46 O           0.9581  -15.2910  -42.4582 O.2       5 UNK        -0.5000 
     47 CA          2.6910  -14.5358  -40.9778 C.3       5 UNK         0.1400 
     48 CB          3.7802  -15.6249  -40.9923 C.3       5 UNK        -0.1800 
     49 N           3.0300  -13.4845  -41.9355 N.am      5 UNK        -0.5000 
     50 C           3.8834  -12.4853  -41.6677 C.2       4 UNK         0.5000 
     51 O           4.4365  -12.3396  -40.5763 O.2       4 UNK        -0.5000 
     52 CA          4.1813  -11.4734  -42.7856 C.3       4 UNK         0.1400 
     53 CB          5.2910  -11.9977  -43.7115 C.3       4 UNK        -0.1800 
     54 N           2.9925  -11.1550  -43.5731 N.am      4 UNK        -0.5000 
     55 C           2.1591  -10.1383  -43.3087 C.2       3 UNK         0.5000 
     56 O           2.3055   -9.3706  -42.3566 O.2       3 UNK        -0.5000 
     57 CA          0.9728   -9.9147  -44.2682 C.3       3 UNK         0.1400 
     58 CB          1.2572   -8.7310  -45.2059 C.3       3 UNK        -0.1800 
     59 N           0.6641  -11.0959  -45.0731 N.am      3 UNK        -0.5000 
     60 C          -0.0504  -12.1397  -44.6291 C.2       2 UNK         0.5000 
     61 O          -0.5976  -12.1702  -43.5269 O.2       2 UNK        -0.5000 
     62 CA         -0.1588  -13.3648  -45.5593 C.3       2 UNK         0.1400 
     63 CB         -1.4772  -13.3241  -46.3472 C.3       2 UNK        -0.1800 
     64 N           0.9487  -13.5093  -46.5038 N.am      2 UNK        -0.5000 
     65 C           2.2378  -13.6464  -46.1683 C.2       1 UNK         0.5000 
     66 O           2.6331  -13.6392  -45.0018 O.2       1 UNK        -0.5000 
     67 C          -0.8949  -20.9429  -48.2692 C.2       11 UNK         0.5000 
     68 O          -1.1829  -21.6854  -49.2068 O.2       11 UNK        -0.5000 
     69 N          -1.0685  -19.6145  -48.2915 N.am      12 UNK        -0.5000 
     70 CA         -1.6198  -18.8658  -49.4180 C.3       12 UNK         0.1400 
     71 CB         -1.4881  -17.3608  -49.1587 C.3       12 UNK        -0.1800 
     72 C          -3.0814  -19.2236  -49.7286 C.2       12 UNK         0.5000 
     73 O          -3.4546  -19.2519  -50.8994 O.2       12 UNK        -0.5000 
     74 N          -3.8825  -19.5011  -48.6926 N.am      13 UNK        -0.5000 
     75 CA         -5.2521  -19.9895  -48.8359 C.3       13 UNK         0.1400 
     76 CB         -5.9772  -19.9074  -47.4841 C.3       13 UNK        -0.1800 
     77 C          -5.2910  -21.4196  -49.4035 C.2       13 UNK         0.5000 
     78 O          -6.0395  -21.6785  -50.3471 O.2       13 UNK        -0.5000 
     79 N          -4.4707  -22.3119  -48.8298 N.am      14 UNK        -0.5000 
     80 CA         -4.3682  -23.7166  -49.2181 C.3       14 UNK         0.1400 
     81 CB         -3.5097  -24.4789  -48.1982 C.3       14 UNK        -0.1800 
     82 C          -3.8314  -23.9059  -50.6457 C.2       14 UNK         0.5000 
     83 O          -4.4756  -24.5855  -51.4490 O.2       14 UNK        -0.5000 
     84 N          -2.6700  -23.2929  -50.9141 N.am      15 UNK        -0.5000 
     85 CA         -1.9025  -23.1683  -52.1598 C.3       15 UNK         0.1400 
     86 CB         -2.6398  -22.2564  -53.1481 C.3       15 UNK        -0.1800 
     87 C          -1.4469  -24.4794  -52.8308 C.2       15 UNK         0.5000 
     88 O          -0.2899  -24.5760  -53.2399 O.2       15 UNK        -0.5000 
     89 N          -2.3466  -25.4604  -52.9174 N.am      16 UNK        -0.5000 
     90 CA         -2.1303  -26.8007  -53.4614 C.3       16 UNK         0.1400 
     91 CB         -3.0013  -26.9690  -54.7194 C.3       16 UNK        -0.1800 
     92 C          -2.4403  -27.8697  -52.3945 C.2       16 UNK         0.5000 
     93 O          -2.8228  -28.9876  -52.7424 O.2       16 UNK        -0.5000 
     94 N          -2.2946  -27.4944  -51.1124 N.am      17 UNK        -0.5000 
     95 CA         -2.6122  -28.2798  -49.9118 C.3       17 UNK         0.1400 
     96 CB         -1.6867  -29.5093  -49.7939 C.3       17 UNK        -0.1800 
     97 C          -4.1124  -28.6367  -49.8053 C.2       17 UNK         0.5000 
     98 O          -4.4609  -29.7077  -49.3046 O.2       17 UNK        -0.5000 
     99 N          -4.9707  -27.7277  -50.2832 N.am      18 UNK        -0.5000 
    100 CA        -6.4219  -27.8633  -50.3065 C.3       18 UNK         0.1400 
    101 CB        -6.8593  -28.3713  -51.6969 C.3       18 UNK        -0.1800 
    102 C         -7.0244  -26.5094  -49.9020 C.2       18 UNK         0.5000 
    103 O         -6.9197  -26.1317  -48.7347 O.2       18 UNK        -0.5000 
    104 N         -7.6095  -25.7933  -50.8658 N.am      19 UNK        -0.5000 
    105 CA        -8.1447  -24.4399  -50.7315 C.3       19 UNK         0.1400 
    106 CB        -9.5488  -24.4800  -50.0964 C.3       19 UNK        -0.1800 
    107 C         -8.1179  -23.7696  -52.1162 C.2       19 UNK         0.5000 
    108 O         -9.1207  -23.2029  -52.5538 O.2       19 UNK        -0.5000 
    109 N         -6.9866  -23.9191  -52.8195 N.am      20 UNK        -0.5000 
    110 CA        -6.8323  -23.5337  -54.2228 C.3       20 UNK         0.1400 
    111 CB        -5.7172  -24.3815  -54.8566 C.3       20 UNK        -0.1800 
    112 C         -6.6064  -22.0252  -54.4484 C.2       20 UNK         0.5000 
    113 O         -6.8517  -21.5645  -55.5631 O.2       20 UNK        -0.5000 
    114 N         -6.1851  -21.2983  -53.4003 N.am      21 UNK        -0.5000 
    115 CA        -5.9239  -19.8546  -53.3346 C.3       21 UNK         0.1400 
    116 CB        -7.2125  -19.0448  -53.5752 C.3       21 UNK        -0.1800 
    117 C         -4.7757  -19.3787  -54.2529 C.2       21 UNK         0.5000 
    118 O         -4.9140  -19.3580  -55.4771 O.2       21 UNK        -0.5000 
    119 N         -3.6672  -18.9563  -53.6358 N.am      22 UNK        -0.5000 
    120 CA        -2.4283  -18.4460  -54.2539 C.3       22 UNK         0.1400 
    121 C         -2.5692  -17.0560  -54.9580 C.2       22 UNK         0.5000 
    122 N         -3.6641  -16.7897  -55.6558 N.am      22 UNK        -0.7600 
    123 O         -1.6902  -16.2023  -54.8755 O.2       22 UNK        -0.5000 
    124 C124       -1.2513  -18.5073  -53.2364 C.3       23 UNK        -0.0398 
    125 S125        0.3657  -18.8115  -54.0253 S.3       23 UNK        -0.2404 
    126 C126        1.0747  -20.1176  -52.9580 C.3       23 UNK        -0.0205 
    127 H127        4.9053   -9.6194  -48.1561 H         1 UNK         0.0600 
    128 H128        5.8716  -10.6876  -47.1337 H         1 UNK         0.0600 
    129 H129        4.6937   -9.5937  -46.4018 H         1 UNK         0.0600 
    130 H130        5.1427  -12.7866  -47.1113 H         1 UNK         0.3000 
    131 H131        3.9134  -14.5969  -47.0586 H         1 UNK         0.0600 
    132 H132        3.4904  -13.9118  -49.4652 H         1 UNK         0.0800 
    133 H133        1.9651  -13.2347  -49.0010 H         1 UNK         0.0800 
    134 H134        4.1056  -16.4737  -49.5016 H         1 UNK         0.0800 
    135 H135        3.1978  -15.9732  -50.9081 H         1 UNK         0.0800 
    136 H136        1.7551  -17.5341  -52.0725 H         1 UNK         0.1150 
    137 H137        1.9467  -21.6776  -50.9557 H         1 UNK         0.1150 
    138 H138        3.6410  -18.6759  -48.4121 H         1 UNK         0.1150 
    139 H139        4.0860  -21.9735  -49.1890 H         1 UNK         0.0800 
    140 H140        3.8967  -20.9415  -47.7970 H         1 UNK         0.0800 
    141 H141        1.4807  -20.3727  -46.9886 H         1 UNK         0.0800 
    142 H142        1.5001  -21.6780  -45.8337 H         1 UNK         0.0800 
    143 H143       -0.5881  -22.6243  -46.9884 H         1 UNK         0.0600 
    144 H144       -0.4821  -20.5412  -45.0993 H         1 UNK         0.3000 
    145 H145       -4.0024  -20.2741  -44.4754 H         1 UNK         0.0600 
    146 H146       -3.1360  -20.6467  -42.1801 H         1 UNK         0.0600 
    147 H147       -1.6291  -21.2927  -42.8230 H         1 UNK         0.0600 
    148 H148       -3.1403  -22.1531  -43.0859 H         1 UNK         0.0600 
    149 H149       -1.8004  -18.8448  -43.3868 H         1 UNK         0.3000 
    150 H150       -1.6886  -16.2339  -45.8506 H         1 UNK         0.0600 
    151 H151       -3.3428  -15.4852  -44.2508 H         1 UNK         0.0600 
    152 H152       -1.7893  -15.0198  -43.5780 H         1 UNK         0.0600 
    153 H153       -2.6418  -16.4190  -42.9455 H         1 UNK         0.0600 
    154 H154       -0.0262  -16.7172  -43.6030 H         1 UNK         0.3000 
    155 H155        2.2806  -18.9412  -45.2147 H         1 UNK         0.0600 
    156 H156        3.0312  -16.6529  -45.9098 H         1 UNK         0.0600 
    157 H157        3.9540  -17.2968  -44.5603 H         1 UNK         0.0600 
    158 H158        2.7204  -16.0763  -44.2731 H         1 UNK         0.0600 
    159 H159        2.0928  -17.7001  -42.6034 H         1 UNK         0.3000 
    160 H160        0.2710  -20.3624  -41.0890 H         1 UNK         0.0600 
    161 H161        3.1878  -19.4574  -40.7799 H         1 UNK         0.0600 
    162 H162        2.6560  -21.1111  -41.0607 H         1 UNK         0.0600 
    163 H163        2.2280  -20.2995  -39.5632 H         1 UNK         0.0600 
    164 H164        1.3746  -17.9072  -40.0984 H         1 UNK         0.3000 
    165 H165       -1.3119  -15.7662  -40.9706 H         1 UNK         0.0600 
    166 H166       -1.4675  -15.3921  -38.5240 H         1 UNK         0.0600 
    167 H167       -2.2406  -16.9086  -38.9556 H         1 UNK         0.0600 
    168 H168       -0.6473  -16.9219  -38.2091 H         1 UNK         0.0600 
    169 H169        0.9989  -15.4486  -39.3051 H         1 UNK         0.3000 
    170 H170        2.6364  -14.1006  -39.9775 H         1 UNK         0.0600 
    171 H171        3.9023  -16.0564  -41.9864 H         1 UNK         0.0600 
    172 H172        4.7457  -15.2234  -40.6846 H         1 UNK         0.0600 
    173 H173        3.5381  -16.4375  -40.3064 H         1 UNK         0.0600 
    174 H174        2.6055  -13.5655  -42.8546 H         1 UNK         0.3000 
    175 H175        4.5579  -10.5627  -42.3148 H         1 UNK         0.0600 
    176 H176        5.0092  -12.9283  -44.2036 H         1 UNK         0.0600 
    177 H177        5.5366  -11.2690  -44.4833 H         1 UNK         0.0600 
    178 H178        6.2045  -12.1928  -43.1485 H         1 UNK         0.0600 
    179 H179        2.7658  -11.8037  -44.3188 H         1 UNK         0.3000 
    180 H180        0.1010   -9.6599  -43.6618 H         1 UNK         0.0600 
    181 H181        2.1455   -8.9014  -45.8144 H         1 UNK         0.0600 
    182 H182        1.4222   -7.8146  -44.6378 H         1 UNK         0.0600 
    183 H183        0.4190   -8.5490  -45.8786 H         1 UNK         0.0600 
    184 H184        1.0967  -11.1476  -45.9888 H         1 UNK         0.3000 
    185 H185       -0.1465  -14.2515  -44.9267 H         1 UNK         0.0600 
    186 H186       -1.5408  -12.4333  -46.9734 H         1 UNK         0.0600 
    187 H187       -1.5828  -14.1933  -46.9961 H         1 UNK         0.0600 
    188 H188       -2.3347  -13.3129  -45.6732 H         1 UNK         0.0600 
    189 H189        0.7032  -13.5108  -47.4827 H         1 UNK         0.3000 
    190 H190       -0.7426  -19.0614  -47.5013 H         1 UNK         0.3000 
    191 H191       -1.0156  -19.1138  -50.2912 H         1 UNK         0.0600 
    192 H192       -2.0721  -17.0440  -48.2947 H         1 UNK         0.0600 
    193 H193       -1.8262  -16.7823  -50.0190 H         1 UNK         0.0600 
    194 H194       -0.4509  -17.0947  -48.9739 H         1 UNK         0.0600 
    195 H195       -3.5262  -19.3794  -47.7505 H         1 UNK         0.3000 
    196 H196       -5.7757  -19.3371  -49.5380 H         1 UNK         0.0600 
    197 H197       -5.9989  -18.8829  -47.1121 H         1 UNK         0.0600 
    198 H198       -5.4963  -20.5257  -46.7261 H         1 UNK         0.0600 
    199 H199       -7.0107  -20.2437  -47.5753 H         1 UNK         0.0600 
    200 H200       -3.9020  -22.0168  -48.0406 H         1 UNK         0.3000 
    201 H201       -5.3729  -24.1320  -49.1847 H         1 UNK         0.0600 
    202 H202       -3.9397  -24.4119  -47.1986 H         1 UNK         0.0600 
    203 H203       -2.4926  -24.0883  -48.1487 H         1 UNK         0.0600 
    204 H204       -3.4493  -25.5369  -48.4519 H         1 UNK         0.0600 
    205 H205       -2.2464  -22.7685  -50.1484 H         1 UNK         0.3000 
    206 H206       -0.9877  -22.6510  -51.8684 H         1 UNK         0.0600 
    207 H207       -2.0521  -22.0849  -54.0507 H         1 UNK         0.0600 
    208 H208       -3.6003  -22.6683  -53.4465 H         1 UNK         0.0600 
    209 H209       -2.8285  -21.2895  -52.6884 H         1 UNK         0.0600 
    210 H210       -3.2660  -25.2745  -52.5199 H         1 UNK         0.3000 
    211 H211       -1.0848  -26.9336  -53.7458 H         1 UNK         0.0600 
    212 H212       -4.0637  -26.9453  -54.4754 H         1 UNK         0.0600 
    213 H213       -2.7982  -27.9194  -55.2142 H         1 UNK         0.0600 
    214 H214       -2.8053  -26.1786  -55.4441 H         1 UNK         0.0600 
    215 H215       -1.9552  -26.5581  -50.9464 H         1 UNK         0.3000 
    216 H216       -2.3968  -27.6341  -49.0599 H         1 UNK         0.0600 
    217 H217       -1.8157  -30.0045  -48.8308 H         1 UNK         0.0600 
    218 H218       -0.6380  -29.2223  -49.8710 H         1 UNK         0.0600 
    219 H219       -1.8904  -30.2483  -50.5692 H         1 UNK         0.0600 
    220 H220       -4.6077  -26.8609  -50.6553 H         1 UNK         0.3000 
    221 H221       -6.7501  -28.5848  -49.5554 H         1 UNK         0.0600 
    222 H222       -6.5070  -27.7235  -52.5009 H         1 UNK         0.0600 
    223 H223       -6.4595  -29.3679  -51.8854 H         1 UNK         0.0600 
    224 H224       -7.9453  -28.4441  -51.7689 H         1 UNK         0.0600 
    225 H225       -7.6420  -26.1774  -51.8004 H         1 UNK         0.3000 
    226 H226       -7.4929  -23.8558  -50.0821 H         1 UNK         0.0600 
    227 H227       -9.5224  -24.9296  -49.1039 H         1 UNK         0.0600 
    228 H228       -9.9557  -23.4745  -49.9833 H         1 UNK         0.0600 
    229 H229      -10.2474  -25.0541  -50.7059 H         1 UNK         0.0600 
    230 H230       -6.1761  -24.3325  -52.3674 H         1 UNK         0.3000 
    231 H231       -7.7578  -23.7838  -54.7464 H         1 UNK         0.0600 
    232 H232       -5.5066  -24.0619  -55.8780 H         1 UNK         0.0600 
    233 H233       -6.0095  -25.4305  -54.9019 H         1 UNK         0.0600 
    234 H234       -4.7873  -24.3257  -54.2948 H         1 UNK         0.0600 
    235 H235       -6.0507  -21.7856  -52.5214 H         1 UNK         0.3000 
    236 H236       -5.6272  -19.6651  -52.3030 H         1 UNK         0.0600 
    237 H237       -7.5920  -19.1700  -54.5896 H         1 UNK         0.0600 
    238 H238       -7.9997  -19.3443  -52.8831 H         1 UNK         0.0600 
    239 H239       -7.0338  -17.9795  -53.4247 H         1 UNK         0.0600 
    240 H240       -3.6484  -18.9986  -52.6166 H         1 UNK         0.3000 
    241 H241       -2.1938  -19.1458  -55.0580 H         1 UNK         0.0600 
    242 H242       -3.7714  -15.8992  -56.1151 H         1 UNK         0.3800 
    243 H243       -4.3613  -17.5184  -55.7701 H         1 UNK         0.3800 
    244 H244       -1.1993  -17.6058  -52.6238 H         1 UNK         0.0800 
    245 H245       -1.4183  -19.3265  -52.5399 H         1 UNK         0.0800 
    246 H246        1.8326  -20.6401  -53.5431 H         1 UNK         0.0800 
    247 H247        0.3057  -20.8579  -52.7376 H         1 UNK         0.0800 
@<TRIPOS>BOND
     1    1    2 1    
     2    1  127 1    
     3    1  128 1    
     4    1  129 1    
     5    2    3 2    
     6    2    4 am   BACKBONE|DICT|INTERRES
     7    4    5 1    
     8    4  130 1    
     9    5    6 1    
    10    5   65 1    
    11    5  131 1    
    12    6    7 1    
    13    6  132 1    
    14    6  133 1    
    15    7    8 1    
    16    8    9 1    
    17    8  134 1    
    18    8  135 1    
    19    9   10 ar   
    20    9   14 ar   
    21   10   11 ar   
    22   10  136 1    
    23   11   12 ar   
    24   11  126 1    
    25   12   13 ar   
    26   12  137 1    
    27   13   14 ar   
    28   13   15 1    
    29   14  138 1    
    30   15   16 1    
    31   15  139 1    
    32   15  140 1    
    33   16   17 1    
    34   17   18 1    
    35   17  141 1    
    36   17  142 1    
    37   18   19 1    
    38   18   67 1    
    39   18  143 1    
    40   19   20 am   BACKBONE|DICT|INTERRES
    41   19  144 1    
    42   20   21 2    
    43   20   22 1    
    44   22   23 1    
    45   22   24 1    
    46   22  145 1    
    47   23  146 1    
    48   23  147 1    
    49   23  148 1    
    50   24   25 am   BACKBONE|DICT|INTERRES
    51   24  149 1    
    52   25   26 2    
    53   25   27 1    
    54   27   28 1    
    55   27   29 1    
    56   27  150 1    
    57   28  151 1    
    58   28  152 1    
    59   28  153 1    
    60   29   30 am   BACKBONE|DICT|INTERRES
    61   29  154 1    
    62   30   31 2    
    63   30   32 1    
    64   32   33 1    
    65   32   34 1    
    66   32  155 1    
    67   33  156 1    
    68   33  157 1    
    69   33  158 1    
    70   34   35 am   BACKBONE|DICT|INTERRES
    71   34  159 1    
    72   35   36 2    
    73   35   37 1    
    74   37   38 1    
    75   37   39 1    
    76   37  160 1    
    77   38  161 1    
    78   38  162 1    
    79   38  163 1    
    80   39   40 am   BACKBONE|DICT|INTERRES
    81   39  164 1    
    82   40   41 2    
    83   40   42 1    
    84   42   43 1    
    85   42   44 1    
    86   42  165 1    
    87   43  166 1    
    88   43  167 1    
    89   43  168 1    
    90   44   45 am   BACKBONE|DICT|INTERRES
    91   44  169 1    
    92   45   46 2    
    93   45   47 1    
    94   47   48 1    
    95   47   49 1    
    96   47  170 1    
    97   48  171 1    
    98   48  172 1    
    99   48  173 1    
   100   49   50 am   BACKBONE|DICT|INTERRES
   101   49  174 1    
   102   50   51 2    
   103   50   52 1    
   104   52   53 1    
   105   52   54 1    
   106   52  175 1    
   107   53  176 1    
   108   53  177 1    
   109   53  178 1    
   110   54   55 am   BACKBONE|DICT|INTERRES
   111   54  179 1    
   112   55   56 2    
   113   55   57 1    
   114   57   58 1    
   115   57   59 1    
   116   57  180 1    
   117   58  181 1    
   118   58  182 1    
   119   58  183 1    
   120   59   60 am   BACKBONE|DICT|INTERRES
   121   59  184 1    
   122   60   61 2    
   123   60   62 1    
   124   62   63 1    
   125   62   64 1    
   126   62  185 1    
   127   63  186 1    
   128   63  187 1    
   129   63  188 1    
   130   64   65 am   BACKBONE|DICT|INTERRES
   131   64  189 1    
   132   65   66 2    
   133   67   68 2    
   134   67   69 am   BACKBONE|DICT|INTERRES
   135   69   70 1    
   136   69  190 1    
   137   70   71 1    
   138   70   72 1    
   139   70  191 1    
   140   71  192 1    
   141   71  193 1    
   142   71  194 1    
   143   72   73 2    
   144   72   74 am   BACKBONE|DICT|INTERRES
   145   74   75 1    
   146   74  195 1    
   147   75   76 1    
   148   75   77 1    
   149   75  196 1    
   150   76  197 1    
   151   76  198 1    
   152   76  199 1    
   153   77   78 2    
   154   77   79 am   BACKBONE|DICT|INTERRES
   155   79   80 1    
   156   79  200 1    
   157   80   81 1    
   158   80   82 1    
   159   80  201 1    
   160   81  202 1    
   161   81  203 1    
   162   81  204 1    
   163   82   83 2    
   164   82   84 am   BACKBONE|DICT|INTERRES
   165   84   85 1    
   166   84  205 1    
   167   85   86 1    
   168   85   87 1    
   169   85  206 1    
   170   86  207 1    
   171   86  208 1    
   172   86  209 1    
   173   87   88 2    
   174   87   89 am   BACKBONE|DICT|INTERRES
   175   89   90 1    
   176   89  210 1    
   177   90   91 1    
   178   90   92 1    
   179   90  211 1    
   180   91  212 1    
   181   91  213 1    
   182   91  214 1    
   183   92   93 2    
   184   92   94 am   BACKBONE|DICT|INTERRES
   185   94   95 1    
   186   94  215 1    
   187   95   96 1    
   188   95   97 1    
   189   95  216 1    
   190   96  217 1    
   191   96  218 1    
   192   96  219 1    
   193   97   98 2    
   194   97   99 am   BACKBONE|DICT|INTERRES
   195   99  100 1    
   196   99  220 1    
   197  100  101 1    
   198  100  102 1    
   199  100  221 1    
   200  101  222 1    
   201  101  223 1    
   202  101  224 1    
   203  102  103 2    
   204  102  104 am   BACKBONE|DICT|INTERRES
   205  104  105 1    
   206  104  225 1    
   207  105  106 1    
   208  105  107 1    
   209  105  226 1    
   210  106  227 1    
   211  106  228 1    
   212  106  229 1    
   213  107  108 2    
   214  107  109 am   BACKBONE|DICT|INTERRES
   215  109  110 1    
   216  109  230 1    
   217  110  111 1    
   218  110  112 1    
   219  110  231 1    
   220  111  232 1    
   221  111  233 1    
   222  111  234 1    
   223  112  113 2    
   224  112  114 am   BACKBONE|DICT|INTERRES
   225  114  115 1    
   226  114  235 1    
   227  115  116 1    
   228  115  117 1    
   229  115  236 1    
   230  116  237 1    
   231  116  238 1    
   232  116  239 1    
   233  117  118 2    
   234  117  119 am   BACKBONE|DICT|INTERRES
   235  119  120 1    
   236  119  240 1    
   237  120  121 1    
   238  120  124 1    
   239  120  241 1    
   240  121  122 am   BACKBONE|DICT|INTERRES
   241  121  123 2    
   242  122  242 1    
   243  122  243 1    
   244  124  125 1    
   245  124  244 1    
   246  124  245 1    
   247  125  126 1    
   248  126  246 1    
   249  126  247 1    
@<TRIPOS>SUBSTRUCTURE
     1 UNK         1 GROUP             0       ****    0 ROOT    
