@<TRIPOS>MOLECULE
3R540
247   249    1
SMALL
USER_CHARGES


@<TRIPOS>ATOM
      1 CA         -1.1185  -10.1202  -49.9632 C.3       0 UNK        -0.1800 
      2 C          -0.6762  -11.5561  -49.7181 C.2       0 UNK         0.5000 
      3 O          -0.8476  -12.4070  -50.5913 O.2       0 UNK        -0.5000 
      4 N          -0.1169  -11.8274  -48.5329 N.am      1 UNK        -0.5000 
      5 CA          0.4029  -13.1353  -48.1225 C.3       1 UNK         0.1400 
      6 C6          0.7380  -13.1745  -46.6101 C.3       23 UNK        -0.0398 
      7 S7         -0.7145  -12.8327  -45.5598 S.3       23 UNK        -0.2404 
      8 C8         -1.1701  -14.4967  -44.9837 C.3       23 UNK        -0.0205 
      9 C9         -1.7427  -15.3599  -46.0971 C.ar      23 UNK        -0.0193 
     10 C10        -3.1057  -15.3077  -46.3960 C.ar      23 UNK        -0.1150 
     11 C11        -3.6441  -16.0979  -47.4160 C.ar      23 UNK        -0.0193 
     12 C12        -2.7975  -16.9489  -48.1356 C.ar      23 UNK        -0.1150 
     13 C13        -1.4315  -17.0240  -47.8428 C.ar      23 UNK        -0.0193 
     14 C14        -0.9126  -16.2179  -46.8214 C.ar      23 UNK        -0.1150 
     15 C15        -0.5615  -17.9712  -48.6715 C.3       23 UNK        -0.0205 
     16 S16         1.0680  -18.4088  -47.9606 S.3       23 UNK        -0.2404 
     17 C17         0.6229  -19.2000  -46.3771 C.3       23 UNK        -0.0398 
     18 CA          0.4786  -20.7369  -46.4652 C.3       11 UNK         0.1400 
     19 N           0.5748  -21.3594  -45.1462 N.am      11 UNK        -0.5000 
     20 C           0.5392  -22.6749  -44.8932 C.2       10 UNK         0.5000 
     21 O           0.4895  -23.5471  -45.7607 O.2       10 UNK        -0.5000 
     22 CA          0.4995  -23.0738  -43.4090 C.3       10 UNK         0.1400 
     23 CB          1.9083  -23.0513  -42.7965 C.3       10 UNK        -0.1800 
     24 N          -0.3849  -22.2013  -42.6351 N.am      10 UNK        -0.5000 
     25 C          -1.7190  -22.1701  -42.7619 C.2       9 UNK         0.5000 
     26 O          -2.3531  -22.8948  -43.5289 O.2       9 UNK        -0.5000 
     27 CA         -2.4633  -21.1234  -41.9136 C.3       9 UNK         0.1400 
     28 CB         -2.6102  -21.6010  -40.4610 C.3       9 UNK        -0.1800 
     29 N          -1.8125  -19.8118  -41.9335 N.am      9 UNK        -0.5000 
     30 C          -1.7144  -19.0410  -43.0251 C.2       8 UNK         0.5000 
     31 O          -2.1473  -19.3611  -44.1299 O.2       8 UNK        -0.5000 
     32 CA         -0.9792  -17.6996  -42.8699 C.3       8 UNK         0.1400 
     33 CB         -1.9236  -16.6487  -42.2697 C.3       8 UNK        -0.1800 
     34 N           0.2526  -17.7563  -42.0776 N.am      8 UNK        -0.5000 
     35 C           1.2854  -18.5888  -42.2835 C.2       7 UNK         0.5000 
     36 O           1.2555  -19.5203  -43.0879 O.2       7 UNK        -0.5000 
     37 CA          2.5747  -18.3386  -41.4783 C.3       7 UNK         0.1400 
     38 CB          3.8178  -18.4447  -42.3800 C.3       7 UNK        -0.1800 
     39 N           2.5746  -17.0159  -40.8535 N.am      7 UNK        -0.5000 
     40 C           2.5577  -16.7706  -39.5366 C.2       6 UNK         0.5000 
     41 O           2.5144  -17.6529  -38.6788 O.2       6 UNK        -0.5000 
     42 CA          2.6039  -15.2923  -39.0927 C.3       6 UNK         0.1400 
     43 CB          4.0057  -14.9344  -38.5747 C.3       6 UNK        -0.1800 
     44 N           2.2448  -14.3503  -40.1551 N.am      6 UNK        -0.5000 
     45 C           1.0080  -14.1754  -40.6394 C.2       5 UNK         0.5000 
     46 O           0.0169  -14.7538  -40.1955 O.2       5 UNK        -0.5000 
     47 CA          0.8650  -13.2380  -41.8559 C.3       5 UNK         0.1400 
     48 CB          0.4993  -11.8167  -41.4049 C.3       5 UNK        -0.1800 
     49 N           2.0625  -13.1824  -42.7039 N.am      5 UNK        -0.5000 
     50 C           2.5739  -14.2260  -43.3685 C.2       4 UNK         0.5000 
     51 O           2.0952  -15.3630  -43.3306 O.2       4 UNK        -0.5000 
     52 CA          3.8568  -13.9741  -44.1690 C.3       4 UNK         0.1400 
     53 CB          5.0790  -13.9362  -43.2328 C.3       4 UNK        -0.1800 
     54 N           3.9981  -15.0577  -45.1328 N.am      4 UNK        -0.5000 
     55 C           4.7652  -15.0565  -46.2270 C.2       3 UNK         0.5000 
     56 O           5.4784  -14.1095  -46.5598 O.2       3 UNK        -0.5000 
     57 CA          4.7058  -16.3135  -47.1139 C.3       3 UNK         0.1400 
     58 CB          4.3193  -17.5923  -46.3432 C.3       3 UNK        -0.1800 
     59 N           3.7327  -16.0824  -48.1764 N.am      3 UNK        -0.5000 
     60 C           4.0154  -15.5925  -49.3906 C.2       2 UNK         0.5000 
     61 O           5.1572  -15.3961  -49.8085 O.2       2 UNK        -0.5000 
     62 CA          2.8092  -15.2384  -50.2822 C.3       2 UNK         0.1400 
     63 CB          2.3621  -16.4511  -51.1132 C.3       2 UNK        -0.1800 
     64 N           1.6740  -14.7222  -49.5098 N.am      2 UNK        -0.5000 
     65 C           1.6512  -13.5051  -48.9481 C.2       1 UNK         0.5000 
     66 O           2.5720  -12.6902  -49.0432 O.2       1 UNK        -0.5000 
     67 C          -0.8283  -21.1368  -47.1717 C.2       11 UNK         0.5000 
     68 O          -0.7748  -21.6722  -48.2767 O.2       11 UNK        -0.5000 
     69 N          -1.9690  -20.9037  -46.5076 N.am      12 UNK        -0.5000 
     70 CA         -3.3034  -21.2105  -47.0157 C.3       12 UNK         0.1400 
     71 CB         -4.3603  -20.6784  -46.0371 C.3       12 UNK        -0.1800 
     72 C          -3.5140  -22.7088  -47.2888 C.2       12 UNK         0.5000 
     73 O          -4.1028  -23.0536  -48.3124 O.2       12 UNK        -0.5000 
     74 N          -3.0055  -23.5726  -46.3985 N.am      13 UNK        -0.5000 
     75 CA         -3.0442  -25.0273  -46.5563 C.3       13 UNK         0.1400 
     76 CB         -2.5400  -25.6984  -45.2699 C.3       13 UNK        -0.1800 
     77 C          -2.2471  -25.5245  -47.7775 C.2       13 UNK         0.5000 
     78 O          -2.6959  -26.4488  -48.4562 O.2       13 UNK        -0.5000 
     79 N          -1.0909  -24.9011  -48.0395 N.am      14 UNK        -0.5000 
     80 CA         -0.2367  -25.2044  -49.1850 C.3       14 UNK         0.1400 
     81 CB          1.1831  -24.6842  -48.9107 C.3       14 UNK        -0.1800 
     82 C          -0.7834  -24.6244  -50.5020 C.2       14 UNK         0.5000 
     83 O          -0.7631  -25.3147  -51.5210 O.2       14 UNK        -0.5000 
     84 N          -1.2337  -23.3637  -50.4663 N.am      15 UNK        -0.5000 
     85 CA         -1.6460  -22.5977  -51.6416 C.3       15 UNK         0.1400 
     86 CB         -1.5804  -21.0968  -51.3204 C.3       15 UNK        -0.1800 
     87 C          -3.0297  -22.9740  -52.1979 C.2       15 UNK         0.5000 
     88 O          -3.2550  -22.7291  -53.3851 O.2       15 UNK        -0.5000 
     89 N          -3.9097  -23.5501  -51.3629 N.am      16 UNK        -0.5000 
     90 CA         -5.2947  -23.9285  -51.6708 C.3       16 UNK         0.1400 
     91 CB         -5.8938  -24.7021  -50.4826 C.3       16 UNK        -0.1800 
     92 C          -5.4466  -24.7478  -52.9676 C.2       16 UNK         0.5000 
     93 O          -5.1372  -25.9407  -52.9802 O.2       16 UNK        -0.5000 
     94 N          -5.8968  -24.0709  -54.0327 N.am      17 UNK        -0.5000 
     95 CA         -6.1061  -24.5546  -55.4027 C.3       17 UNK         0.1400 
     96 CB         -7.1419  -25.6971  -55.4385 C.3       17 UNK        -0.1800 
     97 C          -4.8086  -24.9160  -56.1597 C.2       17 UNK         0.5000 
     98 O          -4.8869  -25.4171  -57.2826 O.2       17 UNK        -0.5000 
     99 N          -3.6466  -24.6367  -55.5585 N.am      18 UNK        -0.5000 
    100 CA        -2.3209  -24.8388  -56.1379 C.3       18 UNK         0.1400 
    101 CB        -1.4090  -25.4838  -55.0831 C.3       18 UNK        -0.1800 
    102 C         -1.7225  -23.5065  -56.6152 C.2       18 UNK         0.5000 
    103 O         -1.0416  -23.4837  -57.6414 O.2       18 UNK        -0.5000 
    104 N         -1.9880  -22.4270  -55.8687 N.am      19 UNK        -0.5000 
    105 CA        -1.4909  -21.0791  -56.1336 C.3       19 UNK         0.1400 
    106 CB        -0.2492  -20.8190  -55.2640 C.3       19 UNK        -0.1800 
    107 C         -2.5574  -19.9961  -55.8968 C.2       19 UNK         0.5000 
    108 O         -2.4435  -18.9213  -56.4883 O.2       19 UNK        -0.5000 
    109 N         -3.5659  -20.2661  -55.0564 N.am      20 UNK        -0.5000 
    110 CA        -4.6214  -19.3179  -54.7080 C.3       20 UNK         0.1400 
    111 CB        -4.1236  -18.3925  -53.5802 C.3       20 UNK        -0.1800 
    112 C         -5.8885  -20.0664  -54.2734 C.2       20 UNK         0.5000 
    113 O         -5.8391  -21.2667  -53.9984 O.2       20 UNK        -0.5000 
    114 N         -7.0051  -19.3328  -54.1818 N.am      21 UNK        -0.5000 
    115 CA        -8.2471  -19.8136  -53.5675 C.3       21 UNK         0.1400 
    116 CB        -9.4014  -18.8773  -53.9564 C.3       21 UNK        -0.1800 
    117 C         -8.1262  -19.9222  -52.0333 C.2       21 UNK         0.5000 
    118 O         -8.7710  -20.7791  -51.4285 O.2       21 UNK        -0.5000 
    119 N         -7.2868  -19.0600  -51.4445 N.am      22 UNK        -0.5000 
    120 CA        -6.8422  -19.1212  -50.0494 C.3       22 UNK         0.1400 
    121 C         -5.8731  -20.3157  -49.8489 C.2       22 UNK         0.5000 
    122 N         -6.2416  -21.3070  -49.0520 N.am      22 UNK        -0.7600 
    123 O         -4.7771  -20.3309  -50.3992 O.2       22 UNK        -0.5000 
    124 C124       -6.1898  -17.7769  -49.6360 C.3       23 UNK        -0.0398 
    125 S125       -5.9899  -17.5899  -47.8312 S.3       23 UNK        -0.2404 
    126 C126       -5.1284  -15.9830  -47.7532 C.3       23 UNK        -0.0205 
    127 H127       -2.1889  -10.0867  -50.1664 H         1 UNK         0.0600 
    128 H128       -0.5936   -9.7079  -50.8250 H         1 UNK         0.0600 
    129 H129       -0.9156   -9.4808  -49.1037 H         1 UNK         0.0600 
    130 H130       -0.0008  -11.0845  -47.8591 H         1 UNK         0.3000 
    131 H131       -0.3765  -13.8730  -48.3234 H         1 UNK         0.0600 
    132 H132        1.1662  -14.1374  -46.3289 H         1 UNK         0.0800 
    133 H133        1.5016  -12.4318  -46.3713 H         1 UNK         0.0800 
    134 H134       -0.3054  -14.9813  -44.5297 H         1 UNK         0.0800 
    135 H135       -1.9122  -14.3892  -44.1922 H         1 UNK         0.0800 
    136 H136       -3.7454  -14.6382  -45.8382 H         1 UNK         0.1150 
    137 H137       -3.2037  -17.5594  -48.9293 H         1 UNK         0.1150 
    138 H138        0.1384  -16.2515  -46.5788 H         1 UNK         0.1150 
    139 H139       -1.1143  -18.8891  -48.8731 H         1 UNK         0.0800 
    140 H140       -0.3921  -17.5095  -49.6446 H         1 UNK         0.0800 
    141 H141       -0.2705  -18.7413  -45.9548 H         1 UNK         0.0800 
    142 H142        1.4267  -18.9552  -45.6831 H         1 UNK         0.0800 
    143 H143        1.3103  -21.1279  -47.0552 H         1 UNK         0.0600 
    144 H144        0.6596  -20.7237  -44.3561 H         1 UNK         0.3000 
    145 H145        0.1149  -24.0940  -43.3459 H         1 UNK         0.0600 
    146 H146        1.8931  -23.3917  -41.7611 H         1 UNK         0.0600 
    147 H147        2.5814  -23.7109  -43.3456 H         1 UNK         0.0600 
    148 H148        2.3427  -22.0510  -42.8146 H         1 UNK         0.0600 
    149 H149        0.0593  -21.5253  -42.0314 H         1 UNK         0.3000 
    150 H150       -3.4643  -21.0087  -42.3353 H         1 UNK         0.0600 
    151 H151       -3.1041  -22.5728  -40.4184 H         1 UNK         0.0600 
    152 H152       -3.2133  -20.9057  -39.8769 H         1 UNK         0.0600 
    153 H153       -1.6426  -21.7025  -39.9680 H         1 UNK         0.0600 
    154 H154       -1.4158  -19.4786  -41.0673 H         1 UNK         0.3000 
    155 H155       -0.6955  -17.3695  -43.8706 H         1 UNK         0.0600 
    156 H156       -2.8336  -16.5551  -42.8642 H         1 UNK         0.0600 
    157 H157       -1.4542  -15.6671  -42.2399 H         1 UNK         0.0600 
    158 H158       -2.2183  -16.9056  -41.2516 H         1 UNK         0.0600 
    159 H159        0.3704  -17.0271  -41.3887 H         1 UNK         0.3000 
    160 H160        2.6320  -19.1245  -40.7230 H         1 UNK         0.0600 
    161 H161        3.7912  -17.7105  -43.1858 H         1 UNK         0.0600 
    162 H162        3.8947  -19.4326  -42.8362 H         1 UNK         0.0600 
    163 H163        4.7322  -18.2814  -41.8096 H         1 UNK         0.0600 
    164 H164        2.5578  -16.2356  -41.5002 H         1 UNK         0.3000 
    165 H165        1.8938  -15.1738  -38.2715 H         1 UNK         0.0600 
    166 H166        4.0373  -13.9132  -38.1943 H         1 UNK         0.0600 
    167 H167        4.3010  -15.5928  -37.7566 H         1 UNK         0.0600 
    168 H168        4.7594  -15.0257  -39.3579 H         1 UNK         0.0600 
    169 H169        3.0013  -13.8301  -40.5742 H         1 UNK         0.3000 
    170 H170        0.0435  -13.6205  -42.4633 H         1 UNK         0.0600 
    171 H171       -0.4015  -11.8215  -40.7897 H         1 UNK         0.0600 
    172 H172        1.2974  -11.3626  -40.8163 H         1 UNK         0.0600 
    173 H173        0.3019  -11.1711  -42.2611 H         1 UNK         0.0600 
    174 H174        2.5163  -12.2830  -42.7766 H         1 UNK         0.3000 
    175 H175        3.7593  -13.0256  -44.7012 H         1 UNK         0.0600 
    176 H176        5.1979  -14.8756  -42.6909 H         1 UNK         0.0600 
    177 H177        5.9993  -13.7534  -43.7877 H         1 UNK         0.0600 
    178 H178        4.9870  -13.1388  -42.4946 H         1 UNK         0.0600 
    179 H179        3.4078  -15.8545  -44.9283 H         1 UNK         0.3000 
    180 H180        5.7005  -16.4674  -47.5374 H         1 UNK         0.0600 
    181 H181        3.3165  -17.5358  -45.9206 H         1 UNK         0.0600 
    182 H182        5.0154  -17.7814  -45.5249 H         1 UNK         0.0600 
    183 H183        4.3483  -18.4634  -46.9981 H         1 UNK         0.0600 
    184 H184        2.7630  -16.2208  -47.9359 H         1 UNK         0.3000 
    185 H185        3.1301  -14.4597  -50.9778 H         1 UNK         0.0600 
    186 H186        3.1759  -16.8078  -51.7458 H         1 UNK         0.0600 
    187 H187        2.0518  -17.2846  -50.4845 H         1 UNK         0.0600 
    188 H188        1.5298  -16.1961  -51.7694 H         1 UNK         0.0600 
    189 H189        0.8729  -15.3295  -49.4181 H         1 UNK         0.3000 
    190 H190       -1.9350  -20.4427  -45.6004 H         1 UNK         0.3000 
    191 H191       -3.4200  -20.6812  -47.9634 H         1 UNK         0.0600 
    192 H192       -4.2830  -19.5961  -45.9296 H         1 UNK         0.0600 
    193 H193       -4.2512  -21.1228  -45.0471 H         1 UNK         0.0600 
    194 H194       -5.3692  -20.8964  -46.3875 H         1 UNK         0.0600 
    195 H195       -2.5704  -23.2152  -45.5544 H         1 UNK         0.3000 
    196 H196       -4.0866  -25.3172  -46.7037 H         1 UNK         0.0600 
    197 H197       -2.5619  -26.7851  -45.3604 H         1 UNK         0.0600 
    198 H198       -3.1631  -25.4312  -44.4163 H         1 UNK         0.0600 
    199 H199       -1.5146  -25.4074  -45.0398 H         1 UNK         0.0600 
    200 H200       -0.7758  -24.1657  -47.4167 H         1 UNK         0.3000 
    201 H201       -0.1782  -26.2892  -49.2970 H         1 UNK         0.0600 
    202 H202        1.6075  -25.1508  -48.0216 H         1 UNK         0.0600 
    203 H203        1.1952  -23.6044  -48.7568 H         1 UNK         0.0600 
    204 H204        1.8493  -24.9058  -49.7453 H         1 UNK         0.0600 
    205 H205       -1.1774  -22.8453  -49.5907 H         1 UNK         0.3000 
    206 H206       -0.9249  -22.7920  -52.4385 H         1 UNK         0.0600 
    207 H207       -0.5625  -20.7889  -51.0810 H         1 UNK         0.0600 
    208 H208       -1.9143  -20.4946  -52.1661 H         1 UNK         0.0600 
    209 H209       -2.2121  -20.8440  -50.4689 H         1 UNK         0.0600 
    210 H210       -3.6307  -23.6617  -50.3962 H         1 UNK         0.3000 
    211 H211       -5.8630  -23.0028  -51.7827 H         1 UNK         0.0600 
    212 H212       -5.2516  -25.5285  -50.1752 H         1 UNK         0.0600 
    213 H213       -6.8692  -25.1198  -50.7358 H         1 UNK         0.0600 
    214 H214       -6.0473  -24.0565  -49.6208 H         1 UNK         0.0600 
    215 H215       -6.0036  -23.0615  -53.9268 H         1 UNK         0.3000 
    216 H216       -6.5348  -23.7098  -55.9436 H         1 UNK         0.0600 
    217 H217       -7.4216  -25.9391  -56.4644 H         1 UNK         0.0600 
    218 H218       -8.0550  -25.4187  -54.9125 H         1 UNK         0.0600 
    219 H219       -6.7565  -26.6102  -54.9844 H         1 UNK         0.0600 
    220 H220       -3.6800  -24.1882  -54.6495 H         1 UNK         0.3000 
    221 H221       -2.3769  -25.5119  -56.9958 H         1 UNK         0.0600 
    222 H222       -1.2919  -24.8461  -54.2063 H         1 UNK         0.0600 
    223 H223       -1.8104  -26.4401  -54.7471 H         1 UNK         0.0600 
    224 H224       -0.4139  -25.6714  -55.4882 H         1 UNK         0.0600 
    225 H225       -2.5339  -22.5471  -55.0198 H         1 UNK         0.3000 
    226 H226       -1.1987  -20.9946  -57.1824 H         1 UNK         0.0600 
    227 H227        0.5453  -21.5307  -55.4891 H         1 UNK         0.0600 
    228 H228        0.1506  -19.8195  -55.4395 H         1 UNK         0.0600 
    229 H229       -0.4798  -20.8996  -54.2017 H         1 UNK         0.0600 
    230 H230       -3.6400  -21.1645  -54.5892 H         1 UNK         0.3000 
    231 H231       -4.8774  -18.7200  -55.5853 H         1 UNK         0.0600 
    232 H232       -3.2251  -17.8513  -53.8769 H         1 UNK         0.0600 
    233 H233       -3.8887  -18.9567  -52.6765 H         1 UNK         0.0600 
    234 H234       -4.8730  -17.6460  -53.3164 H         1 UNK         0.0600 
    235 H235       -6.9836  -18.3619  -54.4589 H         1 UNK         0.3000 
    236 H236       -8.4682  -20.8098  -53.9572 H         1 UNK         0.0600 
    237 H237      -10.3440  -19.2236  -53.5304 H         1 UNK         0.0600 
    238 H238       -9.2343  -17.8600  -53.6003 H         1 UNK         0.0600 
    239 H239       -9.5299  -18.8384  -55.0383 H         1 UNK         0.0600 
    240 H240       -6.7867  -18.4161  -52.0367 H         1 UNK         0.3000 
    241 H241       -7.7277  -19.2731  -49.4287 H         1 UNK         0.0600 
    242 H242       -5.5793  -22.0612  -48.8975 H         1 UNK         0.3800 
    243 H243       -7.1459  -21.3261  -48.6090 H         1 UNK         0.3800 
    244 H244       -5.2256  -17.6421  -50.1291 H         1 UNK         0.0800 
    245 H245       -6.8174  -16.9503  -49.9723 H         1 UNK         0.0800 
    246 H246       -5.6375  -15.3740  -47.0048 H         1 UNK         0.0800 
    247 H247       -5.2351  -15.4473  -48.6972 H         1 UNK         0.0800 
@<TRIPOS>BOND
     1    1    2 1    
     2    1  127 1    
     3    1  128 1    
     4    1  129 1    
     5    2    3 2    
     6    2    4 am   BACKBONE|DICT|INTERRES
     7    4    5 1    
     8    4  130 1    
     9    5    6 1    
    10    5   65 1    
    11    5  131 1    
    12    6    7 1    
    13    6  132 1    
    14    6  133 1    
    15    7    8 1    
    16    8    9 1    
    17    8  134 1    
    18    8  135 1    
    19    9   10 ar   
    20    9   14 ar   
    21   10   11 ar   
    22   10  136 1    
    23   11   12 ar   
    24   11  126 1    
    25   12   13 ar   
    26   12  137 1    
    27   13   14 ar   
    28   13   15 1    
    29   14  138 1    
    30   15   16 1    
    31   15  139 1    
    32   15  140 1    
    33   16   17 1    
    34   17   18 1    
    35   17  141 1    
    36   17  142 1    
    37   18   19 1    
    38   18   67 1    
    39   18  143 1    
    40   19   20 am   BACKBONE|DICT|INTERRES
    41   19  144 1    
    42   20   21 2    
    43   20   22 1    
    44   22   23 1    
    45   22   24 1    
    46   22  145 1    
    47   23  146 1    
    48   23  147 1    
    49   23  148 1    
    50   24   25 am   BACKBONE|DICT|INTERRES
    51   24  149 1    
    52   25   26 2    
    53   25   27 1    
    54   27   28 1    
    55   27   29 1    
    56   27  150 1    
    57   28  151 1    
    58   28  152 1    
    59   28  153 1    
    60   29   30 am   BACKBONE|DICT|INTERRES
    61   29  154 1    
    62   30   31 2    
    63   30   32 1    
    64   32   33 1    
    65   32   34 1    
    66   32  155 1    
    67   33  156 1    
    68   33  157 1    
    69   33  158 1    
    70   34   35 am   BACKBONE|DICT|INTERRES
    71   34  159 1    
    72   35   36 2    
    73   35   37 1    
    74   37   38 1    
    75   37   39 1    
    76   37  160 1    
    77   38  161 1    
    78   38  162 1    
    79   38  163 1    
    80   39   40 am   BACKBONE|DICT|INTERRES
    81   39  164 1    
    82   40   41 2    
    83   40   42 1    
    84   42   43 1    
    85   42   44 1    
    86   42  165 1    
    87   43  166 1    
    88   43  167 1    
    89   43  168 1    
    90   44   45 am   BACKBONE|DICT|INTERRES
    91   44  169 1    
    92   45   46 2    
    93   45   47 1    
    94   47   48 1    
    95   47   49 1    
    96   47  170 1    
    97   48  171 1    
    98   48  172 1    
    99   48  173 1    
   100   49   50 am   BACKBONE|DICT|INTERRES
   101   49  174 1    
   102   50   51 2    
   103   50   52 1    
   104   52   53 1    
   105   52   54 1    
   106   52  175 1    
   107   53  176 1    
   108   53  177 1    
   109   53  178 1    
   110   54   55 am   BACKBONE|DICT|INTERRES
   111   54  179 1    
   112   55   56 2    
   113   55   57 1    
   114   57   58 1    
   115   57   59 1    
   116   57  180 1    
   117   58  181 1    
   118   58  182 1    
   119   58  183 1    
   120   59   60 am   BACKBONE|DICT|INTERRES
   121   59  184 1    
   122   60   61 2    
   123   60   62 1    
   124   62   63 1    
   125   62   64 1    
   126   62  185 1    
   127   63  186 1    
   128   63  187 1    
   129   63  188 1    
   130   64   65 am   BACKBONE|DICT|INTERRES
   131   64  189 1    
   132   65   66 2    
   133   67   68 2    
   134   67   69 am   BACKBONE|DICT|INTERRES
   135   69   70 1    
   136   69  190 1    
   137   70   71 1    
   138   70   72 1    
   139   70  191 1    
   140   71  192 1    
   141   71  193 1    
   142   71  194 1    
   143   72   73 2    
   144   72   74 am   BACKBONE|DICT|INTERRES
   145   74   75 1    
   146   74  195 1    
   147   75   76 1    
   148   75   77 1    
   149   75  196 1    
   150   76  197 1    
   151   76  198 1    
   152   76  199 1    
   153   77   78 2    
   154   77   79 am   BACKBONE|DICT|INTERRES
   155   79   80 1    
   156   79  200 1    
   157   80   81 1    
   158   80   82 1    
   159   80  201 1    
   160   81  202 1    
   161   81  203 1    
   162   81  204 1    
   163   82   83 2    
   164   82   84 am   BACKBONE|DICT|INTERRES
   165   84   85 1    
   166   84  205 1    
   167   85   86 1    
   168   85   87 1    
   169   85  206 1    
   170   86  207 1    
   171   86  208 1    
   172   86  209 1    
   173   87   88 2    
   174   87   89 am   BACKBONE|DICT|INTERRES
   175   89   90 1    
   176   89  210 1    
   177   90   91 1    
   178   90   92 1    
   179   90  211 1    
   180   91  212 1    
   181   91  213 1    
   182   91  214 1    
   183   92   93 2    
   184   92   94 am   BACKBONE|DICT|INTERRES
   185   94   95 1    
   186   94  215 1    
   187   95   96 1    
   188   95   97 1    
   189   95  216 1    
   190   96  217 1    
   191   96  218 1    
   192   96  219 1    
   193   97   98 2    
   194   97   99 am   BACKBONE|DICT|INTERRES
   195   99  100 1    
   196   99  220 1    
   197  100  101 1    
   198  100  102 1    
   199  100  221 1    
   200  101  222 1    
   201  101  223 1    
   202  101  224 1    
   203  102  103 2    
   204  102  104 am   BACKBONE|DICT|INTERRES
   205  104  105 1    
   206  104  225 1    
   207  105  106 1    
   208  105  107 1    
   209  105  226 1    
   210  106  227 1    
   211  106  228 1    
   212  106  229 1    
   213  107  108 2    
   214  107  109 am   BACKBONE|DICT|INTERRES
   215  109  110 1    
   216  109  230 1    
   217  110  111 1    
   218  110  112 1    
   219  110  231 1    
   220  111  232 1    
   221  111  233 1    
   222  111  234 1    
   223  112  113 2    
   224  112  114 am   BACKBONE|DICT|INTERRES
   225  114  115 1    
   226  114  235 1    
   227  115  116 1    
   228  115  117 1    
   229  115  236 1    
   230  116  237 1    
   231  116  238 1    
   232  116  239 1    
   233  117  118 2    
   234  117  119 am   BACKBONE|DICT|INTERRES
   235  119  120 1    
   236  119  240 1    
   237  120  121 1    
   238  120  124 1    
   239  120  241 1    
   240  121  122 am   BACKBONE|DICT|INTERRES
   241  121  123 2    
   242  122  242 1    
   243  122  243 1    
   244  124  125 1    
   245  124  244 1    
   246  124  245 1    
   247  125  126 1    
   248  126  246 1    
   249  126  247 1    
@<TRIPOS>SUBSTRUCTURE
     1 UNK         1 GROUP             0       ****    0 ROOT    
