@<TRIPOS>MOLECULE
3R540
247   249    1
SMALL
USER_CHARGES


@<TRIPOS>ATOM
      1 CA          1.2522  -11.1504  -50.6871 C.3       0 UNK        -0.1800 
      2 C           2.0815  -11.9103  -49.6627 C.2       0 UNK         0.5000 
      3 O           1.5366  -12.3709  -48.6615 O.2       0 UNK        -0.5000 
      4 N           3.3927  -12.0418  -49.9134 N.am      1 UNK        -0.5000 
      5 CA          4.3685  -12.7672  -49.0826 C.3       1 UNK         0.1400 
      6 C6          4.1078  -14.3001  -49.0345 C.3       23 UNK        -0.0398 
      7 S7          4.5099  -15.1169  -50.6196 S.3       23 UNK        -0.2404 
      8 C8          2.9019  -15.2176  -51.4734 C.3       23 UNK        -0.0205 
      9 C9          1.8893  -16.0774  -50.7315 C.ar      23 UNK        -0.0193 
     10 C10         0.7192  -15.5022  -50.2300 C.ar      23 UNK        -0.1150 
     11 C11        -0.2102  -16.2781  -49.5357 C.ar      23 UNK        -0.0193 
     12 C12         0.0395  -17.6389  -49.3465 C.ar      23 UNK        -0.1150 
     13 C13         1.2045  -18.2337  -49.8397 C.ar      23 UNK        -0.0193 
     14 C14         2.1201  -17.4443  -50.5438 C.ar      23 UNK        -0.1150 
     15 C15         1.5164  -19.7028  -49.5653 C.3       23 UNK        -0.0205 
     16 S16         0.2871  -20.8548  -50.2584 S.3       23 UNK        -0.2404 
     17 C17        -0.8377  -21.1431  -48.8499 C.3       23 UNK        -0.0398 
     18 CA         -0.4225  -22.3695  -47.9904 C.3       11 UNK         0.1400 
     19 N           0.1561  -21.9744  -46.7038 N.am      11 UNK        -0.5000 
     20 C           0.7384  -22.8068  -45.8306 C.2       10 UNK         0.5000 
     21 O           0.9018  -24.0090  -46.0383 O.2       10 UNK        -0.5000 
     22 CA          1.1638  -22.2038  -44.4785 C.3       10 UNK         0.1400 
     23 CB          2.5023  -21.4603  -44.6016 C.3       10 UNK        -0.1800 
     24 N           0.1497  -21.3076  -43.9187 N.am      10 UNK        -0.5000 
     25 C          -1.0698  -21.7009  -43.5235 C.2       9 UNK         0.5000 
     26 O          -1.4512  -22.8712  -43.5517 O.2       9 UNK        -0.5000 
     27 CA         -2.0442  -20.6006  -43.0617 C.3       9 UNK         0.1400 
     28 CB         -1.7528  -20.1742  -41.6153 C.3       9 UNK        -0.1800 
     29 N          -2.0280  -19.4263  -43.9341 N.am      9 UNK        -0.5000 
     30 C          -2.3850  -19.4405  -45.2265 C.2       8 UNK         0.5000 
     31 O          -2.7995  -20.4373  -45.8157 O.2       8 UNK        -0.5000 
     32 CA         -2.1933  -18.1354  -46.0132 C.3       8 UNK         0.1400 
     33 CB         -3.3521  -17.1661  -45.7354 C.3       8 UNK        -0.1800 
     34 N          -0.9085  -17.4878  -45.7368 N.am      8 UNK        -0.5000 
     35 C           0.2923  -18.0570  -45.9243 C.2       7 UNK         0.5000 
     36 O           0.4429  -19.1953  -46.3599 O.2       7 UNK        -0.5000 
     37 CA          1.5326  -17.2578  -45.4926 C.3       7 UNK         0.1400 
     38 CB          1.8695  -16.1513  -46.5029 C.3       7 UNK        -0.1800 
     39 N           1.3715  -16.6861  -44.1594 N.am      7 UNK        -0.5000 
     40 C           1.1852  -17.4004  -43.0403 C.2       6 UNK         0.5000 
     41 O           1.1929  -18.6314  -42.9994 O.2       6 UNK        -0.5000 
     42 CA          0.8882  -16.5987  -41.7633 C.3       6 UNK         0.1400 
     43 CB          2.1863  -16.0864  -41.1212 C.3       6 UNK        -0.1800 
     44 N          -0.0066  -15.4732  -42.0340 N.am      6 UNK        -0.5000 
     45 C          -1.3096  -15.5996  -42.3213 C.2       5 UNK         0.5000 
     46 O          -1.9032  -16.6789  -42.3443 O.2       5 UNK        -0.5000 
     47 CA         -2.0647  -14.3031  -42.6719 C.3       5 UNK         0.1400 
     48 CB         -2.4720  -13.5494  -41.3970 C.3       5 UNK        -0.1800 
     49 N          -1.2895  -13.4110  -43.5384 N.am      5 UNK        -0.5000 
     50 C          -0.9837  -13.6870  -44.8138 C.2       4 UNK         0.5000 
     51 O          -1.3386  -14.7124  -45.3893 O.2       4 UNK        -0.5000 
     52 CA         -0.1053  -12.6746  -45.5697 C.3       4 UNK         0.1400 
     53 CB         -0.9725  -11.5910  -46.2266 C.3       4 UNK        -0.1800 
     54 N           0.9360  -12.0372  -44.7612 N.am      4 UNK        -0.5000 
     55 C           1.8796  -12.6722  -44.0546 C.2       3 UNK         0.5000 
     56 O           1.9121  -13.8930  -43.8954 O.2       3 UNK        -0.5000 
     57 CA          2.9910  -11.7841  -43.4676 C.3       3 UNK         0.1400 
     58 CB          3.8818  -12.5366  -42.4632 C.3       3 UNK        -0.1800 
     59 N           3.8301  -11.2668  -44.5453 N.am      3 UNK        -0.5000 
     60 C           3.5436  -10.2171  -45.3231 C.2       2 UNK         0.5000 
     61 O           2.5379   -9.5195  -45.1807 O.2       2 UNK        -0.5000 
     62 CA          4.5337   -9.9033  -46.4601 C.3       2 UNK         0.1400 
     63 CB          5.9975   -9.8530  -45.9740 C.3       2 UNK        -0.1800 
     64 N           4.3843  -10.7940  -47.6165 N.am      2 UNK        -0.5000 
     65 C           4.5665  -12.1231  -47.6862 C.2       1 UNK         0.5000 
     66 O           4.9151  -12.8156  -46.7283 O.2       1 UNK        -0.5000 
     67 C          -1.5922  -23.3558  -47.8021 C.2       11 UNK         0.5000 
     68 O          -1.6149  -24.3866  -48.4713 O.2       11 UNK        -0.5000 
     69 N          -2.5176  -23.0446  -46.8820 N.am      12 UNK        -0.5000 
     70 CA         -3.6713  -23.8808  -46.5378 C.3       12 UNK         0.1400 
     71 CB         -4.5897  -23.1181  -45.5718 C.3       12 UNK        -0.1800 
     72 C          -3.2839  -25.2490  -45.9459 C.2       12 UNK         0.5000 
     73 O          -3.9792  -26.2354  -46.1906 O.2       12 UNK        -0.5000 
     74 N          -2.1779  -25.2909  -45.1901 N.am      13 UNK        -0.5000 
     75 CA         -1.5857  -26.5221  -44.6698 C.3       13 UNK         0.1400 
     76 CB         -0.5714  -26.1790  -43.5682 C.3       13 UNK        -0.1800 
     77 C          -0.9305  -27.3726  -45.7750 C.2       13 UNK         0.5000 
     78 O          -0.9983  -28.6007  -45.7090 O.2       13 UNK        -0.5000 
     79 N          -0.3153  -26.7139  -46.7678 N.am      14 UNK        -0.5000 
     80 CA          0.3190  -27.3544  -47.9202 C.3       14 UNK         0.1400 
     81 CB          1.2455  -26.3531  -48.6280 C.3       14 UNK        -0.1800 
     82 C          -0.7013  -27.9576  -48.9041 C.2       14 UNK         0.5000 
     83 O          -0.4930  -29.0777  -49.3732 O.2       14 UNK        -0.5000 
     84 N          -1.7865  -27.2268  -49.1866 N.am      15 UNK        -0.5000 
     85 CA         -2.8875  -27.6640  -50.0399 C.3       15 UNK         0.1400 
     86 CB         -2.5544  -27.3841  -51.5158 C.3       15 UNK        -0.1800 
     87 C          -4.1642  -26.9273  -49.6233 C.2       15 UNK         0.5000 
     88 O          -4.1190  -25.7161  -49.4129 O.2       15 UNK        -0.5000 
     89 N          -5.2916  -27.6479  -49.5584 N.am      16 UNK        -0.5000 
     90 CA         -6.5872  -27.1519  -49.0723 C.3       16 UNK         0.1400 
     91 CB         -7.5906  -28.3153  -49.0577 C.3       16 UNK        -0.1800 
     92 C          -7.1684  -25.9514  -49.8500 C.2       16 UNK         0.5000 
     93 O          -7.9555  -25.1903  -49.2865 O.2       16 UNK        -0.5000 
     94 N          -6.7585  -25.7892  -51.1155 N.am      17 UNK        -0.5000 
     95 CA         -7.0937  -24.6443  -51.9654 C.3       17 UNK         0.1400 
     96 CB         -6.8236  -25.0239  -53.4303 C.3       17 UNK        -0.1800 
     97 C          -6.3240  -23.3570  -51.6008 C.2       17 UNK         0.5000 
     98 O          -6.6798  -22.2895  -52.1016 O.2       17 UNK        -0.5000 
     99 N          -5.2668  -23.4752  -50.7816 N.am      18 UNK        -0.5000 
    100 CA        -4.3706  -22.4093  -50.3250 C.3       18 UNK         0.1400 
    101 CB        -5.0936  -21.4791  -49.3296 C.3       18 UNK        -0.1800 
    102 C         -3.7012  -21.6509  -51.4886 C.2       18 UNK         0.5000 
    103 O         -3.6575  -20.4202  -51.4788 O.2       18 UNK        -0.5000 
    104 N         -3.2335  -22.4132  -52.4901 N.am      19 UNK        -0.5000 
    105 CA        -2.6679  -21.9442  -53.7621 C.3       19 UNK         0.1400 
    106 CB        -1.3122  -21.2433  -53.5377 C.3       19 UNK        -0.1800 
    107 C         -3.6689  -21.0811  -54.5587 C.2       19 UNK         0.5000 
    108 O         -3.3128  -20.0087  -55.0484 O.2       19 UNK        -0.5000 
    109 N         -4.9211  -21.5589  -54.6297 N.am      20 UNK        -0.5000 
    110 CA        -6.0920  -20.8863  -55.2052 C.3       20 UNK         0.1400 
    111 CB        -5.9593  -20.7699  -56.7381 C.3       20 UNK        -0.1800 
    112 C         -6.3817  -19.5381  -54.5106 C.2       20 UNK         0.5000 
    113 O         -6.6108  -18.5296  -55.1806 O.2       20 UNK        -0.5000 
    114 N         -6.3399  -19.5648  -53.1704 N.am      21 UNK        -0.5000 
    115 CA        -6.4576  -18.4349  -52.2467 C.3       21 UNK         0.1400 
    116 CB        -7.8942  -17.8720  -52.2585 C.3       21 UNK        -0.1800 
    117 C         -5.3780  -17.3588  -52.4912 C.2       21 UNK         0.5000 
    118 O         -5.7054  -16.2147  -52.8150 O.2       21 UNK        -0.5000 
    119 N         -4.1099  -17.7558  -52.3200 N.am      22 UNK        -0.5000 
    120 CA        -2.9115  -16.9028  -52.4315 C.3       22 UNK         0.1400 
    121 C         -2.6220  -16.4082  -53.8827 C.2       22 UNK         0.5000 
    122 N         -2.8914  -17.1997  -54.9125 N.am      22 UNK        -0.7600 
    123 O         -2.1343  -15.3001  -54.0925 O.2       22 UNK        -0.5000 
    124 C124       -2.8890  -15.7441  -51.3896 C.3       23 UNK        -0.0398 
    125 S125       -2.9939  -16.3261  -49.6612 S.3       23 UNK        -0.2404 
    126 C126       -1.4624  -15.6393  -48.9530 C.3       23 UNK        -0.0205 
    127 H127        0.4698  -11.7955  -51.0870 H         1 UNK         0.0600 
    128 H128        1.8599  -10.7960  -51.5200 H         1 UNK         0.0600 
    129 H129        0.7779  -10.2876  -50.2193 H         1 UNK         0.0600 
    130 H130        3.7713  -11.6348  -50.7575 H         1 UNK         0.3000 
    131 H131        5.3323  -12.6220  -49.5732 H         1 UNK         0.0600 
    132 H132        4.7409  -14.7819  -48.2881 H         1 UNK         0.0800 
    133 H133        3.0834  -14.5210  -48.7354 H         1 UNK         0.0800 
    134 H134        2.5172  -14.2101  -51.6341 H         1 UNK         0.0800 
    135 H135        3.0602  -15.6420  -52.4656 H         1 UNK         0.0800 
    136 H136        0.5371  -14.4460  -50.3675 H         1 UNK         0.1150 
    137 H137       -0.6772  -18.2239  -48.7972 H         1 UNK         0.1150 
    138 H138        3.0309  -17.8842  -50.9250 H         1 UNK         0.1150 
    139 H139        2.4845  -19.9619  -49.9958 H         1 UNK         0.0800 
    140 H140        1.6220  -19.8669  -48.4941 H         1 UNK         0.0800 
    141 H141       -1.8305  -21.2627  -49.2817 H         1 UNK         0.0800 
    142 H142       -0.9224  -20.2519  -48.2353 H         1 UNK         0.0800 
    143 H143        0.3544  -22.9261  -48.5192 H         1 UNK         0.0600 
    144 H144        0.1121  -20.9843  -46.4692 H         1 UNK         0.3000 
    145 H145        1.3006  -23.0298  -43.7774 H         1 UNK         0.0600 
    146 H146        2.8345  -21.0856  -43.6333 H         1 UNK         0.0600 
    147 H147        2.4340  -20.6109  -45.2812 H         1 UNK         0.0600 
    148 H148        3.2819  -22.1220  -44.9808 H         1 UNK         0.0600 
    149 H149        0.3974  -20.3261  -43.8427 H         1 UNK         0.3000 
    150 H150       -3.0521  -21.0195  -43.0923 H         1 UNK         0.0600 
    151 H151       -1.7960  -21.0301  -40.9406 H         1 UNK         0.0600 
    152 H152       -2.4840  -19.4454  -41.2648 H         1 UNK         0.0600 
    153 H153       -0.7636  -19.7275  -41.5157 H         1 UNK         0.0600 
    154 H154       -1.7112  -18.5552  -43.5252 H         1 UNK         0.3000 
    155 H155       -2.2171  -18.3867  -47.0744 H         1 UNK         0.0600 
    156 H156       -4.3149  -17.6471  -45.9122 H         1 UNK         0.0600 
    157 H157       -3.3059  -16.2947  -46.3877 H         1 UNK         0.0600 
    158 H158       -3.3446  -16.8127  -44.7042 H         1 UNK         0.0600 
    159 H159       -0.9542  -16.5248  -45.4121 H         1 UNK         0.3000 
    160 H160        2.3786  -17.9469  -45.4533 H         1 UNK         0.0600 
    161 H161        1.0318  -15.4720  -46.6551 H         1 UNK         0.0600 
    162 H162        2.1221  -16.5792  -47.4732 H         1 UNK         0.0600 
    163 H163        2.7256  -15.5600  -46.1768 H         1 UNK         0.0600 
    164 H164        1.4013  -15.6715  -44.0889 H         1 UNK         0.3000 
    165 H165        0.3974  -17.2671  -41.0525 H         1 UNK         0.0600 
    166 H166        1.9827  -15.5406  -40.1998 H         1 UNK         0.0600 
    167 H167        2.8476  -16.9161  -40.8688 H         1 UNK         0.0600 
    168 H168        2.7354  -15.4234  -41.7903 H         1 UNK         0.0600 
    169 H169        0.4221  -14.5622  -42.1114 H         1 UNK         0.3000 
    170 H170       -2.9758  -14.5853  -43.2041 H         1 UNK         0.0600 
    171 H171       -1.6027  -13.2121  -40.8312 H         1 UNK         0.0600 
    172 H172       -3.0790  -12.6753  -41.6332 H         1 UNK         0.0600 
    173 H173       -3.0645  -14.1873  -40.7398 H         1 UNK         0.0600 
    174 H174       -0.9545  -12.5485  -43.1354 H         1 UNK         0.3000 
    175 H175        0.4029  -13.2223  -46.3646 H         1 UNK         0.0600 
    176 H176       -1.4729  -10.9692  -45.4834 H         1 UNK         0.0600 
    177 H177       -0.3717  -10.9401  -46.8625 H         1 UNK         0.0600 
    178 H178       -1.7423  -12.0369  -46.8580 H         1 UNK         0.0600 
    179 H179        1.0369  -11.0350  -44.8704 H         1 UNK         0.3000 
    180 H180        2.5176  -10.9529  -42.9408 H         1 UNK         0.0600 
    181 H181        4.6397  -11.8777  -42.0393 H         1 UNK         0.0600 
    182 H182        4.3943  -13.3796  -42.9287 H         1 UNK         0.0600 
    183 H183        3.2907  -12.9267  -41.6338 H         1 UNK         0.0600 
    184 H184        4.6003  -11.8569  -44.8368 H         1 UNK         0.3000 
    185 H185        4.2825   -8.9037  -46.8183 H         1 UNK         0.0600 
    186 H186        6.6586   -9.4997  -46.7653 H         1 UNK         0.0600 
    187 H187        6.1040   -9.1663  -45.1333 H         1 UNK         0.0600 
    188 H188        6.3645  -10.8262  -45.6478 H         1 UNK         0.0600 
    189 H189        4.0726  -10.3395  -48.4633 H         1 UNK         0.3000 
    190 H190       -2.4531  -22.1525  -46.3955 H         1 UNK         0.3000 
    191 H191       -4.2326  -24.0628  -47.4546 H         1 UNK         0.0600 
    192 H192       -4.9465  -22.1893  -46.0168 H         1 UNK         0.0600 
    193 H193       -4.0760  -22.8687  -44.6429 H         1 UNK         0.0600 
    194 H194       -5.4671  -23.7126  -45.3146 H         1 UNK         0.0600 
    195 H195       -1.7041  -24.4227  -44.9671 H         1 UNK         0.3000 
    196 H196       -2.3813  -27.1190  -44.2190 H         1 UNK         0.0600 
    197 H197       -1.0452  -25.6305  -42.7539 H         1 UNK         0.0600 
    198 H198        0.2484  -25.5693  -43.9482 H         1 UNK         0.0600 
    199 H199       -0.1372  -27.0841  -43.1421 H         1 UNK         0.0600 
    200 H200       -0.2737  -25.7023  -46.7297 H         1 UNK         0.3000 
    201 H201        0.9404  -28.1714  -47.5475 H         1 UNK         0.0600 
    202 H202        1.9980  -25.9608  -47.9436 H         1 UNK         0.0600 
    203 H203        0.6947  -25.5073  -49.0383 H         1 UNK         0.0600 
    204 H204        1.7736  -26.8301  -49.4544 H         1 UNK         0.0600 
    205 H205       -1.8879  -26.2943  -48.7883 H         1 UNK         0.3000 
    206 H206       -3.0460  -28.7359  -49.9034 H         1 UNK         0.0600 
    207 H207       -2.3637  -26.3239  -51.6882 H         1 UNK         0.0600 
    208 H208       -1.6714  -27.9381  -51.8344 H         1 UNK         0.0600 
    209 H209       -3.3769  -27.6822  -52.1670 H         1 UNK         0.0600 
    210 H210       -5.2512  -28.6326  -49.7786 H         1 UNK         0.3000 
    211 H211       -6.4374  -26.8190  -48.0429 H         1 UNK         0.0600 
    212 H212       -7.7526  -28.7183  -50.0582 H         1 UNK         0.0600 
    213 H213       -8.5592  -27.9930  -48.6728 H         1 UNK         0.0600 
    214 H214       -7.2445  -29.1280  -48.4187 H         1 UNK         0.0600 
    215 H215       -6.1175  -26.4684  -51.4980 H         1 UNK         0.3000 
    216 H216       -8.1587  -24.4290  -51.8577 H         1 UNK         0.0600 
    217 H217       -7.1008  -24.2122  -54.1043 H         1 UNK         0.0600 
    218 H218       -7.4053  -25.8978  -53.7241 H         1 UNK         0.0600 
    219 H219       -5.7701  -25.2490  -53.6012 H         1 UNK         0.0600 
    220 H220       -5.0405  -24.3958  -50.4128 H         1 UNK         0.3000 
    221 H221       -3.5679  -22.9106  -49.7884 H         1 UNK         0.0600 
    222 H222       -5.8916  -20.9135  -49.8110 H         1 UNK         0.0600 
    223 H223       -5.5346  -22.0477  -48.5114 H         1 UNK         0.0600 
    224 H224       -4.4006  -20.7616  -48.8881 H         1 UNK         0.0600 
    225 H225       -3.3247  -23.4146  -52.3955 H         1 UNK         0.3000 
    226 H226       -2.4818  -22.8324  -54.3674 H         1 UNK         0.0600 
    227 H227       -0.6175  -21.8951  -53.0087 H         1 UNK         0.0600 
    228 H228       -0.8465  -20.9785  -54.4875 H         1 UNK         0.0600 
    229 H229       -1.4177  -20.3246  -52.9596 H         1 UNK         0.0600 
    230 H230       -5.1180  -22.4228  -54.1466 H         1 UNK         0.3000 
    231 H231       -6.9500  -21.5272  -54.9967 H         1 UNK         0.0600 
    232 H232       -6.8763  -20.3783  -57.1797 H         1 UNK         0.0600 
    233 H233       -5.7710  -21.7427  -57.1921 H         1 UNK         0.0600 
    234 H234       -5.1473  -20.1020  -57.0270 H         1 UNK         0.0600 
    235 H235       -6.1815  -20.4669  -52.7313 H         1 UNK         0.3000 
    236 H236       -6.2729  -18.8353  -51.2488 H         1 UNK         0.0600 
    237 H237       -8.1567  -17.4419  -53.2254 H         1 UNK         0.0600 
    238 H238       -8.6227  -18.6496  -52.0289 H         1 UNK         0.0600 
    239 H239       -8.0097  -17.0874  -51.5099 H         1 UNK         0.0600 
    240 H240       -3.9347  -18.7250  -52.0578 H         1 UNK         0.3000 
    241 H241       -2.0695  -17.5539  -52.1929 H         1 UNK         0.0600 
    242 H242       -2.7014  -16.8698  -55.8445 H         1 UNK         0.3800 
    243 H243       -3.2201  -18.1541  -54.7845 H         1 UNK         0.3800 
    244 H244       -3.7078  -15.0466  -51.5679 H         1 UNK         0.0800 
    245 H245       -1.9770  -15.1568  -51.5031 H         1 UNK         0.0800 
    246 H246       -1.4666  -15.7996  -47.8762 H         1 UNK         0.0800 
    247 H247       -1.4537  -14.5573  -49.0943 H         1 UNK         0.0800 
@<TRIPOS>BOND
     1    1    2 1    
     2    1  127 1    
     3    1  128 1    
     4    1  129 1    
     5    2    3 2    
     6    2    4 am   BACKBONE|DICT|INTERRES
     7    4    5 1    
     8    4  130 1    
     9    5    6 1    
    10    5   65 1    
    11    5  131 1    
    12    6    7 1    
    13    6  132 1    
    14    6  133 1    
    15    7    8 1    
    16    8    9 1    
    17    8  134 1    
    18    8  135 1    
    19    9   10 ar   
    20    9   14 ar   
    21   10   11 ar   
    22   10  136 1    
    23   11   12 ar   
    24   11  126 1    
    25   12   13 ar   
    26   12  137 1    
    27   13   14 ar   
    28   13   15 1    
    29   14  138 1    
    30   15   16 1    
    31   15  139 1    
    32   15  140 1    
    33   16   17 1    
    34   17   18 1    
    35   17  141 1    
    36   17  142 1    
    37   18   19 1    
    38   18   67 1    
    39   18  143 1    
    40   19   20 am   BACKBONE|DICT|INTERRES
    41   19  144 1    
    42   20   21 2    
    43   20   22 1    
    44   22   23 1    
    45   22   24 1    
    46   22  145 1    
    47   23  146 1    
    48   23  147 1    
    49   23  148 1    
    50   24   25 am   BACKBONE|DICT|INTERRES
    51   24  149 1    
    52   25   26 2    
    53   25   27 1    
    54   27   28 1    
    55   27   29 1    
    56   27  150 1    
    57   28  151 1    
    58   28  152 1    
    59   28  153 1    
    60   29   30 am   BACKBONE|DICT|INTERRES
    61   29  154 1    
    62   30   31 2    
    63   30   32 1    
    64   32   33 1    
    65   32   34 1    
    66   32  155 1    
    67   33  156 1    
    68   33  157 1    
    69   33  158 1    
    70   34   35 am   BACKBONE|DICT|INTERRES
    71   34  159 1    
    72   35   36 2    
    73   35   37 1    
    74   37   38 1    
    75   37   39 1    
    76   37  160 1    
    77   38  161 1    
    78   38  162 1    
    79   38  163 1    
    80   39   40 am   BACKBONE|DICT|INTERRES
    81   39  164 1    
    82   40   41 2    
    83   40   42 1    
    84   42   43 1    
    85   42   44 1    
    86   42  165 1    
    87   43  166 1    
    88   43  167 1    
    89   43  168 1    
    90   44   45 am   BACKBONE|DICT|INTERRES
    91   44  169 1    
    92   45   46 2    
    93   45   47 1    
    94   47   48 1    
    95   47   49 1    
    96   47  170 1    
    97   48  171 1    
    98   48  172 1    
    99   48  173 1    
   100   49   50 am   BACKBONE|DICT|INTERRES
   101   49  174 1    
   102   50   51 2    
   103   50   52 1    
   104   52   53 1    
   105   52   54 1    
   106   52  175 1    
   107   53  176 1    
   108   53  177 1    
   109   53  178 1    
   110   54   55 am   BACKBONE|DICT|INTERRES
   111   54  179 1    
   112   55   56 2    
   113   55   57 1    
   114   57   58 1    
   115   57   59 1    
   116   57  180 1    
   117   58  181 1    
   118   58  182 1    
   119   58  183 1    
   120   59   60 am   BACKBONE|DICT|INTERRES
   121   59  184 1    
   122   60   61 2    
   123   60   62 1    
   124   62   63 1    
   125   62   64 1    
   126   62  185 1    
   127   63  186 1    
   128   63  187 1    
   129   63  188 1    
   130   64   65 am   BACKBONE|DICT|INTERRES
   131   64  189 1    
   132   65   66 2    
   133   67   68 2    
   134   67   69 am   BACKBONE|DICT|INTERRES
   135   69   70 1    
   136   69  190 1    
   137   70   71 1    
   138   70   72 1    
   139   70  191 1    
   140   71  192 1    
   141   71  193 1    
   142   71  194 1    
   143   72   73 2    
   144   72   74 am   BACKBONE|DICT|INTERRES
   145   74   75 1    
   146   74  195 1    
   147   75   76 1    
   148   75   77 1    
   149   75  196 1    
   150   76  197 1    
   151   76  198 1    
   152   76  199 1    
   153   77   78 2    
   154   77   79 am   BACKBONE|DICT|INTERRES
   155   79   80 1    
   156   79  200 1    
   157   80   81 1    
   158   80   82 1    
   159   80  201 1    
   160   81  202 1    
   161   81  203 1    
   162   81  204 1    
   163   82   83 2    
   164   82   84 am   BACKBONE|DICT|INTERRES
   165   84   85 1    
   166   84  205 1    
   167   85   86 1    
   168   85   87 1    
   169   85  206 1    
   170   86  207 1    
   171   86  208 1    
   172   86  209 1    
   173   87   88 2    
   174   87   89 am   BACKBONE|DICT|INTERRES
   175   89   90 1    
   176   89  210 1    
   177   90   91 1    
   178   90   92 1    
   179   90  211 1    
   180   91  212 1    
   181   91  213 1    
   182   91  214 1    
   183   92   93 2    
   184   92   94 am   BACKBONE|DICT|INTERRES
   185   94   95 1    
   186   94  215 1    
   187   95   96 1    
   188   95   97 1    
   189   95  216 1    
   190   96  217 1    
   191   96  218 1    
   192   96  219 1    
   193   97   98 2    
   194   97   99 am   BACKBONE|DICT|INTERRES
   195   99  100 1    
   196   99  220 1    
   197  100  101 1    
   198  100  102 1    
   199  100  221 1    
   200  101  222 1    
   201  101  223 1    
   202  101  224 1    
   203  102  103 2    
   204  102  104 am   BACKBONE|DICT|INTERRES
   205  104  105 1    
   206  104  225 1    
   207  105  106 1    
   208  105  107 1    
   209  105  226 1    
   210  106  227 1    
   211  106  228 1    
   212  106  229 1    
   213  107  108 2    
   214  107  109 am   BACKBONE|DICT|INTERRES
   215  109  110 1    
   216  109  230 1    
   217  110  111 1    
   218  110  112 1    
   219  110  231 1    
   220  111  232 1    
   221  111  233 1    
   222  111  234 1    
   223  112  113 2    
   224  112  114 am   BACKBONE|DICT|INTERRES
   225  114  115 1    
   226  114  235 1    
   227  115  116 1    
   228  115  117 1    
   229  115  236 1    
   230  116  237 1    
   231  116  238 1    
   232  116  239 1    
   233  117  118 2    
   234  117  119 am   BACKBONE|DICT|INTERRES
   235  119  120 1    
   236  119  240 1    
   237  120  121 1    
   238  120  124 1    
   239  120  241 1    
   240  121  122 am   BACKBONE|DICT|INTERRES
   241  121  123 2    
   242  122  242 1    
   243  122  243 1    
   244  124  125 1    
   245  124  244 1    
   246  124  245 1    
   247  125  126 1    
   248  126  246 1    
   249  126  247 1    
@<TRIPOS>SUBSTRUCTURE
     1 UNK         1 GROUP             0       ****    0 ROOT    
