@<TRIPOS>MOLECULE
3R540
247   249    1
SMALL
USER_CHARGES


@<TRIPOS>ATOM
      1 CA         -0.3097  -12.8789  -49.3397 C.3       0 UNK        -0.1800 
      2 C           1.1662  -13.2277  -49.2148 C.2       0 UNK         0.5000 
      3 O           1.5075  -14.1986  -48.5421 O.2       0 UNK        -0.5000 
      4 N           2.0325  -12.4274  -49.8521 N.am      1 UNK        -0.5000 
      5 CA          3.4994  -12.5376  -49.9374 C.3       1 UNK         0.1400 
      6 C6          4.0163  -13.8281  -50.6306 C.3       23 UNK        -0.0398 
      7 S7          3.2734  -14.1190  -52.2787 S.3       23 UNK        -0.2404 
      8 C8          3.1197  -15.9388  -52.3421 C.3       23 UNK        -0.0205 
      9 C9          2.2012  -16.4758  -51.2546 C.ar      23 UNK        -0.0193 
     10 C10         0.8151  -16.3167  -51.3578 C.ar      23 UNK        -0.1150 
     11 C11        -0.0220  -16.7123  -50.3102 C.ar      23 UNK        -0.0193 
     12 C12         0.5424  -17.2691  -49.1611 C.ar      23 UNK        -0.1150 
     13 C13         1.9227  -17.4742  -49.0605 C.ar      23 UNK        -0.0193 
     14 C14         2.7445  -17.0888  -50.1209 C.ar      23 UNK        -0.1150 
     15 C15         2.5341  -18.0482  -47.7868 C.3       23 UNK        -0.0205 
     16 S16         2.6340  -19.8690  -47.7992 S.3       23 UNK        -0.2404 
     17 C17         0.8819  -20.3045  -48.0216 C.3       23 UNK        -0.0398 
     18 CA          0.4631  -21.6352  -47.3642 C.3       11 UNK         0.1400 
     19 N           0.3787  -21.5458  -45.9015 N.am      11 UNK        -0.5000 
     20 C           0.0598  -22.5663  -45.0909 C.2       10 UNK         0.5000 
     21 O          -0.1227  -23.7199  -45.4793 O.2       10 UNK        -0.5000 
     22 CA         -0.1568  -22.2365  -43.6039 C.3       10 UNK         0.1400 
     23 CB          1.1833  -22.0832  -42.8695 C.3       10 UNK        -0.1800 
     24 N          -0.9833  -21.0440  -43.4068 N.am      10 UNK        -0.5000 
     25 C          -2.2622  -20.9380  -43.7979 C.2       9 UNK         0.5000 
     26 O          -2.8883  -21.8510  -44.3358 O.2       9 UNK        -0.5000 
     27 CA         -2.9544  -19.5793  -43.5849 C.3       9 UNK         0.1400 
     28 CB         -3.4552  -19.4440  -42.1394 C.3       9 UNK        -0.1800 
     29 N          -2.0973  -18.4419  -43.9163 N.am      9 UNK        -0.5000 
     30 C          -1.6076  -18.1822  -45.1370 C.2       8 UNK         0.5000 
     31 O          -1.8583  -18.8567  -46.1362 O.2       8 UNK        -0.5000 
     32 CA         -0.6134  -17.0101  -45.2416 C.3       8 UNK         0.1400 
     33 CB         -1.3357  -15.6556  -45.2652 C.3       8 UNK        -0.1800 
     34 N           0.3908  -17.0280  -44.1764 N.am      8 UNK        -0.5000 
     35 C           1.2519  -18.0361  -43.9686 C.2       7 UNK         0.5000 
     36 O           1.3213  -19.0375  -44.6804 O.2       7 UNK        -0.5000 
     37 CA          2.1425  -17.9367  -42.7207 C.3       7 UNK         0.1400 
     38 CB          3.3469  -17.0185  -42.9737 C.3       7 UNK        -0.1800 
     39 N           1.3876  -17.4684  -41.5585 N.am      7 UNK        -0.5000 
     40 C           0.4431  -18.1916  -40.9384 C.2       6 UNK         0.5000 
     41 O           0.1505  -19.3449  -41.2515 O.2       6 UNK        -0.5000 
     42 CA         -0.3357  -17.4944  -39.8084 C.3       6 UNK         0.1400 
     43 CB          0.4343  -17.5872  -38.4828 C.3       6 UNK        -0.1800 
     44 N          -0.6216  -16.0907  -40.1062 N.am      6 UNK        -0.5000 
     45 C          -1.4160  -15.6689  -41.1010 C.2       5 UNK         0.5000 
     46 O          -2.0350  -16.4259  -41.8472 O.2       5 UNK        -0.5000 
     47 CA         -1.4926  -14.1474  -41.3282 C.3       5 UNK         0.1400 
     48 CB         -2.6442  -13.5379  -40.5155 C.3       5 UNK        -0.1800 
     49 N          -0.2424  -13.4606  -40.9919 N.am      5 UNK        -0.5000 
     50 C           0.9117  -13.6277  -41.6500 C.2       4 UNK         0.5000 
     51 O           1.0412  -14.3648  -42.6308 O.2       4 UNK        -0.5000 
     52 CA          2.1388  -12.9104  -41.0669 C.3       4 UNK         0.1400 
     53 CB          3.0997  -13.9245  -40.4260 C.3       4 UNK        -0.1800 
     54 N           2.8504  -12.1623  -42.0982 N.am      4 UNK        -0.5000 
     55 C           2.4983  -10.9445  -42.5317 C.2       3 UNK         0.5000 
     56 O           1.5321  -10.3175  -42.0950 O.2       3 UNK        -0.5000 
     57 CA          3.3843  -10.3082  -43.6204 C.3       3 UNK         0.1400 
     58 CB          4.4515   -9.4053  -42.9823 C.3       3 UNK        -0.1800 
     59 N           4.0462  -11.3030  -44.4678 N.am      3 UNK        -0.5000 
     60 C           3.4346  -11.9629  -45.4582 C.2       2 UNK         0.5000 
     61 O           2.2565  -11.7811  -45.7761 O.2       2 UNK        -0.5000 
     62 CA          4.2765  -13.0214  -46.1908 C.3       2 UNK         0.1400 
     63 CB          4.1151  -14.3926  -45.5145 C.3       2 UNK        -0.1800 
     64 N           3.8541  -13.1363  -47.5811 N.am      2 UNK        -0.5000 
     65 C           4.2037  -12.3183  -48.5786 C.2       1 UNK         0.5000 
     66 O           5.0349  -11.4164  -48.4605 O.2       1 UNK        -0.5000 
     67 C          -0.8732  -22.0880  -47.9807 C.2       11 UNK         0.5000 
     68 O          -0.8797  -23.0293  -48.7733 O.2       11 UNK        -0.5000 
     69 N          -1.9728  -21.4235  -47.5938 N.am      12 UNK        -0.5000 
     70 CA         -3.3267  -21.7111  -48.0653 C.3       12 UNK         0.1400 
     71 CB         -4.3105  -20.7015  -47.4586 C.3       12 UNK        -0.1800 
     72 C          -3.7741  -23.1516  -47.7676 C.2       12 UNK         0.5000 
     73 O          -4.3286  -23.8026  -48.6513 O.2       12 UNK        -0.5000 
     74 N          -3.4921  -23.6313  -46.5493 N.am      13 UNK        -0.5000 
     75 CA         -3.7663  -24.9995  -46.1154 C.3       13 UNK         0.1400 
     76 CB         -3.5615  -25.1020  -44.5962 C.3       13 UNK        -0.1800 
     77 C          -2.9106  -26.0478  -46.8503 C.2       13 UNK         0.5000 
     78 O          -3.4339  -27.0991  -47.2211 O.2       13 UNK        -0.5000 
     79 N          -1.6171  -25.7517  -47.0395 N.am      14 UNK        -0.5000 
     80 CA         -0.6561  -26.6416  -47.6897 C.3       14 UNK         0.1400 
     81 CB          0.7739  -26.1604  -47.3973 C.3       14 UNK        -0.1800 
     82 C          -0.8845  -26.7702  -49.2050 C.2       14 UNK         0.5000 
     83 O          -0.8977  -27.8880  -49.7228 O.2       14 UNK        -0.5000 
     84 N          -1.0384  -25.6300  -49.8902 N.am      15 UNK        -0.5000 
     85 CA         -1.1909  -25.5660  -51.3429 C.3       15 UNK         0.1400 
     86 CB         -0.7830  -24.1703  -51.8328 C.3       15 UNK        -0.1800 
     87 C          -2.6161  -25.9004  -51.8084 C.2       15 UNK         0.5000 
     88 O          -2.7740  -26.4966  -52.8753 O.2       15 UNK        -0.5000 
     89 N          -3.6239  -25.5038  -51.0155 N.am      16 UNK        -0.5000 
     90 CA         -5.0552  -25.6469  -51.2887 C.3       16 UNK         0.1400 
     91 CB         -5.4833  -27.1225  -51.1253 C.3       16 UNK        -0.1800 
     92 C          -5.4282  -25.0152  -52.6460 C.2       16 UNK         0.5000 
     93 O          -5.1548  -23.8300  -52.8555 O.2       16 UNK        -0.5000 
     94 N          -5.9999  -25.8142  -53.5559 N.am      17 UNK        -0.5000 
     95 CA         -6.4195  -25.4220  -54.9017 C.3       17 UNK         0.1400 
     96 CB         -7.0952  -26.6216  -55.5822 C.3       17 UNK        -0.1800 
     97 C          -5.2913  -24.8648  -55.7924 C.2       17 UNK         0.5000 
     98 O          -5.5818  -24.0624  -56.6793 O.2       17 UNK        -0.5000 
     99 N          -4.0316  -25.2466  -55.5280 N.am      18 UNK        -0.5000 
    100 CA        -2.8553  -24.7579  -56.2560 C.3       18 UNK         0.1400 
    101 CB        -1.6333  -25.6181  -55.9013 C.3       18 UNK        -0.1800 
    102 C         -2.5576  -23.2640  -56.0122 C.2       18 UNK         0.5000 
    103 O         -1.9615  -22.6228  -56.8781 O.2       18 UNK        -0.5000 
    104 N         -2.9953  -22.7352  -54.8612 N.am      19 UNK        -0.5000 
    105 CA        -2.9256  -21.3143  -54.5097 C.3       19 UNK         0.1400 
    106 CB        -2.2619  -21.1809  -53.1277 C.3       19 UNK        -0.1800 
    107 C         -4.3209  -20.6619  -54.4944 C.2       19 UNK         0.5000 
    108 O         -4.4332  -19.5056  -54.0869 O.2       19 UNK        -0.5000 
    109 N         -5.3668  -21.4210  -54.8638 N.am      20 UNK        -0.5000 
    110 CA        -6.7938  -21.0960  -54.7244 C.3       20 UNK         0.1400 
    111 CB        -7.1981  -20.0026  -55.7337 C.3       20 UNK        -0.1800 
    112 C         -7.1796  -20.7420  -53.2689 C.2       20 UNK         0.5000 
    113 O         -7.9936  -19.8447  -53.0406 O.2       20 UNK        -0.5000 
    114 N         -6.5182  -21.4103  -52.3095 N.am      21 UNK        -0.5000 
    115 CA        -6.5314  -21.1630  -50.8634 C.3       21 UNK         0.1400 
    116 CB        -7.8660  -21.6380  -50.2562 C.3       21 UNK        -0.1800 
    117 C         -6.1806  -19.7058  -50.4772 C.2       21 UNK         0.5000 
    118 O         -6.6532  -19.2174  -49.4500 O.2       21 UNK        -0.5000 
    119 N         -5.3843  -19.0309  -51.3207 N.am      22 UNK        -0.5000 
    120 CA        -5.0596  -17.5960  -51.2549 C.3       22 UNK         0.1400 
    121 C         -6.2865  -16.6498  -51.4590 C.2       22 UNK         0.5000 
    122 N         -7.4032  -17.1116  -52.0121 N.am      22 UNK        -0.7600 
    123 O         -6.2211  -15.4638  -51.1468 O.2       22 UNK        -0.5000 
    124 C124       -4.1913  -17.2242  -50.0188 C.3       23 UNK        -0.0398 
    125 S125       -2.5194  -17.9596  -50.0948 S.3       23 UNK        -0.2404 
    126 C126       -1.5222  -16.4566  -50.3728 C.3       23 UNK        -0.0205 
    127 H127       -0.7764  -13.5026  -50.1014 H         1 UNK         0.0600 
    128 H128       -0.4536  -11.8343  -49.6161 H         1 UNK         0.0600 
    129 H129       -0.8208  -13.0520  -48.3924 H         1 UNK         0.0600 
    130 H130        1.6543  -11.6408  -50.3605 H         1 UNK         0.3000 
    131 H131        3.8020  -11.7014  -50.5700 H         1 UNK         0.0600 
    132 H132        5.0981  -13.7744  -50.7640 H         1 UNK         0.0800 
    133 H133        3.8407  -14.6867  -49.9861 H         1 UNK         0.0800 
    134 H134        4.1123  -16.3855  -52.2659 H         1 UNK         0.0800 
    135 H135        2.7291  -16.2274  -53.3189 H         1 UNK         0.0800 
    136 H136        0.3969  -15.8407  -52.2335 H         1 UNK         0.1150 
    137 H137       -0.1104  -17.5245  -48.3425 H         1 UNK         0.1150 
    138 H138        3.8145  -17.2180  -50.0393 H         1 UNK         0.1150 
    139 H139        3.5383  -17.6458  -47.6459 H         1 UNK         0.0800 
    140 H140        1.9648  -17.7201  -46.9197 H         1 UNK         0.0800 
    141 H141        0.6989  -20.3141  -49.0987 H         1 UNK         0.0800 
    142 H142        0.2629  -19.5111  -47.6083 H         1 UNK         0.0800 
    143 H143        1.2083  -22.3953  -47.6080 H         1 UNK         0.0600 
    144 H144        0.5539  -20.6319  -45.4914 H         1 UNK         0.3000 
    145 H145       -0.6874  -23.0792  -43.1557 H         1 UNK         0.0600 
    146 H146        1.7600  -21.2400  -43.2483 H         1 UNK         0.0600 
    147 H147        1.0316  -21.9322  -41.8007 H         1 UNK         0.0600 
    148 H148        1.7959  -22.9778  -42.9873 H         1 UNK         0.0600 
    149 H149       -0.5490  -20.2643  -42.9247 H         1 UNK         0.3000 
    150 H150       -3.8216  -19.5418  -44.2469 H         1 UNK         0.0600 
    151 H151       -4.1157  -20.2710  -41.8757 H         1 UNK         0.0600 
    152 H152       -4.0186  -18.5209  -42.0027 H         1 UNK         0.0600 
    153 H153       -2.6309  -19.4407  -41.4260 H         1 UNK         0.0600 
    154 H154       -1.8772  -17.8038  -43.1562 H         1 UNK         0.3000 
    155 H155       -0.0827  -17.1124  -46.1853 H         1 UNK         0.0600 
    156 H156       -1.9075  -15.4838  -44.3541 H         1 UNK         0.0600 
    157 H157       -0.6279  -14.8338  -45.3784 H         1 UNK         0.0600 
    158 H158       -2.0315  -15.6034  -46.1036 H         1 UNK         0.0600 
    159 H159        0.4205  -16.2260  -43.5577 H         1 UNK         0.3000 
    160 H160        2.5230  -18.9364  -42.5004 H         1 UNK         0.0600 
    161 H161        3.9324  -17.3711  -43.8238 H         1 UNK         0.0600 
    162 H162        3.0377  -15.9974  -43.1931 H         1 UNK         0.0600 
    163 H163        4.0113  -16.9917  -42.1100 H         1 UNK         0.0600 
    164 H164        1.5341  -16.5116  -41.2749 H         1 UNK         0.3000 
    165 H165       -1.2878  -18.0157  -39.6891 H         1 UNK         0.0600 
    166 H166       -0.1435  -17.1639  -37.6609 H         1 UNK         0.0600 
    167 H167        0.6467  -18.6263  -38.2276 H         1 UNK         0.0600 
    168 H168        1.3876  -17.0593  -38.5307 H         1 UNK         0.0600 
    169 H169       -0.1608  -15.3994  -39.5338 H         1 UNK         0.3000 
    170 H170       -1.6958  -13.9798  -42.3878 H         1 UNK         0.0600 
    171 H171       -3.5924  -14.0172  -40.7633 H         1 UNK         0.0600 
    172 H172       -2.4878  -13.6548  -39.4424 H         1 UNK         0.0600 
    173 H173       -2.7551  -12.4739  -40.7255 H         1 UNK         0.0600 
    174 H174       -0.2709  -12.8363  -40.1984 H         1 UNK         0.3000 
    175 H175        1.8131  -12.2179  -40.2874 H         1 UNK         0.0600 
    176 H176        3.5022  -14.6219  -41.1607 H         1 UNK         0.0600 
    177 H177        3.9413  -13.4205  -39.9506 H         1 UNK         0.0600 
    178 H178        2.5968  -14.5105  -39.6557 H         1 UNK         0.0600 
    179 H179        3.6280  -12.6269  -42.5412 H         1 UNK         0.3000 
    180 H180        2.7431   -9.6822  -44.2451 H         1 UNK         0.0600 
    181 H181        5.1333   -9.9725  -42.3473 H         1 UNK         0.0600 
    182 H182        3.9910   -8.6346  -42.3627 H         1 UNK         0.0600 
    183 H183        5.0444   -8.8971  -43.7430 H         1 UNK         0.0600 
    184 H184        5.0171  -11.4960  -44.2672 H         1 UNK         0.3000 
    185 H185        5.3292  -12.7325  -46.1595 H         1 UNK         0.0600 
    186 H186        4.6987  -15.1577  -46.0268 H         1 UNK         0.0600 
    187 H187        4.4580  -14.3609  -44.4798 H         1 UNK         0.0600 
    188 H188        3.0730  -14.7171  -45.5064 H         1 UNK         0.0600 
    189 H189        3.0671  -13.7578  -47.7629 H         1 UNK         0.3000 
    190 H190       -1.8780  -20.6394  -46.9539 H         1 UNK         0.3000 
    191 H191       -3.3313  -21.5808  -49.1495 H         1 UNK         0.0600 
    192 H192       -4.2827  -20.7149  -46.3698 H         1 UNK         0.0600 
    193 H193       -5.3349  -20.9228  -47.7588 H         1 UNK         0.0600 
    194 H194       -4.0846  -19.6866  -47.7861 H         1 UNK         0.0600 
    195 H195       -3.0719  -23.0105  -45.8623 H         1 UNK         0.3000 
    196 H196       -4.8146  -25.2161  -46.3313 H         1 UNK         0.0600 
    197 H197       -3.7685  -26.1117  -44.2397 H         1 UNK         0.0600 
    198 H198       -4.2289  -24.4248  -44.0629 H         1 UNK         0.0600 
    199 H199       -2.5382  -24.8541  -44.3111 H         1 UNK         0.0600 
    200 H200       -1.2499  -24.8799  -46.6701 H         1 UNK         0.3000 
    201 H201       -0.7675  -27.6363  -47.2527 H         1 UNK         0.0600 
    202 H202        0.9802  -26.1696  -46.3270 H         1 UNK         0.0600 
    203 H203        0.9399  -25.1453  -47.7603 H         1 UNK         0.0600 
    204 H204        1.5109  -26.8065  -47.8758 H         1 UNK         0.0600 
    205 H205       -1.0088  -24.7403  -49.3943 H         1 UNK         0.3000 
    206 H206       -0.5141  -26.2911  -51.8001 H         1 UNK         0.0600 
    207 H207        0.2509  -23.9461  -51.5705 H         1 UNK         0.0600 
    208 H208       -0.8696  -24.0915  -52.9168 H         1 UNK         0.0600 
    209 H209       -1.4132  -23.3972  -51.3936 H         1 UNK         0.0600 
    210 H210       -3.4057  -24.9909  -50.1694 H         1 UNK         0.3000 
    211 H211       -5.5854  -25.0656  -50.5345 H         1 UNK         0.0600 
    212 H212       -4.9950  -27.7782  -51.8470 H         1 UNK         0.0600 
    213 H213       -6.5619  -27.2376  -51.2397 H         1 UNK         0.0600 
    214 H214       -5.2294  -27.4874  -50.1296 H         1 UNK         0.0600 
    215 H215       -6.1512  -26.7808  -53.3065 H         1 UNK         0.3000 
    216 H216       -7.1631  -24.6302  -54.7911 H         1 UNK         0.0600 
    217 H217       -7.4492  -26.3579  -56.5799 H         1 UNK         0.0600 
    218 H218       -7.9598  -26.9638  -55.0132 H         1 UNK         0.0600 
    219 H219       -6.4081  -27.4620  -55.6891 H         1 UNK         0.0600 
    220 H220       -3.8580  -25.8772  -54.7538 H         1 UNK         0.3000 
    221 H221       -3.0517  -24.8805  -57.3233 H         1 UNK         0.0600 
    222 H222       -1.3436  -25.4991  -54.8579 H         1 UNK         0.0600 
    223 H223       -1.8277  -26.6760  -56.0781 H         1 UNK         0.0600 
    224 H224       -0.7726  -25.3394  -56.5105 H         1 UNK         0.0600 
    225 H225       -3.4924  -23.3308  -54.2090 H         1 UNK         0.3000 
    226 H226       -2.3232  -20.7614  -55.2327 H         1 UNK         0.0600 
    227 H227       -1.2532  -21.5924  -53.1371 H         1 UNK         0.0600 
    228 H228       -2.1749  -20.1359  -52.8265 H         1 UNK         0.0600 
    229 H229       -2.8350  -21.6966  -52.3559 H         1 UNK         0.0600 
    230 H230       -5.1680  -22.3462  -55.2191 H         1 UNK         0.3000 
    231 H231       -7.3450  -22.0030  -54.9757 H         1 UNK         0.0600 
    232 H232       -8.2766  -19.8413  -55.7253 H         1 UNK         0.0600 
    233 H233       -6.9210  -20.2836  -56.7497 H         1 UNK         0.0600 
    234 H234       -6.7227  -19.0474  -55.5082 H         1 UNK         0.0600 
    235 H235       -5.8958  -22.1594  -52.6066 H         1 UNK         0.3000 
    236 H236       -5.7388  -21.7845  -50.4438 H         1 UNK         0.0600 
    237 H237       -7.8427  -21.5868  -49.1670 H         1 UNK         0.0600 
    238 H238       -8.0736  -22.6736  -50.5255 H         1 UNK         0.0600 
    239 H239       -8.7027  -21.0274  -50.5969 H         1 UNK         0.0600 
    240 H240       -5.0744  -19.4873  -52.1713 H         1 UNK         0.3000 
    241 H241       -4.4478  -17.4062  -52.1375 H         1 UNK         0.0600 
    242 H242       -8.1799  -16.4845  -52.1473 H         1 UNK         0.3800 
    243 H243       -7.4916  -18.0822  -52.2970 H         1 UNK         0.3800 
    244 H244       -4.0857  -16.1424  -49.9304 H         1 UNK         0.0800 
    245 H245       -4.6720  -17.5427  -49.0938 H         1 UNK         0.0800 
    246 H246       -1.8006  -16.0204  -51.3333 H         1 UNK         0.0800 
    247 H247       -1.7693  -15.7185  -49.6087 H         1 UNK         0.0800 
@<TRIPOS>BOND
     1    1    2 1    
     2    1  127 1    
     3    1  128 1    
     4    1  129 1    
     5    2    3 2    
     6    2    4 am   BACKBONE|DICT|INTERRES
     7    4    5 1    
     8    4  130 1    
     9    5    6 1    
    10    5   65 1    
    11    5  131 1    
    12    6    7 1    
    13    6  132 1    
    14    6  133 1    
    15    7    8 1    
    16    8    9 1    
    17    8  134 1    
    18    8  135 1    
    19    9   10 ar   
    20    9   14 ar   
    21   10   11 ar   
    22   10  136 1    
    23   11   12 ar   
    24   11  126 1    
    25   12   13 ar   
    26   12  137 1    
    27   13   14 ar   
    28   13   15 1    
    29   14  138 1    
    30   15   16 1    
    31   15  139 1    
    32   15  140 1    
    33   16   17 1    
    34   17   18 1    
    35   17  141 1    
    36   17  142 1    
    37   18   19 1    
    38   18   67 1    
    39   18  143 1    
    40   19   20 am   BACKBONE|DICT|INTERRES
    41   19  144 1    
    42   20   21 2    
    43   20   22 1    
    44   22   23 1    
    45   22   24 1    
    46   22  145 1    
    47   23  146 1    
    48   23  147 1    
    49   23  148 1    
    50   24   25 am   BACKBONE|DICT|INTERRES
    51   24  149 1    
    52   25   26 2    
    53   25   27 1    
    54   27   28 1    
    55   27   29 1    
    56   27  150 1    
    57   28  151 1    
    58   28  152 1    
    59   28  153 1    
    60   29   30 am   BACKBONE|DICT|INTERRES
    61   29  154 1    
    62   30   31 2    
    63   30   32 1    
    64   32   33 1    
    65   32   34 1    
    66   32  155 1    
    67   33  156 1    
    68   33  157 1    
    69   33  158 1    
    70   34   35 am   BACKBONE|DICT|INTERRES
    71   34  159 1    
    72   35   36 2    
    73   35   37 1    
    74   37   38 1    
    75   37   39 1    
    76   37  160 1    
    77   38  161 1    
    78   38  162 1    
    79   38  163 1    
    80   39   40 am   BACKBONE|DICT|INTERRES
    81   39  164 1    
    82   40   41 2    
    83   40   42 1    
    84   42   43 1    
    85   42   44 1    
    86   42  165 1    
    87   43  166 1    
    88   43  167 1    
    89   43  168 1    
    90   44   45 am   BACKBONE|DICT|INTERRES
    91   44  169 1    
    92   45   46 2    
    93   45   47 1    
    94   47   48 1    
    95   47   49 1    
    96   47  170 1    
    97   48  171 1    
    98   48  172 1    
    99   48  173 1    
   100   49   50 am   BACKBONE|DICT|INTERRES
   101   49  174 1    
   102   50   51 2    
   103   50   52 1    
   104   52   53 1    
   105   52   54 1    
   106   52  175 1    
   107   53  176 1    
   108   53  177 1    
   109   53  178 1    
   110   54   55 am   BACKBONE|DICT|INTERRES
   111   54  179 1    
   112   55   56 2    
   113   55   57 1    
   114   57   58 1    
   115   57   59 1    
   116   57  180 1    
   117   58  181 1    
   118   58  182 1    
   119   58  183 1    
   120   59   60 am   BACKBONE|DICT|INTERRES
   121   59  184 1    
   122   60   61 2    
   123   60   62 1    
   124   62   63 1    
   125   62   64 1    
   126   62  185 1    
   127   63  186 1    
   128   63  187 1    
   129   63  188 1    
   130   64   65 am   BACKBONE|DICT|INTERRES
   131   64  189 1    
   132   65   66 2    
   133   67   68 2    
   134   67   69 am   BACKBONE|DICT|INTERRES
   135   69   70 1    
   136   69  190 1    
   137   70   71 1    
   138   70   72 1    
   139   70  191 1    
   140   71  192 1    
   141   71  193 1    
   142   71  194 1    
   143   72   73 2    
   144   72   74 am   BACKBONE|DICT|INTERRES
   145   74   75 1    
   146   74  195 1    
   147   75   76 1    
   148   75   77 1    
   149   75  196 1    
   150   76  197 1    
   151   76  198 1    
   152   76  199 1    
   153   77   78 2    
   154   77   79 am   BACKBONE|DICT|INTERRES
   155   79   80 1    
   156   79  200 1    
   157   80   81 1    
   158   80   82 1    
   159   80  201 1    
   160   81  202 1    
   161   81  203 1    
   162   81  204 1    
   163   82   83 2    
   164   82   84 am   BACKBONE|DICT|INTERRES
   165   84   85 1    
   166   84  205 1    
   167   85   86 1    
   168   85   87 1    
   169   85  206 1    
   170   86  207 1    
   171   86  208 1    
   172   86  209 1    
   173   87   88 2    
   174   87   89 am   BACKBONE|DICT|INTERRES
   175   89   90 1    
   176   89  210 1    
   177   90   91 1    
   178   90   92 1    
   179   90  211 1    
   180   91  212 1    
   181   91  213 1    
   182   91  214 1    
   183   92   93 2    
   184   92   94 am   BACKBONE|DICT|INTERRES
   185   94   95 1    
   186   94  215 1    
   187   95   96 1    
   188   95   97 1    
   189   95  216 1    
   190   96  217 1    
   191   96  218 1    
   192   96  219 1    
   193   97   98 2    
   194   97   99 am   BACKBONE|DICT|INTERRES
   195   99  100 1    
   196   99  220 1    
   197  100  101 1    
   198  100  102 1    
   199  100  221 1    
   200  101  222 1    
   201  101  223 1    
   202  101  224 1    
   203  102  103 2    
   204  102  104 am   BACKBONE|DICT|INTERRES
   205  104  105 1    
   206  104  225 1    
   207  105  106 1    
   208  105  107 1    
   209  105  226 1    
   210  106  227 1    
   211  106  228 1    
   212  106  229 1    
   213  107  108 2    
   214  107  109 am   BACKBONE|DICT|INTERRES
   215  109  110 1    
   216  109  230 1    
   217  110  111 1    
   218  110  112 1    
   219  110  231 1    
   220  111  232 1    
   221  111  233 1    
   222  111  234 1    
   223  112  113 2    
   224  112  114 am   BACKBONE|DICT|INTERRES
   225  114  115 1    
   226  114  235 1    
   227  115  116 1    
   228  115  117 1    
   229  115  236 1    
   230  116  237 1    
   231  116  238 1    
   232  116  239 1    
   233  117  118 2    
   234  117  119 am   BACKBONE|DICT|INTERRES
   235  119  120 1    
   236  119  240 1    
   237  120  121 1    
   238  120  124 1    
   239  120  241 1    
   240  121  122 am   BACKBONE|DICT|INTERRES
   241  121  123 2    
   242  122  242 1    
   243  122  243 1    
   244  124  125 1    
   245  124  244 1    
   246  124  245 1    
   247  125  126 1    
   248  126  246 1    
   249  126  247 1    
@<TRIPOS>SUBSTRUCTURE
     1 UNK         1 GROUP             0       ****    0 ROOT    
