@<TRIPOS>MOLECULE
3R540
247   249    1
SMALL
USER_CHARGES


@<TRIPOS>ATOM
      1 CA         -4.5878  -16.0029  -51.5858 C.3       0 UNK        -0.1800 
      2 C          -4.4737  -15.2171  -50.2854 C.2       0 UNK         0.5000 
      3 O          -5.4090  -14.5076  -49.9169 O.2       0 UNK        -0.5000 
      4 N          -3.3215  -15.3243  -49.6106 N.am      1 UNK        -0.5000 
      5 CA         -3.0105  -14.6825  -48.3304 C.3       1 UNK         0.1400 
      6 C6         -1.4779  -14.5271  -48.0970 C.3       23 UNK        -0.0398 
      7 S7         -0.4809  -16.0177  -48.4827 S.3       23 UNK        -0.2404 
      8 C8          0.7966  -15.3218  -49.5771 C.3       23 UNK        -0.0205 
      9 C9          1.5137  -16.4006  -50.3761 C.ar      23 UNK        -0.0193 
     10 C10         1.1410  -16.6508  -51.7002 C.ar      23 UNK        -0.1150 
     11 C11         1.8090  -17.6124  -52.4645 C.ar      23 UNK        -0.0193 
     12 C12         2.8545  -18.3368  -51.8826 C.ar      23 UNK        -0.1150 
     13 C13         3.2408  -18.0964  -50.5599 C.ar      23 UNK        -0.0193 
     14 C14         2.5647  -17.1283  -49.8093 C.ar      23 UNK        -0.1150 
     15 C15         4.4122  -18.8640  -49.9641 C.3       23 UNK        -0.0205 
     16 S16         3.9799  -20.5872  -49.5688 S.3       23 UNK        -0.2404 
     17 C17         3.1857  -20.3889  -47.9412 C.3       23 UNK        -0.0398 
     18 CA          2.3899  -21.6468  -47.5097 C.3       11 UNK         0.1400 
     19 N           2.2698  -21.7382  -46.0529 N.am      11 UNK        -0.5000 
     20 C           1.8598  -22.8256  -45.3847 C.2       10 UNK         0.5000 
     21 O           1.6106  -23.9062  -45.9193 O.2       10 UNK        -0.5000 
     22 CA          1.6686  -22.6737  -43.8635 C.3       10 UNK         0.1400 
     23 CB          2.9947  -22.9001  -43.1222 C.3       10 UNK        -0.1800 
     24 N           1.1132  -21.3726  -43.4870 N.am      10 UNK        -0.5000 
     25 C          -0.1047  -20.9360  -43.8390 C.2       9 UNK         0.5000 
     26 O          -0.9149  -21.6077  -44.4794 O.2       9 UNK        -0.5000 
     27 CA         -0.4525  -19.4843  -43.4628 C.3       9 UNK         0.1400 
     28 CB         -0.8659  -19.3768  -41.9882 C.3       9 UNK        -0.1800 
     29 N           0.6401  -18.5499  -43.7407 N.am      9 UNK        -0.5000 
     30 C           1.1563  -18.3150  -44.9551 C.2       8 UNK         0.5000 
     31 O           0.7325  -18.8293  -45.9859 O.2       8 UNK        -0.5000 
     32 CA          2.3948  -17.4085  -45.0290 C.3       8 UNK         0.1400 
     33 CB          2.0004  -15.9249  -45.0238 C.3       8 UNK        -0.1800 
     34 N           3.3319  -17.6835  -43.9403 N.am      8 UNK        -0.5000 
     35 C           4.0556  -18.8073  -43.8363 C.2       7 UNK         0.5000 
     36 O           4.0401  -19.7086  -44.6740 O.2       7 UNK        -0.5000 
     37 CA          4.9058  -18.9677  -42.5628 C.3       7 UNK         0.1400 
     38 CB          6.2399  -18.2198  -42.7033 C.3       7 UNK        -0.1800 
     39 N           4.2100  -18.4995  -41.3634 N.am      7 UNK        -0.5000 
     40 C           3.1201  -19.0835  -40.8453 C.2       6 UNK         0.5000 
     41 O           2.6151  -20.1102  -41.2986 O.2       6 UNK        -0.5000 
     42 CA          2.4531  -18.3698  -39.6528 C.3       6 UNK         0.1400 
     43 CB          3.0922  -18.8181  -38.3302 C.3       6 UNK        -0.1800 
     44 N           2.4962  -16.9056  -39.7433 N.am      6 UNK        -0.5000 
     45 C           1.9565  -16.1893  -40.7386 C.2       5 UNK         0.5000 
     46 O           1.3937  -16.6967  -41.7104 O.2       5 UNK        -0.5000 
     47 CA          2.1354  -14.6606  -40.6640 C.3       5 UNK         0.1400 
     48 CB          3.5536  -14.2741  -41.1142 C.3       5 UNK        -0.1800 
     49 N           1.1738  -13.9411  -41.5023 N.am      5 UNK        -0.5000 
     50 C          -0.1508  -13.9095  -41.3075 C.2       4 UNK         0.5000 
     51 O          -0.7071  -14.4278  -40.3359 O.2       4 UNK        -0.5000 
     52 CA         -0.9996  -13.1640  -42.3549 C.3       4 UNK         0.1400 
     53 CB         -0.3212  -12.9944  -43.7322 C.3       4 UNK        -0.1800 
     54 N          -2.2662  -13.8668  -42.5182 N.am      4 UNK        -0.5000 
     55 C          -3.4327  -13.3175  -42.8634 C.2       3 UNK         0.5000 
     56 O          -3.5792  -12.1159  -43.0967 O.2       3 UNK        -0.5000 
     57 CA         -4.6184  -14.2938  -43.0032 C.3       3 UNK         0.1400 
     58 CB         -5.9571  -13.5749  -43.2481 C.3       3 UNK        -0.1800 
     59 N          -4.3912  -15.2391  -44.0953 N.am      3 UNK        -0.5000 
     60 C          -3.6152  -16.3270  -44.0538 C.2       2 UNK         0.5000 
     61 O          -3.0049  -16.6849  -43.0464 O.2       2 UNK        -0.5000 
     62 CA         -3.4768  -17.1428  -45.3538 C.3       2 UNK         0.1400 
     63 CB         -4.7345  -17.9916  -45.6140 C.3       2 UNK        -0.1800 
     64 N          -3.0845  -16.3605  -46.5351 N.am      2 UNK        -0.5000 
     65 C          -3.7478  -15.3805  -47.1653 C.2       1 UNK         0.5000 
     66 O          -4.8757  -15.0025  -46.8449 O.2       1 UNK        -0.5000 
     67 C           1.0116  -21.7079  -48.2027 C.2       11 UNK         0.5000 
     68 O           0.8651  -22.4096  -49.2024 O.2       11 UNK        -0.5000 
     69 N           0.0353  -20.9709  -47.6564 N.am      12 UNK        -0.5000 
     70 CA         -1.3075  -20.8167  -48.2067 C.3       12 UNK         0.1400 
     71 CB         -1.9842  -19.6105  -47.5436 C.3       12 UNK        -0.1800 
     72 C          -2.1936  -22.0614  -48.0712 C.2       12 UNK         0.5000 
     73 O          -2.9928  -22.3227  -48.9726 O.2       12 UNK        -0.5000 
     74 N          -2.0348  -22.7935  -46.9609 N.am      13 UNK        -0.5000 
     75 CA         -2.7704  -24.0071  -46.6005 C.3       13 UNK         0.1400 
     76 CB         -2.4541  -25.1429  -47.6008 C.3       13 UNK        -0.1800 
     77 C          -4.2866  -23.7625  -46.4127 C.2       13 UNK         0.5000 
     78 O          -4.7138  -22.6248  -46.1920 O.2       13 UNK        -0.5000 
     79 N          -5.0739  -24.8463  -46.4585 N.am      14 UNK        -0.5000 
     80 CA         -6.5275  -24.8483  -46.2905 C.3       14 UNK         0.1400 
     81 CB         -7.0370  -26.2970  -46.3264 C.3       14 UNK        -0.1800 
     82 C          -7.2365  -23.9985  -47.3599 C.2       14 UNK         0.5000 
     83 O          -6.9423  -24.1441  -48.5485 O.2       14 UNK        -0.5000 
     84 N          -8.1330  -23.1092  -46.9078 N.am      15 UNK        -0.5000 
     85 CA         -8.9378  -22.1693  -47.7041 C.3       15 UNK         0.1400 
     86 CB         -9.9706  -22.9417  -48.5516 C.3       15 UNK        -0.1800 
     87 C          -8.1124  -21.1793  -48.5600 C.2       15 UNK         0.5000 
     88 O          -8.6566  -20.5834  -49.4907 O.2       15 UNK        -0.5000 
     89 N          -6.8150  -21.0386  -48.2443 N.am      16 UNK        -0.5000 
     90 CA         -5.7878  -20.3119  -48.9957 C.3       16 UNK         0.1400 
     91 CB         -6.0748  -18.7955  -49.0011 C.3       16 UNK        -0.1800 
     92 C          -5.5539  -20.8718  -50.4180 C.2       16 UNK         0.5000 
     93 O          -5.0828  -20.1392  -51.2894 O.2       16 UNK        -0.5000 
     94 N          -5.8818  -22.1540  -50.6406 N.am      17 UNK        -0.5000 
     95 CA         -5.8734  -22.8029  -51.9525 C.3       17 UNK         0.1400 
     96 CB         -6.4795  -24.2079  -51.8282 C.3       17 UNK        -0.1800 
     97 C          -4.4858  -22.8698  -52.6127 C.2       17 UNK         0.5000 
     98 O          -4.3847  -22.6904  -53.8273 O.2       17 UNK        -0.5000 
     99 N          -3.4355  -23.0902  -51.8113 N.am      18 UNK        -0.5000 
    100 CA        -2.0577  -23.1173  -52.2988 C.3       18 UNK         0.1400 
    101 CB        -1.1778  -23.9448  -51.3533 C.3       18 UNK        -0.1800 
    102 C         -1.4950  -21.7032  -52.5295 C.2       18 UNK         0.5000 
    103 O         -0.6382  -21.5431  -53.3982 O.2       18 UNK        -0.5000 
    104 N         -2.0198  -20.6954  -51.8137 N.am      19 UNK        -0.5000 
    105 CA        -1.7029  -19.2848  -52.0541 C.3       19 UNK         0.1400 
    106 CB        -2.0450  -18.4135  -50.8396 C.3       19 UNK        -0.1800 
    107 C         -2.3818  -18.7421  -53.3233 C.2       19 UNK         0.5000 
    108 O         -1.8077  -17.8931  -54.0028 O.2       19 UNK        -0.5000 
    109 N         -3.5816  -19.2484  -53.6344 N.am      20 UNK        -0.5000 
    110 CA        -4.2889  -18.9617  -54.8810 C.3       20 UNK         0.1400 
    111 CB        -5.7373  -19.4613  -54.7723 C.3       20 UNK        -0.1800 
    112 C         -3.5793  -19.5716  -56.1069 C.2       20 UNK         0.5000 
    113 O         -3.5355  -18.9345  -57.1599 O.2       20 UNK        -0.5000 
    114 N         -3.0319  -20.7848  -55.9454 N.am      21 UNK        -0.5000 
    115 CA        -2.2912  -21.5047  -56.9802 C.3       21 UNK         0.1400 
    116 CB        -2.2602  -23.0020  -56.6323 C.3       21 UNK        -0.1800 
    117 C         -0.8658  -20.9554  -57.1836 C.2       21 UNK         0.5000 
    118 O         -0.5034  -20.6034  -58.3065 O.2       21 UNK        -0.5000 
    119 N         -0.0816  -20.9118  -56.0982 N.am      22 UNK        -0.5000 
    120 CA         1.3448  -20.5397  -56.0577 C.3       22 UNK         0.1400 
    121 C          2.3129  -21.5059  -56.8100 C.2       22 UNK         0.5000 
    122 N          1.9088  -22.7309  -57.1243 N.am      22 UNK        -0.7600 
    123 O          3.4572  -21.1593  -57.0903 O.2       22 UNK        -0.5000 
    124 C124        1.5907  -19.0319  -56.3765 C.3       23 UNK        -0.0398 
    125 S125        2.6352  -18.2291  -55.1082 S.3       23 UNK        -0.2404 
    126 C126        1.3300  -17.8986  -53.8843 C.3       23 UNK        -0.0205 
    127 H127       -5.3526  -15.5682  -52.2296 H         1 UNK         0.0600 
    128 H128       -4.8631  -17.0387  -51.3872 H         1 UNK         0.0600 
    129 H129       -3.6474  -15.9920  -52.1368 H         1 UNK         0.0600 
    130 H130       -2.5925  -15.9259  -49.9647 H         1 UNK         0.3000 
    131 H131       -3.4162  -13.6689  -48.3676 H         1 UNK         0.0600 
    132 H132       -1.2663  -14.2183  -47.0713 H         1 UNK         0.0800 
    133 H133       -1.1228  -13.7008  -48.7135 H         1 UNK         0.0800 
    134 H134        1.5165  -14.7623  -48.9780 H         1 UNK         0.0800 
    135 H135        0.3434  -14.6038  -50.2623 H         1 UNK         0.0800 
    136 H136        0.3211  -16.0974  -52.1365 H         1 UNK         0.1150 
    137 H137        3.3689  -19.0950  -52.4560 H         1 UNK         0.1150 
    138 H138        2.8585  -16.9335  -48.7875 H         1 UNK         0.1150 
    139 H139        5.2335  -18.8677  -50.6823 H         1 UNK         0.0800 
    140 H140        4.7941  -18.3650  -49.0720 H         1 UNK         0.0800 
    141 H141        2.5573  -19.4963  -47.9361 H         1 UNK         0.0800 
    142 H142        3.9903  -20.1941  -47.2321 H         1 UNK         0.0800 
    143 H143        2.9524  -22.5282  -47.8261 H         1 UNK         0.0600 
    144 H144        2.5081  -20.9066  -45.5252 H         1 UNK         0.3000 
    145 H145        0.9633  -23.4422  -43.5406 H         1 UNK         0.0600 
    146 H146        2.8509  -22.8754  -42.0418 H         1 UNK         0.0600 
    147 H147        3.4212  -23.8725  -43.3716 H         1 UNK         0.0600 
    148 H148        3.7341  -22.1408  -43.3778 H         1 UNK         0.0600 
    149 H149        1.7000  -20.7771  -42.9099 H         1 UNK         0.3000 
    150 H150       -1.3048  -19.1873  -44.0719 H         1 UNK         0.0600 
    151 H151       -1.7326  -20.0054  -41.7810 H         1 UNK         0.0600 
    152 H152       -1.1361  -18.3529  -41.7284 H         1 UNK         0.0600 
    153 H153       -0.0653  -19.6910  -41.3195 H         1 UNK         0.0600 
    154 H154        1.0141  -18.0324  -42.9486 H         1 UNK         0.3000 
    155 H155        2.9005  -17.6165  -45.9746 H         1 UNK         0.0600 
    156 H156        1.5112  -15.6422  -44.0930 H         1 UNK         0.0600 
    157 H157        1.3104  -15.7023  -45.8390 H         1 UNK         0.0600 
    158 H158        2.8728  -15.2843  -45.1521 H         1 UNK         0.0600 
    159 H159        3.3451  -17.0246  -43.1766 H         1 UNK         0.3000 
    160 H160        5.1214  -20.0311  -42.4383 H         1 UNK         0.0600 
    161 H161        6.0921  -17.1439  -42.8045 H         1 UNK         0.0600 
    162 H162        6.7867  -18.5606  -43.5836 H         1 UNK         0.0600 
    163 H163        6.8805  -18.3910  -41.8380 H         1 UNK         0.0600 
    164 H164        4.5605  -17.6600  -40.9269 H         1 UNK         0.3000 
    165 H165        1.4027  -18.6669  -39.6394 H         1 UNK         0.0600 
    166 H166        2.5665  -18.3948  -37.4742 H         1 UNK         0.0600 
    167 H167        3.0558  -19.9036  -38.2274 H         1 UNK         0.0600 
    168 H168        4.1386  -18.5171  -38.2652 H         1 UNK         0.0600 
    169 H169        2.9561  -16.4225  -38.9849 H         1 UNK         0.3000 
    170 H170        1.9912  -14.3453  -39.6286 H         1 UNK         0.0600 
    171 H171        4.3112  -14.7543  -40.4935 H         1 UNK         0.0600 
    172 H172        3.7421  -14.5672  -42.1480 H         1 UNK         0.0600 
    173 H173        3.7117  -13.1982  -41.0374 H         1 UNK         0.0600 
    174 H174        1.5451  -13.5069  -42.3336 H         1 UNK         0.3000 
    175 H175       -1.1930  -12.1730  -41.9393 H         1 UNK         0.0600 
    176 H176       -0.1102  -13.9579  -44.1952 H         1 UNK         0.0600 
    177 H177       -0.9622  -12.4385  -44.4166 H         1 UNK         0.0600 
    178 H178        0.6137  -12.4381  -43.6593 H         1 UNK         0.0600 
    179 H179       -2.2408  -14.8650  -42.3333 H         1 UNK         0.3000 
    180 H180       -4.7028  -14.8463  -42.0650 H         1 UNK         0.0600 
    181 H181       -6.7835  -14.2850  -43.2847 H         1 UNK         0.0600 
    182 H182       -5.9512  -13.0208  -44.1877 H         1 UNK         0.0600 
    183 H183       -6.1737  -12.8665  -42.4475 H         1 UNK         0.0600 
    184 H184       -4.8054  -15.0059  -44.9948 H         1 UNK         0.3000 
    185 H185       -2.6520  -17.8330  -45.1902 H         1 UNK         0.0600 
    186 H186       -4.9786  -18.6017  -44.7435 H         1 UNK         0.0600 
    187 H187       -5.6072  -17.3767  -45.8345 H         1 UNK         0.0600 
    188 H188       -4.5830  -18.6736  -46.4484 H         1 UNK         0.0600 
    189 H189       -2.1566  -16.5658  -46.8840 H         1 UNK         0.3000 
    190 H190        0.2659  -20.3680  -46.8697 H         1 UNK         0.3000 
    191 H191       -1.1919  -20.6212  -49.2702 H         1 UNK         0.0600 
    192 H192       -2.9277  -19.3719  -48.0306 H         1 UNK         0.0600 
    193 H193       -1.3597  -18.7214  -47.6086 H         1 UNK         0.0600 
    194 H194       -2.1882  -19.8005  -46.4895 H         1 UNK         0.0600 
    195 H195       -1.4183  -22.4298  -46.2405 H         1 UNK         0.3000 
    196 H196       -2.3857  -24.3045  -45.6242 H         1 UNK         0.0600 
    197 H197       -2.9390  -24.9828  -48.5647 H         1 UNK         0.0600 
    198 H198       -1.3811  -25.2192  -47.7793 H         1 UNK         0.0600 
    199 H199       -2.7811  -26.1116  -47.2227 H         1 UNK         0.0600 
    200 H200       -4.6511  -25.7378  -46.6693 H         1 UNK         0.3000 
    201 H201       -6.7451  -24.4328  -45.3044 H         1 UNK         0.0600 
    202 H202       -6.8166  -26.7770  -47.2809 H         1 UNK         0.0600 
    203 H203       -8.1177  -26.3342  -46.1827 H         1 UNK         0.0600 
    204 H204       -6.5842  -26.8958  -45.5359 H         1 UNK         0.0600 
    205 H205       -8.2788  -23.0515  -45.9091 H         1 UNK         0.3000 
    206 H206       -9.4886  -21.5578  -46.9880 H         1 UNK         0.0600 
    207 H207      -10.5528  -23.6274  -47.9360 H         1 UNK         0.0600 
    208 H208      -10.6760  -22.2612  -49.0298 H         1 UNK         0.0600 
    209 H209       -9.4921  -23.5228  -49.3406 H         1 UNK         0.0600 
    210 H210       -6.4639  -21.5849  -47.4674 H         1 UNK         0.3000 
    211 H211       -4.8641  -20.4753  -48.4441 H         1 UNK         0.0600 
    212 H212       -5.1835  -18.2330  -49.2780 H         1 UNK         0.0600 
    213 H213       -6.3885  -18.4421  -48.0199 H         1 UNK         0.0600 
    214 H214       -6.8604  -18.5356  -49.7114 H         1 UNK         0.0600 
    215 H215       -6.2326  -22.7099  -49.8672 H         1 UNK         0.3000 
    216 H216       -6.5170  -22.2145  -52.6096 H         1 UNK         0.0600 
    217 H217       -5.8985  -24.8366  -51.1520 H         1 UNK         0.0600 
    218 H218       -6.5135  -24.7080  -52.7970 H         1 UNK         0.0600 
    219 H219       -7.5004  -24.1641  -51.4481 H         1 UNK         0.0600 
    220 H220       -3.5706  -23.1422  -50.8068 H         1 UNK         0.3000 
    221 H221       -2.0428  -23.6257  -53.2651 H         1 UNK         0.0600 
    222 H222       -1.5221  -24.9775  -51.2994 H         1 UNK         0.0600 
    223 H223       -1.1761  -23.5445  -50.3429 H         1 UNK         0.0600 
    224 H224       -0.1431  -23.9628  -51.6977 H         1 UNK         0.0600 
    225 H225       -2.7634  -20.9010  -51.1607 H         1 UNK         0.3000 
    226 H226       -0.6262  -19.2082  -52.1910 H         1 UNK         0.0600 
    227 H227       -3.0439  -18.6102  -50.4531 H         1 UNK         0.0600 
    228 H228       -1.3216  -18.5596  -50.0415 H         1 UNK         0.0600 
    229 H229       -1.9849  -17.3575  -51.0990 H         1 UNK         0.0600 
    230 H230       -4.0428  -19.8598  -52.9684 H         1 UNK         0.3000 
    231 H231       -4.3151  -17.8780  -55.0142 H         1 UNK         0.0600 
    232 H232       -5.7844  -20.5425  -54.6427 H         1 UNK         0.0600 
    233 H233       -6.3030  -19.2138  -55.6713 H         1 UNK         0.0600 
    234 H234       -6.2497  -19.0015  -53.9268 H         1 UNK         0.0600 
    235 H235       -3.1663  -21.2604  -55.0622 H         1 UNK         0.3000 
    236 H236       -2.8274  -21.3965  -57.9255 H         1 UNK         0.0600 
    237 H237       -3.2693  -23.4091  -56.5627 H         1 UNK         0.0600 
    238 H238       -1.7329  -23.5708  -57.3991 H         1 UNK         0.0600 
    239 H239       -1.7616  -23.1890  -55.6811 H         1 UNK         0.0600 
    240 H240       -0.4592  -21.2105  -55.2017 H         1 UNK         0.3000 
    241 H241        1.6029  -20.7087  -55.0119 H         1 UNK         0.0600 
    242 H242        2.5415  -23.3539  -57.6017 H         1 UNK         0.3800 
    243 H243        0.9817  -23.0433  -56.8865 H         1 UNK         0.3800 
    244 H244        0.6471  -18.4861  -56.4285 H         1 UNK         0.0800 
    245 H245        2.0489  -18.8949  -57.3574 H         1 UNK         0.0800 
    246 H246        0.7189  -17.0741  -54.2545 H         1 UNK         0.0800 
    247 H247        0.6872  -18.7748  -53.8484 H         1 UNK         0.0800 
@<TRIPOS>BOND
     1    1    2 1    
     2    1  127 1    
     3    1  128 1    
     4    1  129 1    
     5    2    3 2    
     6    2    4 am   BACKBONE|DICT|INTERRES
     7    4    5 1    
     8    4  130 1    
     9    5    6 1    
    10    5   65 1    
    11    5  131 1    
    12    6    7 1    
    13    6  132 1    
    14    6  133 1    
    15    7    8 1    
    16    8    9 1    
    17    8  134 1    
    18    8  135 1    
    19    9   10 ar   
    20    9   14 ar   
    21   10   11 ar   
    22   10  136 1    
    23   11   12 ar   
    24   11  126 1    
    25   12   13 ar   
    26   12  137 1    
    27   13   14 ar   
    28   13   15 1    
    29   14  138 1    
    30   15   16 1    
    31   15  139 1    
    32   15  140 1    
    33   16   17 1    
    34   17   18 1    
    35   17  141 1    
    36   17  142 1    
    37   18   19 1    
    38   18   67 1    
    39   18  143 1    
    40   19   20 am   BACKBONE|DICT|INTERRES
    41   19  144 1    
    42   20   21 2    
    43   20   22 1    
    44   22   23 1    
    45   22   24 1    
    46   22  145 1    
    47   23  146 1    
    48   23  147 1    
    49   23  148 1    
    50   24   25 am   BACKBONE|DICT|INTERRES
    51   24  149 1    
    52   25   26 2    
    53   25   27 1    
    54   27   28 1    
    55   27   29 1    
    56   27  150 1    
    57   28  151 1    
    58   28  152 1    
    59   28  153 1    
    60   29   30 am   BACKBONE|DICT|INTERRES
    61   29  154 1    
    62   30   31 2    
    63   30   32 1    
    64   32   33 1    
    65   32   34 1    
    66   32  155 1    
    67   33  156 1    
    68   33  157 1    
    69   33  158 1    
    70   34   35 am   BACKBONE|DICT|INTERRES
    71   34  159 1    
    72   35   36 2    
    73   35   37 1    
    74   37   38 1    
    75   37   39 1    
    76   37  160 1    
    77   38  161 1    
    78   38  162 1    
    79   38  163 1    
    80   39   40 am   BACKBONE|DICT|INTERRES
    81   39  164 1    
    82   40   41 2    
    83   40   42 1    
    84   42   43 1    
    85   42   44 1    
    86   42  165 1    
    87   43  166 1    
    88   43  167 1    
    89   43  168 1    
    90   44   45 am   BACKBONE|DICT|INTERRES
    91   44  169 1    
    92   45   46 2    
    93   45   47 1    
    94   47   48 1    
    95   47   49 1    
    96   47  170 1    
    97   48  171 1    
    98   48  172 1    
    99   48  173 1    
   100   49   50 am   BACKBONE|DICT|INTERRES
   101   49  174 1    
   102   50   51 2    
   103   50   52 1    
   104   52   53 1    
   105   52   54 1    
   106   52  175 1    
   107   53  176 1    
   108   53  177 1    
   109   53  178 1    
   110   54   55 am   BACKBONE|DICT|INTERRES
   111   54  179 1    
   112   55   56 2    
   113   55   57 1    
   114   57   58 1    
   115   57   59 1    
   116   57  180 1    
   117   58  181 1    
   118   58  182 1    
   119   58  183 1    
   120   59   60 am   BACKBONE|DICT|INTERRES
   121   59  184 1    
   122   60   61 2    
   123   60   62 1    
   124   62   63 1    
   125   62   64 1    
   126   62  185 1    
   127   63  186 1    
   128   63  187 1    
   129   63  188 1    
   130   64   65 am   BACKBONE|DICT|INTERRES
   131   64  189 1    
   132   65   66 2    
   133   67   68 2    
   134   67   69 am   BACKBONE|DICT|INTERRES
   135   69   70 1    
   136   69  190 1    
   137   70   71 1    
   138   70   72 1    
   139   70  191 1    
   140   71  192 1    
   141   71  193 1    
   142   71  194 1    
   143   72   73 2    
   144   72   74 am   BACKBONE|DICT|INTERRES
   145   74   75 1    
   146   74  195 1    
   147   75   76 1    
   148   75   77 1    
   149   75  196 1    
   150   76  197 1    
   151   76  198 1    
   152   76  199 1    
   153   77   78 2    
   154   77   79 am   BACKBONE|DICT|INTERRES
   155   79   80 1    
   156   79  200 1    
   157   80   81 1    
   158   80   82 1    
   159   80  201 1    
   160   81  202 1    
   161   81  203 1    
   162   81  204 1    
   163   82   83 2    
   164   82   84 am   BACKBONE|DICT|INTERRES
   165   84   85 1    
   166   84  205 1    
   167   85   86 1    
   168   85   87 1    
   169   85  206 1    
   170   86  207 1    
   171   86  208 1    
   172   86  209 1    
   173   87   88 2    
   174   87   89 am   BACKBONE|DICT|INTERRES
   175   89   90 1    
   176   89  210 1    
   177   90   91 1    
   178   90   92 1    
   179   90  211 1    
   180   91  212 1    
   181   91  213 1    
   182   91  214 1    
   183   92   93 2    
   184   92   94 am   BACKBONE|DICT|INTERRES
   185   94   95 1    
   186   94  215 1    
   187   95   96 1    
   188   95   97 1    
   189   95  216 1    
   190   96  217 1    
   191   96  218 1    
   192   96  219 1    
   193   97   98 2    
   194   97   99 am   BACKBONE|DICT|INTERRES
   195   99  100 1    
   196   99  220 1    
   197  100  101 1    
   198  100  102 1    
   199  100  221 1    
   200  101  222 1    
   201  101  223 1    
   202  101  224 1    
   203  102  103 2    
   204  102  104 am   BACKBONE|DICT|INTERRES
   205  104  105 1    
   206  104  225 1    
   207  105  106 1    
   208  105  107 1    
   209  105  226 1    
   210  106  227 1    
   211  106  228 1    
   212  106  229 1    
   213  107  108 2    
   214  107  109 am   BACKBONE|DICT|INTERRES
   215  109  110 1    
   216  109  230 1    
   217  110  111 1    
   218  110  112 1    
   219  110  231 1    
   220  111  232 1    
   221  111  233 1    
   222  111  234 1    
   223  112  113 2    
   224  112  114 am   BACKBONE|DICT|INTERRES
   225  114  115 1    
   226  114  235 1    
   227  115  116 1    
   228  115  117 1    
   229  115  236 1    
   230  116  237 1    
   231  116  238 1    
   232  116  239 1    
   233  117  118 2    
   234  117  119 am   BACKBONE|DICT|INTERRES
   235  119  120 1    
   236  119  240 1    
   237  120  121 1    
   238  120  124 1    
   239  120  241 1    
   240  121  122 am   BACKBONE|DICT|INTERRES
   241  121  123 2    
   242  122  242 1    
   243  122  243 1    
   244  124  125 1    
   245  124  244 1    
   246  124  245 1    
   247  125  126 1    
   248  126  246 1    
   249  126  247 1    
@<TRIPOS>SUBSTRUCTURE
     1 UNK         1 GROUP             0       ****    0 ROOT    
