@<TRIPOS>MOLECULE
3R540
247   249    1
SMALL
USER_CHARGES


@<TRIPOS>ATOM
      1 CA          0.0939  -14.5641  -54.2127 C.3       0 UNK        -0.1800 
      2 C           0.9550  -13.6389  -53.3641 C.2       0 UNK         0.5000 
      3 O           1.3354  -12.5624  -53.8270 O.2       0 UNK        -0.5000 
      4 N           1.2759  -14.0580  -52.1349 N.am      1 UNK        -0.5000 
      5 CA          2.0428  -13.2717  -51.1634 C.3       1 UNK         0.1400 
      6 C6          2.8437  -14.1751  -50.1880 C.3       23 UNK        -0.0398 
      7 S7          1.8180  -15.1549  -49.0389 S.3       23 UNK        -0.2404 
      8 C8          3.0865  -15.9288  -47.9732 C.3       23 UNK        -0.0205 
      9 C9          3.7191  -17.2183  -48.5049 C.ar      23 UNK        -0.0193 
     10 C10         3.4942  -17.6986  -49.8016 C.ar      23 UNK        -0.1150 
     11 C11         4.0499  -18.9065  -50.2313 C.ar      23 UNK        -0.0193 
     12 C12         4.8756  -19.6244  -49.3648 C.ar      23 UNK        -0.1150 
     13 C13         5.1336  -19.1514  -48.0755 C.ar      23 UNK        -0.0193 
     14 C14         4.5483  -17.9542  -47.6513 C.ar      23 UNK        -0.1150 
     15 C15         6.0472  -19.9380  -47.1458 C.3       23 UNK        -0.0205 
     16 S16         5.1180  -20.9257  -45.9314 S.3       23 UNK        -0.2404 
     17 C17         4.0645  -21.9397  -47.0214 C.3       23 UNK        -0.0398 
     18 CA          3.4340  -23.1482  -46.2918 C.3       11 UNK         0.1400 
     19 N           2.5428  -22.7396  -45.2051 N.am      11 UNK        -0.5000 
     20 C           2.1788  -23.5270  -44.1849 C.2       10 UNK         0.5000 
     21 O           2.5335  -24.7002  -44.0637 O.2       10 UNK        -0.5000 
     22 CA          1.2757  -22.8959  -43.1104 C.3       10 UNK         0.1400 
     23 CB          2.1138  -22.1189  -42.0837 C.3       10 UNK        -0.1800 
     24 N           0.2726  -22.0108  -43.6980 N.am      10 UNK        -0.5000 
     25 C          -0.8373  -22.4453  -44.3090 C.2       9 UNK         0.5000 
     26 O          -1.1900  -23.6247  -44.3189 O.2       9 UNK        -0.5000 
     27 CA         -1.7089  -21.4011  -45.0305 C.3       9 UNK         0.1400 
     28 CB         -2.8885  -20.9700  -44.1461 C.3       9 UNK        -0.1800 
     29 N          -0.9850  -20.2130  -45.4804 N.am      9 UNK        -0.5000 
     30 C          -0.0278  -20.2092  -46.4191 C.2       8 UNK         0.5000 
     31 O           0.3852  -21.2189  -46.9868 O.2       8 UNK        -0.5000 
     32 CA          0.5971  -18.8454  -46.7533 C.3       8 UNK         0.1400 
     33 CB         -0.3599  -18.0296  -47.6342 C.3       8 UNK        -0.1800 
     34 N           0.9366  -18.0858  -45.5496 N.am      8 UNK        -0.5000 
     35 C           1.7812  -18.5201  -44.6022 C.2       7 UNK         0.5000 
     36 O           2.3797  -19.5937  -44.6545 O.2       7 UNK        -0.5000 
     37 CA          1.9216  -17.6415  -43.3506 C.3       7 UNK         0.1400 
     38 CB          2.7074  -16.3609  -43.6588 C.3       7 UNK        -0.1800 
     39 N           0.6153  -17.3176  -42.7722 N.am      7 UNK        -0.5000 
     40 C          -0.1712  -18.2291  -42.1810 C.2       6 UNK         0.5000 
     41 O           0.1323  -19.4152  -42.0603 O.2       6 UNK        -0.5000 
     42 CA         -1.5269  -17.7546  -41.6301 C.3       6 UNK         0.1400 
     43 CB         -1.3678  -17.2398  -40.1914 C.3       6 UNK        -0.1800 
     44 N          -2.2133  -16.7369  -42.4280 N.am      6 UNK        -0.5000 
     45 C          -2.5743  -16.8495  -43.7141 C.2       5 UNK         0.5000 
     46 O          -2.2116  -17.7724  -44.4448 O.2       5 UNK        -0.5000 
     47 CA         -3.5304  -15.7701  -44.2647 C.3       5 UNK         0.1400 
     48 CB         -4.0507  -14.7813  -43.2006 C.3       5 UNK        -0.1800 
     49 N          -2.8837  -15.0084  -45.3249 N.am      5 UNK        -0.5000 
     50 C          -2.8854  -15.3281  -46.6236 C.2       4 UNK         0.5000 
     51 O          -3.5013  -16.2839  -47.0975 O.2       4 UNK        -0.5000 
     52 CA         -2.1014  -14.4010  -47.5734 C.3       4 UNK         0.1400 
     53 CB         -3.0842  -13.5609  -48.4042 C.3       4 UNK        -0.1800 
     54 N          -1.1573  -13.4811  -46.9354 N.am      4 UNK        -0.5000 
     55 C          -0.0737  -13.7993  -46.2169 C.2       3 UNK         0.5000 
     56 O           0.2024  -14.9464  -45.8598 O.2       3 UNK        -0.5000 
     57 CA          0.8539  -12.6152  -45.8682 C.3       3 UNK         0.1400 
     58 CB          2.1371  -13.0447  -45.1393 C.3       3 UNK        -0.1800 
     59 N           1.2295  -11.8700  -47.0722 N.am      3 UNK        -0.5000 
     60 C           0.5174  -10.8835  -47.6341 C.2       2 UNK         0.5000 
     61 O          -0.5538  -10.4781  -47.1818 O.2       2 UNK        -0.5000 
     62 CA          1.0751  -10.2788  -48.9376 C.3       2 UNK         0.1400 
     63 CB          2.0395   -9.1242  -48.6266 C.3       2 UNK        -0.1800 
     64 N           1.7594  -11.2690  -49.7742 N.am      2 UNK        -0.5000 
     65 C           1.1350  -12.2609  -50.4253 C.2       1 UNK         0.5000 
     66 O          -0.0913  -12.3996  -50.4315 O.2       1 UNK        -0.5000 
     67 C           2.7294  -24.0704  -47.3061 C.2       11 UNK         0.5000 
     68 O           3.2762  -25.1214  -47.6456 O.2       11 UNK        -0.5000 
     69 N           1.5574  -23.6506  -47.7974 N.am      12 UNK        -0.5000 
     70 CA          0.8287  -24.3079  -48.8789 C.3       12 UNK         0.1400 
     71 CB          0.3808  -23.2419  -49.8884 C.3       12 UNK        -0.1800 
     72 C          -0.3682  -25.1069  -48.3411 C.2       12 UNK         0.5000 
     73 O          -1.0711  -24.6467  -47.4379 O.2       12 UNK        -0.5000 
     74 N          -0.5795  -26.2899  -48.9317 N.am      13 UNK        -0.5000 
     75 CA         -1.5996  -27.2721  -48.5619 C.3       13 UNK         0.1400 
     76 CB         -1.4051  -28.5266  -49.4282 C.3       13 UNK        -0.1800 
     77 C          -3.0455  -26.7573  -48.6902 C.2       13 UNK         0.5000 
     78 O          -3.3191  -25.8527  -49.4843 O.2       13 UNK        -0.5000 
     79 N          -3.9434  -27.3703  -47.9038 N.am      14 UNK        -0.5000 
     80 CA         -5.3810  -27.0822  -47.8107 C.3       14 UNK         0.1400 
     81 CB         -6.1029  -27.5052  -49.1073 C.3       14 UNK        -0.1800 
     82 C          -5.6682  -25.6209  -47.4080 C.2       14 UNK         0.5000 
     83 O          -6.5819  -24.9978  -47.9506 O.2       14 UNK        -0.5000 
     84 N          -4.8419  -25.0954  -46.4892 N.am      15 UNK        -0.5000 
     85 CA         -4.7989  -23.7022  -46.0347 C.3       15 UNK         0.1400 
     86 CB         -6.0422  -23.3643  -45.1862 C.3       15 UNK        -0.1800 
     87 C          -4.5890  -22.7286  -47.2116 C.2       15 UNK         0.5000 
     88 O          -5.3758  -21.7994  -47.3949 O.2       15 UNK        -0.5000 
     89 N          -3.5524  -23.0058  -48.0158 N.am      16 UNK        -0.5000 
     90 CA         -3.2123  -22.3370  -49.2733 C.3       16 UNK         0.1400 
     91 CB         -2.7195  -20.8985  -49.0182 C.3       16 UNK        -0.1800 
     92 C          -4.3568  -22.3959  -50.2979 C.2       16 UNK         0.5000 
     93 O          -4.7517  -21.3584  -50.8283 O.2       16 UNK        -0.5000 
     94 N          -4.8823  -23.6081  -50.5270 N.am      17 UNK        -0.5000 
     95 CA         -6.0110  -23.9200  -51.4116 C.3       17 UNK         0.1400 
     96 CB         -5.5814  -23.7894  -52.8874 C.3       17 UNK        -0.1800 
     97 C          -7.2753  -23.0986  -51.0741 C.2       17 UNK         0.5000 
     98 O          -7.8642  -22.4731  -51.9576 O.2       17 UNK        -0.5000 
     99 N          -7.6435  -23.1073  -49.7850 N.am      18 UNK        -0.5000 
    100 CA        -8.7259  -22.3412  -49.1634 C.3       18 UNK         0.1400 
    101 CB       -10.1029  -22.8100  -49.6794 C.3       18 UNK        -0.1800 
    102 C         -8.5099  -20.8174  -49.2823 C.2       18 UNK         0.5000 
    103 O         -9.3856  -20.0993  -49.7693 O.2       18 UNK        -0.5000 
    104 N         -7.3396  -20.3630  -48.8125 N.am      19 UNK        -0.5000 
    105 CA        -6.8878  -18.9728  -48.7265 C.3       19 UNK         0.1400 
    106 CB        -7.7337  -18.1872  -47.7026 C.3       19 UNK        -0.1800 
    107 C         -6.7831  -18.2721  -50.0968 C.2       19 UNK         0.5000 
    108 O         -7.2438  -17.1403  -50.2552 O.2       19 UNK        -0.5000 
    109 N         -6.1327  -18.9410  -51.0575 N.am      20 UNK        -0.5000 
    110 CA        -5.8093  -18.4168  -52.3881 C.3       20 UNK         0.1400 
    111 CB        -5.7932  -19.5806  -53.3944 C.3       20 UNK        -0.1800 
    112 C         -4.4769  -17.6330  -52.4090 C.2       20 UNK         0.5000 
    113 O         -3.9147  -17.4169  -53.4841 O.2       20 UNK        -0.5000 
    114 N         -3.9741  -17.2424  -51.2267 N.am      21 UNK        -0.5000 
    115 CA        -2.7850  -16.4161  -50.9784 C.3       21 UNK         0.1400 
    116 CB        -2.9784  -15.0051  -51.5741 C.3       21 UNK        -0.1800 
    117 C         -1.4542  -17.0447  -51.4382 C.2       21 UNK         0.5000 
    118 O         -0.4643  -16.3245  -51.5647 O.2       21 UNK        -0.5000 
    119 N         -1.4487  -18.3632  -51.6826 N.am      22 UNK        -0.5000 
    120 CA        -0.3557  -19.1070  -52.3344 C.3       22 UNK         0.1400 
    121 C         -0.2860  -18.8810  -53.8801 C.2       22 UNK         0.5000 
    122 N         -1.2993  -18.3047  -54.5189 N.am      22 UNK        -0.7600 
    123 O          0.6886  -19.2537  -54.5266 O.2       22 UNK        -0.5000 
    124 C124        1.0090  -18.8958  -51.6183 C.3       23 UNK        -0.0398 
    125 S125        2.1617  -20.3050  -51.7151 S.3       23 UNK        -0.2404 
    126 C126        3.7619  -19.4348  -51.6309 C.3       23 UNK        -0.0205 
    127 H127        0.2698  -14.3870  -55.2738 H         1 UNK         0.0600 
    128 H128       -0.9618  -14.3907  -54.0066 H         1 UNK         0.0600 
    129 H129        0.3191  -15.6108  -54.0080 H         1 UNK         0.0600 
    130 H130        0.8432  -14.9075  -51.7788 H         1 UNK         0.3000 
    131 H131        2.7787  -12.6846  -51.7172 H         1 UNK         0.0600 
    132 H132        3.4761  -14.8554  -50.7592 H         1 UNK         0.0800 
    133 H133        3.5310  -13.5669  -49.5985 H         1 UNK         0.0800 
    134 H134        3.8723  -15.2041  -47.7575 H         1 UNK         0.0800 
    135 H135        2.6085  -16.1534  -47.0188 H         1 UNK         0.0800 
    136 H136        2.8708  -17.1459  -50.4849 H         1 UNK         0.1150 
    137 H137        5.3154  -20.5554  -49.6938 H         1 UNK         0.1150 
    138 H138        4.7347  -17.5993  -46.6472 H         1 UNK         0.1150 
    139 H139        6.7011  -20.5972  -47.7188 H         1 UNK         0.0800 
    140 H140        6.7034  -19.2492  -46.6121 H         1 UNK         0.0800 
    141 H141        4.6769  -22.2806  -47.8583 H         1 UNK         0.0800 
    142 H142        3.2871  -21.2995  -47.4438 H         1 UNK         0.0800 
    143 H143        4.2513  -23.7245  -45.8522 H         1 UNK         0.0600 
    144 H144        2.2338  -21.7747  -45.2152 H         1 UNK         0.3000 
    145 H145        0.7670  -23.7050  -42.5818 H         1 UNK         0.0600 
    146 H146        1.4891  -21.7322  -41.2784 H         1 UNK         0.0600 
    147 H147        2.8690  -22.7614  -41.6294 H         1 UNK         0.0600 
    148 H148        2.6319  -21.2745  -42.5394 H         1 UNK         0.0600 
    149 H149        0.4705  -21.0179  -43.6804 H         1 UNK         0.3000 
    150 H150       -2.1059  -21.8883  -45.9205 H         1 UNK         0.0600 
    151 H151       -3.4501  -21.8316  -43.7842 H         1 UNK         0.0600 
    152 H152       -3.5832  -20.3366  -44.6985 H         1 UNK         0.0600 
    153 H153       -2.5473  -20.4134  -43.2731 H         1 UNK         0.0600 
    154 H154       -1.2783  -19.3246  -45.0799 H         1 UNK         0.3000 
    155 H155        1.5198  -19.0191  -47.3113 H         1 UNK         0.0600 
    156 H156       -0.5620  -18.5443  -48.5738 H         1 UNK         0.0600 
    157 H157        0.0564  -17.0547  -47.8770 H         1 UNK         0.0600 
    158 H158       -1.3166  -17.8673  -47.1386 H         1 UNK         0.0600 
    159 H159        0.4742  -17.1927  -45.4286 H         1 UNK         0.3000 
    160 H160        2.4882  -18.2065  -42.6069 H         1 UNK         0.0600 
    161 H161        2.2306  -15.7859  -44.4488 H         1 UNK         0.0600 
    162 H162        3.7171  -16.5982  -43.9961 H         1 UNK         0.0600 
    163 H163        2.7967  -15.7243  -42.7786 H         1 UNK         0.0600 
    164 H164        0.2853  -16.3683  -42.8634 H         1 UNK         0.3000 
    165 H165       -2.1813  -18.6279  -41.6006 H         1 UNK         0.0600 
    166 H166       -2.3356  -17.0196  -39.7405 H         1 UNK         0.0600 
    167 H167       -0.8803  -17.9847  -39.5607 H         1 UNK         0.0600 
    168 H168       -0.7641  -16.3322  -40.1537 H         1 UNK         0.0600 
    169 H169       -2.5482  -15.9330  -41.9176 H         1 UNK         0.3000 
    170 H170       -4.3958  -16.2976  -44.6715 H         1 UNK         0.0600 
    171 H171       -4.5707  -15.3016  -42.3950 H         1 UNK         0.0600 
    172 H172       -3.2473  -14.1892  -42.7601 H         1 UNK         0.0600 
    173 H173       -4.7663  -14.0851  -43.6386 H         1 UNK         0.0600 
    174 H174       -2.3217  -14.2209  -45.0395 H         1 UNK         0.3000 
    175 H175       -1.5270  -15.0386  -48.2478 H         1 UNK         0.0600 
    176 H176       -3.6184  -12.8411  -47.7829 H         1 UNK         0.0600 
    177 H177       -2.5662  -13.0069  -49.1872 H         1 UNK         0.0600 
    178 H178       -3.8335  -14.1884  -48.8872 H         1 UNK         0.0600 
    179 H179       -1.2791  -12.5010  -47.1608 H         1 UNK         0.3000 
    180 H180        0.2996  -11.9572  -45.1958 H         1 UNK         0.0600 
    181 H181        2.7773  -12.1875  -44.9305 H         1 UNK         0.0600 
    182 H182        2.7158  -13.7591  -45.7258 H         1 UNK         0.0600 
    183 H183        1.8999  -13.5058  -44.1806 H         1 UNK         0.0600 
    184 H184        2.0678  -12.1775  -47.5414 H         1 UNK         0.3000 
    185 H185        0.2325   -9.8748  -49.5032 H         1 UNK         0.0600 
    186 H186        1.5499   -8.3597  -48.0217 H         1 UNK         0.0600 
    187 H187        2.9162   -9.4668  -48.0756 H         1 UNK         0.0600 
    188 H188        2.3843   -8.6410  -49.5410 H         1 UNK         0.0600 
    189 H189        2.7652  -11.1955  -49.8262 H         1 UNK         0.3000 
    190 H190        1.1315  -22.8010  -47.4276 H         1 UNK         0.3000 
    191 H191        1.4893  -24.9974  -49.4091 H         1 UNK         0.0600 
    192 H192        1.2431  -22.8052  -50.3905 H         1 UNK         0.0600 
    193 H193       -0.2614  -23.6676  -50.6603 H         1 UNK         0.0600 
    194 H194       -0.1611  -22.4302  -49.4043 H         1 UNK         0.0600 
    195 H195        0.0245  -26.5585  -49.6944 H         1 UNK         0.3000 
    196 H196       -1.4261  -27.5396  -47.5176 H         1 UNK         0.0600 
    197 H197       -2.1212  -29.3054  -49.1626 H         1 UNK         0.0600 
    198 H198       -0.4084  -28.9482  -49.2965 H         1 UNK         0.0600 
    199 H199       -1.5400  -28.3063  -50.4881 H         1 UNK         0.0600 
    200 H200       -3.6151  -28.1060  -47.2933 H         1 UNK         0.3000 
    201 H201       -5.7717  -27.6997  -47.0008 H         1 UNK         0.0600 
    202 H202       -5.9225  -28.5565  -49.3310 H         1 UNK         0.0600 
    203 H203       -5.7720  -26.9215  -49.9656 H         1 UNK         0.0600 
    204 H204       -7.1821  -27.3750  -49.0178 H         1 UNK         0.0600 
    205 H205       -4.1105  -25.6915  -46.1283 H         1 UNK         0.3000 
    206 H206       -3.9219  -23.6137  -45.3930 H         1 UNK         0.0600 
    207 H207       -6.1454  -24.0526  -44.3475 H         1 UNK         0.0600 
    208 H208       -5.9690  -22.3576  -44.7732 H         1 UNK         0.0600 
    209 H209       -6.9605  -23.4101  -45.7726 H         1 UNK         0.0600 
    210 H210       -2.9570  -23.7937  -47.7808 H         1 UNK         0.3000 
    211 H211       -2.3951  -22.9067  -49.7111 H         1 UNK         0.0600 
    212 H212       -3.5013  -20.2611  -48.6043 H         1 UNK         0.0600 
    213 H213       -2.3689  -20.4363  -49.9403 H         1 UNK         0.0600 
    214 H214       -1.8861  -20.8973  -48.3239 H         1 UNK         0.0600 
    215 H215       -4.4642  -24.4018  -50.0472 H         1 UNK         0.3000 
    216 H216       -6.2675  -24.9645  -51.2336 H         1 UNK         0.0600 
    217 H217       -6.3799  -24.1113  -53.5568 H         1 UNK         0.0600 
    218 H218       -4.7105  -24.4094  -53.0997 H         1 UNK         0.0600 
    219 H219       -5.3315  -22.7604  -53.1470 H         1 UNK         0.0600 
    220 H220       -7.1051  -23.6843  -49.1409 H         1 UNK         0.3000 
    221 H221       -8.6830  -22.5727  -48.0979 H         1 UNK         0.0600 
    222 H222      -10.2429  -22.5829  -50.7365 H         1 UNK         0.0600 
    223 H223      -10.2270  -23.8848  -49.5478 H         1 UNK         0.0600 
    224 H224      -10.9093  -22.3208  -49.1321 H         1 UNK         0.0600 
    225 H225       -6.6799  -21.0383  -48.4286 H         1 UNK         0.3000 
    226 H226       -5.8702  -19.0168  -48.3352 H         1 UNK         0.0600 
    227 H227       -7.7503  -18.6919  -46.7366 H         1 UNK         0.0600 
    228 H228       -7.3214  -17.1907  -47.5391 H         1 UNK         0.0600 
    229 H229       -8.7647  -18.0645  -48.0358 H         1 UNK         0.0600 
    230 H230       -5.7609  -19.8693  -50.8554 H         1 UNK         0.3000 
    231 H231       -6.5934  -17.7232  -52.6975 H         1 UNK         0.0600 
    232 H232       -4.9501  -20.2500  -53.2227 H         1 UNK         0.0600 
    233 H233       -5.7134  -19.2127  -54.4179 H         1 UNK         0.0600 
    234 H234       -6.7076  -20.1712  -53.3325 H         1 UNK         0.0600 
    235 H235       -4.5016  -17.4953  -50.4044 H         1 UNK         0.3000 
    236 H236       -2.7108  -16.3178  -49.8957 H         1 UNK         0.0600 
    237 H237       -3.9221  -14.5637  -51.2549 H         1 UNK         0.0600 
    238 H238       -2.1800  -14.3317  -51.2593 H         1 UNK         0.0600 
    239 H239       -2.9735  -15.0231  -52.6641 H         1 UNK         0.0600 
    240 H240       -2.3153  -18.8663  -51.5642 H         1 UNK         0.3000 
    241 H241       -0.6300  -20.1556  -52.2149 H         1 UNK         0.0600 
    242 H242       -1.2374  -18.1791  -55.5162 H         1 UNK         0.3800 
    243 H243       -2.1338  -17.9925  -54.0317 H         1 UNK         0.3800 
    244 H244        1.4922  -18.0025  -52.0149 H         1 UNK         0.0800 
    245 H245        0.8500  -18.7065  -50.5562 H         1 UNK         0.0800 
    246 H246        4.5487  -20.1253  -51.9381 H         1 UNK         0.0800 
    247 H247        3.7809  -18.6179  -52.3538 H         1 UNK         0.0800 
@<TRIPOS>BOND
     1    1    2 1    
     2    1  127 1    
     3    1  128 1    
     4    1  129 1    
     5    2    3 2    
     6    2    4 am   BACKBONE|DICT|INTERRES
     7    4    5 1    
     8    4  130 1    
     9    5    6 1    
    10    5   65 1    
    11    5  131 1    
    12    6    7 1    
    13    6  132 1    
    14    6  133 1    
    15    7    8 1    
    16    8    9 1    
    17    8  134 1    
    18    8  135 1    
    19    9   10 ar   
    20    9   14 ar   
    21   10   11 ar   
    22   10  136 1    
    23   11   12 ar   
    24   11  126 1    
    25   12   13 ar   
    26   12  137 1    
    27   13   14 ar   
    28   13   15 1    
    29   14  138 1    
    30   15   16 1    
    31   15  139 1    
    32   15  140 1    
    33   16   17 1    
    34   17   18 1    
    35   17  141 1    
    36   17  142 1    
    37   18   19 1    
    38   18   67 1    
    39   18  143 1    
    40   19   20 am   BACKBONE|DICT|INTERRES
    41   19  144 1    
    42   20   21 2    
    43   20   22 1    
    44   22   23 1    
    45   22   24 1    
    46   22  145 1    
    47   23  146 1    
    48   23  147 1    
    49   23  148 1    
    50   24   25 am   BACKBONE|DICT|INTERRES
    51   24  149 1    
    52   25   26 2    
    53   25   27 1    
    54   27   28 1    
    55   27   29 1    
    56   27  150 1    
    57   28  151 1    
    58   28  152 1    
    59   28  153 1    
    60   29   30 am   BACKBONE|DICT|INTERRES
    61   29  154 1    
    62   30   31 2    
    63   30   32 1    
    64   32   33 1    
    65   32   34 1    
    66   32  155 1    
    67   33  156 1    
    68   33  157 1    
    69   33  158 1    
    70   34   35 am   BACKBONE|DICT|INTERRES
    71   34  159 1    
    72   35   36 2    
    73   35   37 1    
    74   37   38 1    
    75   37   39 1    
    76   37  160 1    
    77   38  161 1    
    78   38  162 1    
    79   38  163 1    
    80   39   40 am   BACKBONE|DICT|INTERRES
    81   39  164 1    
    82   40   41 2    
    83   40   42 1    
    84   42   43 1    
    85   42   44 1    
    86   42  165 1    
    87   43  166 1    
    88   43  167 1    
    89   43  168 1    
    90   44   45 am   BACKBONE|DICT|INTERRES
    91   44  169 1    
    92   45   46 2    
    93   45   47 1    
    94   47   48 1    
    95   47   49 1    
    96   47  170 1    
    97   48  171 1    
    98   48  172 1    
    99   48  173 1    
   100   49   50 am   BACKBONE|DICT|INTERRES
   101   49  174 1    
   102   50   51 2    
   103   50   52 1    
   104   52   53 1    
   105   52   54 1    
   106   52  175 1    
   107   53  176 1    
   108   53  177 1    
   109   53  178 1    
   110   54   55 am   BACKBONE|DICT|INTERRES
   111   54  179 1    
   112   55   56 2    
   113   55   57 1    
   114   57   58 1    
   115   57   59 1    
   116   57  180 1    
   117   58  181 1    
   118   58  182 1    
   119   58  183 1    
   120   59   60 am   BACKBONE|DICT|INTERRES
   121   59  184 1    
   122   60   61 2    
   123   60   62 1    
   124   62   63 1    
   125   62   64 1    
   126   62  185 1    
   127   63  186 1    
   128   63  187 1    
   129   63  188 1    
   130   64   65 am   BACKBONE|DICT|INTERRES
   131   64  189 1    
   132   65   66 2    
   133   67   68 2    
   134   67   69 am   BACKBONE|DICT|INTERRES
   135   69   70 1    
   136   69  190 1    
   137   70   71 1    
   138   70   72 1    
   139   70  191 1    
   140   71  192 1    
   141   71  193 1    
   142   71  194 1    
   143   72   73 2    
   144   72   74 am   BACKBONE|DICT|INTERRES
   145   74   75 1    
   146   74  195 1    
   147   75   76 1    
   148   75   77 1    
   149   75  196 1    
   150   76  197 1    
   151   76  198 1    
   152   76  199 1    
   153   77   78 2    
   154   77   79 am   BACKBONE|DICT|INTERRES
   155   79   80 1    
   156   79  200 1    
   157   80   81 1    
   158   80   82 1    
   159   80  201 1    
   160   81  202 1    
   161   81  203 1    
   162   81  204 1    
   163   82   83 2    
   164   82   84 am   BACKBONE|DICT|INTERRES
   165   84   85 1    
   166   84  205 1    
   167   85   86 1    
   168   85   87 1    
   169   85  206 1    
   170   86  207 1    
   171   86  208 1    
   172   86  209 1    
   173   87   88 2    
   174   87   89 am   BACKBONE|DICT|INTERRES
   175   89   90 1    
   176   89  210 1    
   177   90   91 1    
   178   90   92 1    
   179   90  211 1    
   180   91  212 1    
   181   91  213 1    
   182   91  214 1    
   183   92   93 2    
   184   92   94 am   BACKBONE|DICT|INTERRES
   185   94   95 1    
   186   94  215 1    
   187   95   96 1    
   188   95   97 1    
   189   95  216 1    
   190   96  217 1    
   191   96  218 1    
   192   96  219 1    
   193   97   98 2    
   194   97   99 am   BACKBONE|DICT|INTERRES
   195   99  100 1    
   196   99  220 1    
   197  100  101 1    
   198  100  102 1    
   199  100  221 1    
   200  101  222 1    
   201  101  223 1    
   202  101  224 1    
   203  102  103 2    
   204  102  104 am   BACKBONE|DICT|INTERRES
   205  104  105 1    
   206  104  225 1    
   207  105  106 1    
   208  105  107 1    
   209  105  226 1    
   210  106  227 1    
   211  106  228 1    
   212  106  229 1    
   213  107  108 2    
   214  107  109 am   BACKBONE|DICT|INTERRES
   215  109  110 1    
   216  109  230 1    
   217  110  111 1    
   218  110  112 1    
   219  110  231 1    
   220  111  232 1    
   221  111  233 1    
   222  111  234 1    
   223  112  113 2    
   224  112  114 am   BACKBONE|DICT|INTERRES
   225  114  115 1    
   226  114  235 1    
   227  115  116 1    
   228  115  117 1    
   229  115  236 1    
   230  116  237 1    
   231  116  238 1    
   232  116  239 1    
   233  117  118 2    
   234  117  119 am   BACKBONE|DICT|INTERRES
   235  119  120 1    
   236  119  240 1    
   237  120  121 1    
   238  120  124 1    
   239  120  241 1    
   240  121  122 am   BACKBONE|DICT|INTERRES
   241  121  123 2    
   242  122  242 1    
   243  122  243 1    
   244  124  125 1    
   245  124  244 1    
   246  124  245 1    
   247  125  126 1    
   248  126  246 1    
   249  126  247 1    
@<TRIPOS>SUBSTRUCTURE
     1 UNK         1 GROUP             0       ****    0 ROOT    
