@<TRIPOS>MOLECULE
3R540
247   249    1
SMALL
USER_CHARGES


@<TRIPOS>ATOM
      1 CA         -1.2650  -17.2843  -51.1941 C.3       0 UNK        -0.1800 
      2 C          -0.5764  -17.2032  -49.8424 C.2       0 UNK         0.5000 
      3 O           0.0187  -18.1806  -49.3890 O.2       0 UNK        -0.5000 
      4 N          -0.6690  -16.0344  -49.2015 N.am      1 UNK        -0.5000 
      5 CA         -0.0248  -15.6857  -47.9357 C.3       1 UNK         0.1400 
      6 C6         -0.5555  -14.3496  -47.3428 C.3       23 UNK        -0.0398 
      7 S7         -0.9212  -13.0365  -48.5653 S.3       23 UNK        -0.2404 
      8 C8         -2.7363  -12.9115  -48.4480 C.3       23 UNK        -0.0205 
      9 C9         -3.4479  -14.0878  -49.1036 C.ar      23 UNK        -0.0193 
     10 C10        -3.7845  -14.0369  -50.4610 C.ar      23 UNK        -0.1150 
     11 C11        -4.4751  -15.0948  -51.0605 C.ar      23 UNK        -0.0193 
     12 C12        -4.8095  -16.2156  -50.2989 C.ar      23 UNK        -0.1150 
     13 C13        -4.4665  -16.2858  -48.9473 C.ar      23 UNK        -0.0193 
     14 C14        -3.7977  -15.2144  -48.3502 C.ar      23 UNK        -0.1150 
     15 C15        -4.8326  -17.5219  -48.1451 C.3       23 UNK        -0.0205 
     16 S16        -3.7140  -18.8993  -48.5386 S.3       23 UNK        -0.2404 
     17 C17        -2.6016  -18.9218  -47.0883 C.3       23 UNK        -0.0398 
     18 CA         -1.7690  -20.2245  -46.9587 C.3       11 UNK         0.1400 
     19 N          -0.8835  -20.2041  -45.7900 N.am      11 UNK        -0.5000 
     20 C           0.0014  -21.1633  -45.4720 C.2       10 UNK         0.5000 
     21 O           0.2289  -22.1486  -46.1729 O.2       10 UNK        -0.5000 
     22 CA          0.6950  -21.0427  -44.1022 C.3       10 UNK         0.1400 
     23 CB          1.8454  -20.0269  -44.1490 C.3       10 UNK        -0.1800 
     24 N          -0.2449  -20.6831  -43.0400 N.am      10 UNK        -0.5000 
     25 C          -1.2913  -21.4348  -42.6660 C.2       9 UNK         0.5000 
     26 O          -1.5325  -22.5516  -43.1221 O.2       9 UNK        -0.5000 
     27 CA         -2.2673  -20.8047  -41.6598 C.3       9 UNK         0.1400 
     28 CB         -1.7763  -21.0026  -40.2182 C.3       9 UNK        -0.1800 
     29 N          -2.4683  -19.3810  -41.9331 N.am      9 UNK        -0.5000 
     30 C          -3.1530  -18.9105  -42.9856 C.2       8 UNK         0.5000 
     31 O          -3.7282  -19.6320  -43.8004 O.2       8 UNK        -0.5000 
     32 CA         -3.1581  -17.3836  -43.1870 C.3       8 UNK         0.1400 
     33 CB         -4.2612  -16.7292  -42.3429 C.3       8 UNK        -0.1800 
     34 N          -1.8683  -16.7727  -42.8610 N.am      8 UNK        -0.5000 
     35 C          -0.7547  -16.9251  -43.5903 C.2       7 UNK         0.5000 
     36 O          -0.7137  -17.5420  -44.6549 O.2       7 UNK        -0.5000 
     37 CA          0.5422  -16.3098  -43.0292 C.3       7 UNK         0.1400 
     38 CB          0.7369  -14.8971  -43.5940 C.3       7 UNK        -0.1800 
     39 N           0.6176  -16.2662  -41.5644 N.am      7 UNK        -0.5000 
     40 C           0.5422  -17.3334  -40.7558 C.2       6 UNK         0.5000 
     41 O           0.3640  -18.4804  -41.1682 O.2       6 UNK        -0.5000 
     42 CA          0.7272  -17.0624  -39.2535 C.3       6 UNK         0.1400 
     43 CB          0.6467  -18.3350  -38.3913 C.3       6 UNK        -0.1800 
     44 N           2.0249  -16.4257  -39.0590 N.am      6 UNK        -0.5000 
     45 C           2.2608  -15.3241  -38.3360 C.2       5 UNK         0.5000 
     46 O           1.4067  -14.7527  -37.6574 O.2       5 UNK        -0.5000 
     47 CA          3.6923  -14.7465  -38.4014 C.3       5 UNK         0.1400 
     48 CB          4.5037  -15.1830  -37.1718 C.3       5 UNK        -0.1800 
     49 N           4.4271  -15.1227  -39.6164 N.am      5 UNK        -0.5000 
     50 C           4.0755  -14.7683  -40.8599 C.2       4 UNK         0.5000 
     51 O           3.1097  -14.0421  -41.1079 O.2       4 UNK        -0.5000 
     52 CA          4.9045  -15.3867  -42.0037 C.3       4 UNK         0.1400 
     53 CB          4.7153  -16.9142  -42.0474 C.3       4 UNK        -0.1800 
     54 N           4.5108  -14.8529  -43.3046 N.am      4 UNK        -0.5000 
     55 C           4.8467  -13.6562  -43.8025 C.2       3 UNK         0.5000 
     56 O           5.6270  -12.8812  -43.2465 O.2       3 UNK        -0.5000 
     57 CA          4.1738  -13.2612  -45.1381 C.3       3 UNK         0.1400 
     58 CB          5.0566  -12.3422  -46.0084 C.3       3 UNK        -0.1800 
     59 N           3.6751  -14.4140  -45.9057 N.am      3 UNK        -0.5000 
     60 C           4.3987  -15.3901  -46.4778 C.2       2 UNK         0.5000 
     61 O           5.6294  -15.4095  -46.4973 O.2       2 UNK        -0.5000 
     62 CA          3.6238  -16.5774  -47.0866 C.3       2 UNK         0.1400 
     63 CB          3.9147  -17.8620  -46.2926 C.3       2 UNK        -0.1800 
     64 N           2.1711  -16.3848  -47.1224 N.am      2 UNK        -0.5000 
     65 C           1.5126  -15.6961  -48.0634 C.2       1 UNK         0.5000 
     66 O           2.0638  -15.0870  -48.9823 O.2       1 UNK        -0.5000 
     67 C          -2.6616  -21.4829  -46.9637 C.2       11 UNK         0.5000 
     68 O          -2.6955  -22.1849  -47.9738 O.2       11 UNK        -0.5000 
     69 N          -3.3405  -21.7575  -45.8405 N.am      12 UNK        -0.5000 
     70 CA         -4.2235  -22.9129  -45.6734 C.3       12 UNK         0.1400 
     71 CB         -4.9388  -22.8235  -44.3171 C.3       12 UNK        -0.1800 
     72 C          -3.4946  -24.2613  -45.8244 C.2       12 UNK         0.5000 
     73 O          -4.0109  -25.1551  -46.4958 O.2       12 UNK        -0.5000 
     74 N          -2.2991  -24.3711  -45.2293 N.am      13 UNK        -0.5000 
     75 CA         -1.4362  -25.5500  -45.3045 C.3       13 UNK         0.1400 
     76 CB         -0.2869  -25.4048  -44.2953 C.3       13 UNK        -0.1800 
     77 C          -0.8852  -25.8053  -46.7195 C.2       13 UNK         0.5000 
     78 O          -0.8594  -26.9541  -47.1625 O.2       13 UNK        -0.5000 
     79 N          -0.4620  -24.7346  -47.4039 N.am      14 UNK        -0.5000 
     80 CA          0.1120  -24.7863  -48.7498 C.3       14 UNK         0.1400 
     81 CB          1.0470  -23.5792  -48.9277 C.3       14 UNK        -0.1800 
     82 C          -0.9422  -24.8102  -49.8736 C.2       14 UNK         0.5000 
     83 O          -0.5651  -24.9628  -51.0355 O.2       14 UNK        -0.5000 
     84 N          -2.2219  -24.5973  -49.5335 N.am      15 UNK        -0.5000 
     85 CA         -3.3606  -24.3980  -50.4391 C.3       15 UNK         0.1400 
     86 CB         -3.6997  -25.6996  -51.1940 C.3       15 UNK        -0.1800 
     87 C          -3.1420  -23.1928  -51.3788 C.2       15 UNK         0.5000 
     88 O          -3.3618  -23.2945  -52.5873 O.2       15 UNK        -0.5000 
     89 N          -2.6614  -22.0837  -50.7975 N.am      16 UNK        -0.5000 
     90 CA         -2.2190  -20.8509  -51.4598 C.3       16 UNK         0.1400 
     91 CB         -3.4119  -20.1329  -52.1253 C.3       16 UNK        -0.1800 
     92 C          -1.0534  -21.0966  -52.4416 C.2       16 UNK         0.5000 
     93 O          -1.0543  -20.5523  -53.5443 O.2       16 UNK        -0.5000 
     94 N          -0.1039  -21.9550  -52.0390 N.am      17 UNK        -0.5000 
     95 CA          1.0022  -22.4826  -52.8508 C.3       17 UNK         0.1400 
     96 CB          2.0044  -21.3683  -53.2181 C.3       17 UNK        -0.1800 
     97 C           0.4834  -23.2732  -54.0715 C.2       17 UNK         0.5000 
     98 O           0.9311  -23.0575  -55.1987 O.2       17 UNK        -0.5000 
     99 N          -0.4913  -24.1530  -53.8018 N.am      18 UNK        -0.5000 
    100 CA        -1.2461  -25.0006  -54.7303 C.3       18 UNK         0.1400 
    101 CB        -0.3129  -26.0090  -55.4315 C.3       18 UNK        -0.1800 
    102 C         -2.1443  -24.2392  -55.7319 C.2       18 UNK         0.5000 
    103 O         -2.6747  -24.8644  -56.6520 O.2       18 UNK        -0.5000 
    104 N         -2.3272  -22.9238  -55.5474 N.am      19 UNK        -0.5000 
    105 CA        -3.1667  -22.0839  -56.4038 C.3       19 UNK         0.1400 
    106 CB        -2.6986  -20.6249  -56.3068 C.3       19 UNK        -0.1800 
    107 C         -4.6675  -22.1830  -56.0725 C.2       19 UNK         0.5000 
    108 O         -5.4779  -21.8184  -56.9233 O.2       19 UNK        -0.5000 
    109 N         -5.0055  -22.6571  -54.8613 N.am      20 UNK        -0.5000 
    110 CA        -6.3503  -22.7782  -54.2883 C.3       20 UNK         0.1400 
    111 CB        -7.2189  -23.7647  -55.0956 C.3       20 UNK        -0.1800 
    112 C         -7.0111  -21.3966  -54.1163 C.2       20 UNK         0.5000 
    113 O         -7.7784  -20.9569  -54.9752 O.2       20 UNK        -0.5000 
    114 N         -6.6467  -20.7151  -53.0193 N.am      21 UNK        -0.5000 
    115 CA        -7.0852  -19.3655  -52.6287 C.3       21 UNK         0.1400 
    116 CB        -8.5767  -19.3729  -52.2350 C.3       21 UNK        -0.1800 
    117 C         -6.7457  -18.2842  -53.6799 C.2       21 UNK         0.5000 
    118 O         -7.5136  -17.3401  -53.8710 O.2       21 UNK        -0.5000 
    119 N         -5.5986  -18.4635  -54.3480 N.am      22 UNK        -0.5000 
    120 CA        -5.0877  -17.6439  -55.4618 C.3       22 UNK         0.1400 
    121 C         -5.9005  -17.7760  -56.7878 C.2       22 UNK         0.5000 
    122 N         -6.8006  -18.7420  -56.9320 N.am      22 UNK        -0.7600 
    123 O         -5.6925  -17.0060  -57.7216 O.2       22 UNK        -0.5000 
    124 C124       -4.8125  -16.1585  -55.0844 C.3       23 UNK        -0.0398 
    125 S125       -3.7736  -15.9704  -53.5922 S.3       23 UNK        -0.2404 
    126 C126       -4.8986  -15.0274  -52.5180 C.3       23 UNK        -0.0205 
    127 H127       -1.2718  -16.3145  -51.6923 H         1 UNK         0.0600 
    128 H128       -2.2975  -17.6030  -51.0605 H         1 UNK         0.0600 
    129 H129       -0.7592  -17.9959  -51.8464 H         1 UNK         0.0600 
    130 H130       -1.1754  -15.2742  -49.6344 H         1 UNK         0.3000 
    131 H131       -0.2894  -16.4719  -47.2268 H         1 UNK         0.0600 
    132 H132        0.1469  -13.9291  -46.6230 H         1 UNK         0.0800 
    133 H133       -1.4528  -14.5519  -46.7594 H         1 UNK         0.0800 
    134 H134       -3.0508  -11.9837  -48.9285 H         1 UNK         0.0800 
    135 H135       -3.0342  -12.8199  -47.4023 H         1 UNK         0.0800 
    136 H136       -3.5243  -13.1659  -51.0462 H         1 UNK         0.1150 
    137 H137       -5.3346  -17.0392  -50.7614 H         1 UNK         0.1150 
    138 H138       -3.5510  -15.2615  -47.2997 H         1 UNK         0.1150 
    139 H139       -4.8274  -17.3103  -47.0751 H         1 UNK         0.0800 
    140 H140       -5.8532  -17.8196  -48.3897 H         1 UNK         0.0800 
    141 H141       -3.1999  -18.7693  -46.1913 H         1 UNK         0.0800 
    142 H142       -1.9377  -18.0621  -47.1581 H         1 UNK         0.0800 
    143 H143       -1.1231  -20.2881  -47.8371 H         1 UNK         0.0600 
    144 H144       -0.9620  -19.3957  -45.1813 H         1 UNK         0.3000 
    145 H145        1.1152  -22.0191  -43.8525 H         1 UNK         0.0600 
    146 H146        2.3214  -19.9196  -43.1741 H         1 UNK         0.0600 
    147 H147        2.6134  -20.3476  -44.8536 H         1 UNK         0.0600 
    148 H148        1.5028  -19.0433  -44.4659 H         1 UNK         0.0600 
    149 H149       -0.0900  -19.8016  -42.5607 H         1 UNK         0.3000 
    150 H150       -3.2297  -21.3109  -41.7598 H         1 UNK         0.0600 
    151 H151       -1.7248  -22.0637  -39.9715 H         1 UNK         0.0600 
    152 H152       -2.4505  -20.5342  -39.5012 H         1 UNK         0.0600 
    153 H153       -0.7803  -20.5875  -40.0672 H         1 UNK         0.0600 
    154 H154       -1.9590  -18.7331  -41.3497 H         1 UNK         0.3000 
    155 H155       -3.3748  -17.1861  -44.2390 H         1 UNK         0.0600 
    156 H156       -4.0918  -16.8717  -41.2749 H         1 UNK         0.0600 
    157 H157       -5.2374  -17.1542  -42.5804 H         1 UNK         0.0600 
    158 H158       -4.3197  -15.6575  -42.5339 H         1 UNK         0.0600 
    159 H159       -1.8159  -16.2370  -42.0072 H         1 UNK         0.3000 
    160 H160        1.3717  -16.9285  -43.3747 H         1 UNK         0.0600 
    161 H161       -0.0697  -14.2273  -43.2931 H         1 UNK         0.0600 
    162 H162        0.7604  -14.9196  -44.6814 H         1 UNK         0.0600 
    163 H163        1.6751  -14.4572  -43.2620 H         1 UNK         0.0600 
    164 H164        0.8052  -15.3622  -41.1521 H         1 UNK         0.3000 
    165 H165       -0.0785  -16.3902  -38.9516 H         1 UNK         0.0600 
    166 H166        0.7995  -18.1050  -37.3368 H         1 UNK         0.0600 
    167 H167       -0.3332  -18.8043  -38.4803 H         1 UNK         0.0600 
    168 H168        1.3963  -19.0709  -38.6851 H         1 UNK         0.0600 
    169 H169        2.7885  -16.8147  -39.5927 H         1 UNK         0.3000 
    170 H170        3.6053  -13.6580  -38.3857 H         1 UNK         0.0600 
    171 H171        4.0006  -14.8928  -36.2484 H         1 UNK         0.0600 
    172 H172        4.6419  -16.2646  -37.1441 H         1 UNK         0.0600 
    173 H173        5.4891  -14.7169  -37.1628 H         1 UNK         0.0600 
    174 H174        5.2316  -15.7191  -39.4850 H         1 UNK         0.3000 
    175 H175        5.9585  -15.1606  -41.8296 H         1 UNK         0.0600 
    176 H176        3.6671  -17.1894  -42.1724 H         1 UNK         0.0600 
    177 H177        5.2754  -17.3560  -42.8722 H         1 UNK         0.0600 
    178 H178        5.0723  -17.3875  -41.1322 H         1 UNK         0.0600 
    179 H179        3.8517  -15.4046  -43.8287 H         1 UNK         0.3000 
    180 H180        3.2891  -12.6868  -44.8596 H         1 UNK         0.0600 
    181 H181        6.0131  -12.8054  -46.2509 H         1 UNK         0.0600 
    182 H182        5.2721  -11.4058  -45.4925 H         1 UNK         0.0600 
    183 H183        4.5588  -12.0880  -46.9442 H         1 UNK         0.0600 
    184 H184        2.6720  -14.4907  -45.9711 H         1 UNK         0.3000 
    185 H185        3.9880  -16.7168  -48.1068 H         1 UNK         0.0600 
    186 H186        4.9813  -18.0907  -46.2922 H         1 UNK         0.0600 
    187 H187        3.6000  -17.7735  -45.2522 H         1 UNK         0.0600 
    188 H188        3.4029  -18.7200  -46.7291 H         1 UNK         0.0600 
    189 H189        1.6392  -16.8874  -46.4266 H         1 UNK         0.3000 
    190 H190       -3.2881  -21.1096  -45.0607 H         1 UNK         0.3000 
    191 H191       -4.9812  -22.8594  -46.4578 H         1 UNK         0.0600 
    192 H192       -4.2342  -22.8550  -43.4862 H         1 UNK         0.0600 
    193 H193       -5.6355  -23.6527  -44.1881 H         1 UNK         0.0600 
    194 H194       -5.5124  -21.9002  -44.2339 H         1 UNK         0.0600 
    195 H195       -1.9675  -23.6013  -44.6531 H         1 UNK         0.3000 
    196 H196       -2.0309  -26.4197  -45.0176 H         1 UNK         0.0600 
    197 H197        0.3696  -26.2754  -44.3203 H         1 UNK         0.0600 
    198 H198       -0.6665  -25.3123  -43.2775 H         1 UNK         0.0600 
    199 H199        0.3231  -24.5251  -44.5045 H         1 UNK         0.0600 
    200 H200       -0.4742  -23.8233  -46.9533 H         1 UNK         0.3000 
    201 H201        0.7116  -25.6937  -48.8466 H         1 UNK         0.0600 
    202 H202        1.8025  -23.5482  -48.1423 H         1 UNK         0.0600 
    203 H203        0.4983  -22.6368  -48.8986 H         1 UNK         0.0600 
    204 H204        1.5775  -23.6279  -49.8783 H         1 UNK         0.0600 
    205 H205       -2.4117  -24.4112  -48.5570 H         1 UNK         0.3000 
    206 H206       -4.2152  -24.1455  -49.8098 H         1 UNK         0.0600 
    207 H207       -4.6006  -25.5784  -51.7966 H         1 UNK         0.0600 
    208 H208       -3.8819  -26.5192  -50.4990 H         1 UNK         0.0600 
    209 H209       -2.8966  -26.0034  -51.8653 H         1 UNK         0.0600 
    210 H210       -2.5620  -22.1024  -49.7831 H         1 UNK         0.3000 
    211 H211       -1.8293  -20.2007  -50.6758 H         1 UNK         0.0600 
    212 H212       -3.1129  -19.1744  -52.5493 H         1 UNK         0.0600 
    213 H213       -4.2016  -19.9352  -51.4019 H         1 UNK         0.0600 
    214 H214       -3.8295  -20.7225  -52.9397 H         1 UNK         0.0600 
    215 H215       -0.2184  -22.3825  -51.1325 H         1 UNK         0.3000 
    216 H216        1.5309  -23.2041  -52.2274 H         1 UNK         0.0600 
    217 H217        2.8833  -21.7844  -53.7119 H         1 UNK         0.0600 
    218 H218        2.3504  -20.8416  -52.3289 H         1 UNK         0.0600 
    219 H219        1.5693  -20.6331  -53.8954 H         1 UNK         0.0600 
    220 H220       -0.7423  -24.2753  -52.8241 H         1 UNK         0.3000 
    221 H221       -1.9316  -25.5734  -54.1048 H         1 UNK         0.0600 
    222 H222        0.3612  -25.5175  -56.1333 H         1 UNK         0.0600 
    223 H223        0.2934  -26.5538  -54.7078 H         1 UNK         0.0600 
    224 H224       -0.8847  -26.7484  -55.9934 H         1 UNK         0.0600 
    225 H225       -1.8709  -22.4716  -54.7661 H         1 UNK         0.3000 
    226 H226       -3.0362  -22.4042  -57.4398 H         1 UNK         0.0600 
    227 H227       -2.9064  -20.2012  -55.3247 H         1 UNK         0.0600 
    228 H228       -1.6279  -20.5368  -56.4923 H         1 UNK         0.0600 
    229 H229       -3.2092  -20.0051  -57.0447 H         1 UNK         0.0600 
    230 H230       -4.2523  -22.9175  -54.2283 H         1 UNK         0.3000 
    231 H231       -6.2222  -23.2062  -53.2927 H         1 UNK         0.0600 
    232 H232       -6.7386  -24.7403  -55.1694 H         1 UNK         0.0600 
    233 H233       -7.4153  -23.4118  -56.1082 H         1 UNK         0.0600 
    234 H234       -8.1850  -23.9125  -54.6120 H         1 UNK         0.0600 
    235 H235       -6.0027  -21.1601  -52.3812 H         1 UNK         0.3000 
    236 H236       -6.5159  -19.1033  -51.7361 H         1 UNK         0.0600 
    237 H237       -8.8762  -18.4114  -51.8163 H         1 UNK         0.0600 
    238 H238       -8.7811  -20.1313  -51.4794 H         1 UNK         0.0600 
    239 H239       -9.2206  -19.5710  -53.0924 H         1 UNK         0.0600 
    240 H240       -5.0490  -19.2775  -54.1230 H         1 UNK         0.3000 
    241 H241       -4.1184  -18.0796  -55.7016 H         1 UNK         0.0600 
    242 H242       -7.3001  -18.8205  -57.8031 H         1 UNK         0.3800 
    243 H243       -6.9836  -19.4133  -56.1954 H         1 UNK         0.3800 
    244 H244       -4.2913  -15.6555  -55.9004 H         1 UNK         0.0800 
    245 H245       -5.7519  -15.6187  -54.9593 H         1 UNK         0.0800 
    246 H246       -5.9122  -15.4207  -52.6076 H         1 UNK         0.0800 
    247 H247       -4.9394  -13.9922  -52.8599 H         1 UNK         0.0800 
@<TRIPOS>BOND
     1    1    2 1    
     2    1  127 1    
     3    1  128 1    
     4    1  129 1    
     5    2    3 2    
     6    2    4 am   BACKBONE|DICT|INTERRES
     7    4    5 1    
     8    4  130 1    
     9    5    6 1    
    10    5   65 1    
    11    5  131 1    
    12    6    7 1    
    13    6  132 1    
    14    6  133 1    
    15    7    8 1    
    16    8    9 1    
    17    8  134 1    
    18    8  135 1    
    19    9   10 ar   
    20    9   14 ar   
    21   10   11 ar   
    22   10  136 1    
    23   11   12 ar   
    24   11  126 1    
    25   12   13 ar   
    26   12  137 1    
    27   13   14 ar   
    28   13   15 1    
    29   14  138 1    
    30   15   16 1    
    31   15  139 1    
    32   15  140 1    
    33   16   17 1    
    34   17   18 1    
    35   17  141 1    
    36   17  142 1    
    37   18   19 1    
    38   18   67 1    
    39   18  143 1    
    40   19   20 am   BACKBONE|DICT|INTERRES
    41   19  144 1    
    42   20   21 2    
    43   20   22 1    
    44   22   23 1    
    45   22   24 1    
    46   22  145 1    
    47   23  146 1    
    48   23  147 1    
    49   23  148 1    
    50   24   25 am   BACKBONE|DICT|INTERRES
    51   24  149 1    
    52   25   26 2    
    53   25   27 1    
    54   27   28 1    
    55   27   29 1    
    56   27  150 1    
    57   28  151 1    
    58   28  152 1    
    59   28  153 1    
    60   29   30 am   BACKBONE|DICT|INTERRES
    61   29  154 1    
    62   30   31 2    
    63   30   32 1    
    64   32   33 1    
    65   32   34 1    
    66   32  155 1    
    67   33  156 1    
    68   33  157 1    
    69   33  158 1    
    70   34   35 am   BACKBONE|DICT|INTERRES
    71   34  159 1    
    72   35   36 2    
    73   35   37 1    
    74   37   38 1    
    75   37   39 1    
    76   37  160 1    
    77   38  161 1    
    78   38  162 1    
    79   38  163 1    
    80   39   40 am   BACKBONE|DICT|INTERRES
    81   39  164 1    
    82   40   41 2    
    83   40   42 1    
    84   42   43 1    
    85   42   44 1    
    86   42  165 1    
    87   43  166 1    
    88   43  167 1    
    89   43  168 1    
    90   44   45 am   BACKBONE|DICT|INTERRES
    91   44  169 1    
    92   45   46 2    
    93   45   47 1    
    94   47   48 1    
    95   47   49 1    
    96   47  170 1    
    97   48  171 1    
    98   48  172 1    
    99   48  173 1    
   100   49   50 am   BACKBONE|DICT|INTERRES
   101   49  174 1    
   102   50   51 2    
   103   50   52 1    
   104   52   53 1    
   105   52   54 1    
   106   52  175 1    
   107   53  176 1    
   108   53  177 1    
   109   53  178 1    
   110   54   55 am   BACKBONE|DICT|INTERRES
   111   54  179 1    
   112   55   56 2    
   113   55   57 1    
   114   57   58 1    
   115   57   59 1    
   116   57  180 1    
   117   58  181 1    
   118   58  182 1    
   119   58  183 1    
   120   59   60 am   BACKBONE|DICT|INTERRES
   121   59  184 1    
   122   60   61 2    
   123   60   62 1    
   124   62   63 1    
   125   62   64 1    
   126   62  185 1    
   127   63  186 1    
   128   63  187 1    
   129   63  188 1    
   130   64   65 am   BACKBONE|DICT|INTERRES
   131   64  189 1    
   132   65   66 2    
   133   67   68 2    
   134   67   69 am   BACKBONE|DICT|INTERRES
   135   69   70 1    
   136   69  190 1    
   137   70   71 1    
   138   70   72 1    
   139   70  191 1    
   140   71  192 1    
   141   71  193 1    
   142   71  194 1    
   143   72   73 2    
   144   72   74 am   BACKBONE|DICT|INTERRES
   145   74   75 1    
   146   74  195 1    
   147   75   76 1    
   148   75   77 1    
   149   75  196 1    
   150   76  197 1    
   151   76  198 1    
   152   76  199 1    
   153   77   78 2    
   154   77   79 am   BACKBONE|DICT|INTERRES
   155   79   80 1    
   156   79  200 1    
   157   80   81 1    
   158   80   82 1    
   159   80  201 1    
   160   81  202 1    
   161   81  203 1    
   162   81  204 1    
   163   82   83 2    
   164   82   84 am   BACKBONE|DICT|INTERRES
   165   84   85 1    
   166   84  205 1    
   167   85   86 1    
   168   85   87 1    
   169   85  206 1    
   170   86  207 1    
   171   86  208 1    
   172   86  209 1    
   173   87   88 2    
   174   87   89 am   BACKBONE|DICT|INTERRES
   175   89   90 1    
   176   89  210 1    
   177   90   91 1    
   178   90   92 1    
   179   90  211 1    
   180   91  212 1    
   181   91  213 1    
   182   91  214 1    
   183   92   93 2    
   184   92   94 am   BACKBONE|DICT|INTERRES
   185   94   95 1    
   186   94  215 1    
   187   95   96 1    
   188   95   97 1    
   189   95  216 1    
   190   96  217 1    
   191   96  218 1    
   192   96  219 1    
   193   97   98 2    
   194   97   99 am   BACKBONE|DICT|INTERRES
   195   99  100 1    
   196   99  220 1    
   197  100  101 1    
   198  100  102 1    
   199  100  221 1    
   200  101  222 1    
   201  101  223 1    
   202  101  224 1    
   203  102  103 2    
   204  102  104 am   BACKBONE|DICT|INTERRES
   205  104  105 1    
   206  104  225 1    
   207  105  106 1    
   208  105  107 1    
   209  105  226 1    
   210  106  227 1    
   211  106  228 1    
   212  106  229 1    
   213  107  108 2    
   214  107  109 am   BACKBONE|DICT|INTERRES
   215  109  110 1    
   216  109  230 1    
   217  110  111 1    
   218  110  112 1    
   219  110  231 1    
   220  111  232 1    
   221  111  233 1    
   222  111  234 1    
   223  112  113 2    
   224  112  114 am   BACKBONE|DICT|INTERRES
   225  114  115 1    
   226  114  235 1    
   227  115  116 1    
   228  115  117 1    
   229  115  236 1    
   230  116  237 1    
   231  116  238 1    
   232  116  239 1    
   233  117  118 2    
   234  117  119 am   BACKBONE|DICT|INTERRES
   235  119  120 1    
   236  119  240 1    
   237  120  121 1    
   238  120  124 1    
   239  120  241 1    
   240  121  122 am   BACKBONE|DICT|INTERRES
   241  121  123 2    
   242  122  242 1    
   243  122  243 1    
   244  124  125 1    
   245  124  244 1    
   246  124  245 1    
   247  125  126 1    
   248  126  246 1    
   249  126  247 1    
@<TRIPOS>SUBSTRUCTURE
     1 UNK         1 GROUP             0       ****    0 ROOT    
