@<TRIPOS>MOLECULE
3R540
247   249    1
SMALL
USER_CHARGES


@<TRIPOS>ATOM
      1 CA          7.6662  -13.5691  -45.9876 C.3       0 UNK        -0.1800 
      2 C           6.4289  -14.4309  -46.1976 C.2       0 UNK         0.5000 
      3 O           6.1926  -15.3610  -45.4258 O.2       0 UNK        -0.5000 
      4 N           5.6461  -14.1316  -47.2417 N.am      1 UNK        -0.5000 
      5 CA          4.3812  -14.8035  -47.5531 C.3       1 UNK         0.1400 
      6 C6          3.9807  -14.5984  -49.0359 C.3       23 UNK        -0.0398 
      7 S7          2.9896  -15.9907  -49.6806 S.3       23 UNK        -0.2404 
      8 C8          4.2825  -16.9253  -50.5537 C.3       23 UNK        -0.0205 
      9 C9          3.7191  -18.1432  -51.2671 C.ar      23 UNK        -0.0193 
     10 C10         2.9722  -17.9815  -52.4363 C.ar      23 UNK        -0.1150 
     11 C11         2.4840  -19.0932  -53.1272 C.ar      23 UNK        -0.0193 
     12 C12         2.7608  -20.3763  -52.6487 C.ar      23 UNK        -0.1150 
     13 C13         3.4950  -20.5533  -51.4697 C.ar      23 UNK        -0.0193 
     14 C14         3.9681  -19.4304  -50.7826 C.ar      23 UNK        -0.1150 
     15 C15         3.7947  -21.9493  -50.9312 C.3       23 UNK        -0.0205 
     16 S16         2.3456  -23.0578  -50.9158 S.3       23 UNK        -0.2404 
     17 C17         1.1502  -22.1129  -49.9132 C.3       23 UNK        -0.0398 
     18 CA          0.8952  -22.7605  -48.5358 C.3       11 UNK         0.1400 
     19 N           2.0940  -22.7690  -47.6971 N.am      11 UNK        -0.5000 
     20 C           2.2544  -23.4792  -46.5759 C.2       10 UNK         0.5000 
     21 O           1.3652  -24.1666  -46.0756 O.2       10 UNK        -0.5000 
     22 CA          3.6303  -23.3860  -45.8874 C.3       10 UNK         0.1400 
     23 CB          4.7524  -23.9740  -46.7657 C.3       10 UNK        -0.1800 
     24 N           3.9473  -22.0289  -45.4295 N.am      10 UNK        -0.5000 
     25 C           4.1179  -20.9135  -46.1529 C.2       9 UNK         0.5000 
     26 O           4.1849  -20.9065  -47.3834 O.2       9 UNK        -0.5000 
     27 CA          4.2023  -19.5729  -45.3867 C.3       9 UNK         0.1400 
     28 CB          3.4340  -18.4580  -46.1232 C.3       9 UNK        -0.1800 
     29 N           3.8011  -19.5893  -43.9682 N.am      9 UNK        -0.5000 
     30 C           2.6468  -20.0049  -43.4219 C.2       8 UNK         0.5000 
     31 O           1.7964  -20.6531  -44.0351 O.2       8 UNK        -0.5000 
     32 CA          2.4528  -19.6980  -41.9193 C.3       8 UNK         0.1400 
     33 CB          2.9459  -18.2868  -41.5273 C.3       8 UNK        -0.1800 
     34 N           1.0776  -19.9125  -41.4483 N.am      8 UNK        -0.5000 
     35 C          -0.0270  -19.2412  -41.8072 C.2       7 UNK         0.5000 
     36 O          -0.0502  -18.2900  -42.5887 O.2       7 UNK        -0.5000 
     37 CA         -1.3296  -19.6891  -41.1331 C.3       7 UNK         0.1400 
     38 CB         -1.4726  -19.0533  -39.7387 C.3       7 UNK        -0.1800 
     39 N          -2.4727  -19.3150  -41.9628 N.am      7 UNK        -0.5000 
     40 C          -3.6443  -19.9607  -41.9784 C.2       6 UNK         0.5000 
     41 O          -3.8793  -20.9368  -41.2635 O.2       6 UNK        -0.5000 
     42 CA         -4.7366  -19.4315  -42.9304 C.3       6 UNK         0.1400 
     43 CB         -6.1535  -19.8302  -42.4778 C.3       6 UNK        -0.1800 
     44 N          -4.6911  -17.9746  -43.0853 N.am      6 UNK        -0.5000 
     45 C          -4.2929  -17.3392  -44.1926 C.2       5 UNK         0.5000 
     46 O          -3.8015  -17.9091  -45.1676 O.2       5 UNK        -0.5000 
     47 CA         -4.5014  -15.8165  -44.2239 C.3       5 UNK         0.1400 
     48 CB         -3.4501  -15.0932  -43.3662 C.3       5 UNK        -0.1800 
     49 N          -4.3957  -15.3704  -45.6117 N.am      5 UNK        -0.5000 
     50 C          -5.3330  -14.7049  -46.2986 C.2       4 UNK         0.5000 
     51 O          -6.3463  -14.2378  -45.7760 O.2       4 UNK        -0.5000 
     52 CA         -5.1500  -14.5795  -47.8304 C.3       4 UNK         0.1400 
     53 CB         -5.5311  -13.1825  -48.3634 C.3       4 UNK        -0.1800 
     54 N          -3.8333  -15.0076  -48.3188 N.am      4 UNK        -0.5000 
     55 C          -2.6524  -14.4075  -48.1259 C.2       3 UNK         0.5000 
     56 O          -2.5082  -13.3044  -47.5933 O.2       3 UNK        -0.5000 
     57 CA         -1.4169  -15.2017  -48.5962 C.3       3 UNK         0.1400 
     58 CB         -1.0330  -14.8298  -50.0360 C.3       3 UNK        -0.1800 
     59 N          -0.2616  -15.0042  -47.7190 N.am      3 UNK        -0.5000 
     60 C          -0.2401  -15.3155  -46.4146 C.2       2 UNK         0.5000 
     61 O          -1.1799  -15.8620  -45.8398 O.2       2 UNK        -0.5000 
     62 CA          1.0449  -14.9732  -45.6410 C.3       2 UNK         0.1400 
     63 CB          1.2045  -15.7862  -44.3440 C.3       2 UNK        -0.1800 
     64 N           2.2164  -15.1850  -46.4878 N.am      2 UNK        -0.5000 
     65 C           3.2570  -14.3542  -46.5936 C.2       1 UNK         0.5000 
     66 O           3.3372  -13.2741  -46.0017 O.2       1 UNK        -0.5000 
     67 C          -0.3072  -22.0819  -47.8557 C.2       11 UNK         0.5000 
     68 O          -1.4422  -22.4424  -48.1650 O.2       11 UNK        -0.5000 
     69 N          -0.0652  -21.1109  -46.9648 N.am      12 UNK        -0.5000 
     70 CA         -1.1240  -20.4395  -46.2102 C.3       12 UNK         0.1400 
     71 CB         -0.6425  -19.0686  -45.7262 C.3       12 UNK        -0.1800 
     72 C          -1.6468  -21.3324  -45.0756 C.2       12 UNK         0.5000 
     73 O          -2.8588  -21.4898  -44.9460 O.2       12 UNK        -0.5000 
     74 N          -0.7350  -21.9894  -44.3451 N.am      13 UNK        -0.5000 
     75 CA         -1.0436  -23.0277  -43.3566 C.3       13 UNK         0.1400 
     76 CB          0.2525  -23.4678  -42.6601 C.3       13 UNK        -0.1800 
     77 C          -1.7798  -24.2443  -43.9568 C.2       13 UNK         0.5000 
     78 O          -2.6634  -24.8018  -43.3059 O.2       13 UNK        -0.5000 
     79 N          -1.4362  -24.6037  -45.2018 N.am      14 UNK        -0.5000 
     80 CA         -2.1094  -25.6311  -46.0028 C.3       14 UNK         0.1400 
     81 CB         -1.1605  -26.0838  -47.1237 C.3       14 UNK        -0.1800 
     82 C          -3.4622  -25.1763  -46.5966 C.2       14 UNK         0.5000 
     83 O          -4.1456  -25.9927  -47.2144 O.2       14 UNK        -0.5000 
     84 N          -3.8133  -23.8933  -46.4240 N.am      15 UNK        -0.5000 
     85 CA         -5.0245  -23.2018  -46.8790 C.3       15 UNK         0.1400 
     86 CB         -6.3038  -23.8753  -46.3441 C.3       15 UNK        -0.1800 
     87 C          -5.0943  -22.9361  -48.3971 C.2       15 UNK         0.5000 
     88 O          -6.0818  -22.3651  -48.8607 O.2       15 UNK        -0.5000 
     89 N          -4.0412  -23.2839  -49.1463 N.am      16 UNK        -0.5000 
     90 CA         -3.9207  -23.0350  -50.5820 C.3       16 UNK         0.1400 
     91 CB         -2.7425  -23.8426  -51.1481 C.3       16 UNK        -0.1800 
     92 C          -3.7623  -21.5368  -50.8833 C.2       16 UNK         0.5000 
     93 O          -4.5018  -20.9948  -51.7042 O.2       16 UNK        -0.5000 
     94 N          -2.8436  -20.8735  -50.1685 N.am      17 UNK        -0.5000 
     95 CA         -2.6372  -19.4265  -50.2760 C.3       17 UNK         0.1400 
     96 CB         -1.2115  -19.0553  -49.8452 C.3       17 UNK        -0.1800 
     97 C          -3.6988  -18.6213  -49.5010 C.2       17 UNK         0.5000 
     98 O          -3.8538  -17.4306  -49.7685 O.2       17 UNK        -0.5000 
     99 N          -4.4453  -19.2759  -48.5976 N.am      18 UNK        -0.5000 
    100 CA        -5.6298  -18.7120  -47.9416 C.3       18 UNK         0.1400 
    101 CB        -6.0408  -19.5814  -46.7426 C.3       18 UNK        -0.1800 
    102 C         -6.7978  -18.5836  -48.9355 C.2       18 UNK         0.5000 
    103 O         -7.4506  -17.5418  -48.9830 O.2       18 UNK        -0.5000 
    104 N         -6.9983  -19.6351  -49.7440 N.am      19 UNK        -0.5000 
    105 CA        -7.9546  -19.6879  -50.8524 C.3       19 UNK         0.1400 
    106 CB        -8.1877  -21.1619  -51.2211 C.3       19 UNK        -0.1800 
    107 C         -7.5017  -18.8907  -52.0944 C.2       19 UNK         0.5000 
    108 O         -8.2981  -18.7142  -53.0170 O.2       19 UNK        -0.5000 
    109 N         -6.2387  -18.4400  -52.0968 N.am      20 UNK        -0.5000 
    110 CA        -5.5414  -17.7135  -53.1596 C.3       20 UNK         0.1400 
    111 CB        -6.1924  -16.3397  -53.4203 C.3       20 UNK        -0.1800 
    112 C         -5.3578  -18.5608  -54.4354 C.2       20 UNK         0.5000 
    113 O         -5.4729  -18.0448  -55.5498 O.2       20 UNK        -0.5000 
    114 N         -5.0212  -19.8471  -54.2491 N.am      21 UNK        -0.5000 
    115 CA        -4.7319  -20.8203  -55.3106 C.3       21 UNK         0.1400 
    116 CB        -4.5550  -22.2115  -54.6829 C.3       21 UNK        -0.1800 
    117 C         -3.5061  -20.4599  -56.1775 C.2       21 UNK         0.5000 
    118 O         -3.3587  -21.0011  -57.2740 O.2       21 UNK        -0.5000 
    119 N         -2.6719  -19.5354  -55.6844 N.am      22 UNK        -0.5000 
    120 CA        -1.5884  -18.8658  -56.4181 C.3       22 UNK         0.1400 
    121 C         -2.0620  -18.0448  -57.6566 C.2       22 UNK         0.5000 
    122 N         -3.3216  -17.6274  -57.7393 N.am      22 UNK        -0.7600 
    123 O         -1.2685  -17.7795  -58.5553 O.2       22 UNK        -0.5000 
    124 C124       -0.7574  -17.9460  -55.4862 C.3       23 UNK        -0.0398 
    125 S125       -0.1119  -18.7768  -53.9926 S.3       23 UNK        -0.2404 
    126 C126        1.6602  -18.8987  -54.3887 C.3       23 UNK        -0.0205 
    127 H127        7.6231  -13.0829  -45.0130 H         1 UNK         0.0600 
    128 H128        7.7558  -12.7949  -46.7501 H         1 UNK         0.0600 
    129 H129        8.5640  -14.1862  -46.0228 H         1 UNK         0.0600 
    130 H130        5.8738  -13.3318  -47.8146 H         1 UNK         0.3000 
    131 H131        4.5486  -15.8705  -47.3898 H         1 UNK         0.0600 
    132 H132        3.4276  -13.6680  -49.1790 H         1 UNK         0.0800 
    133 H133        4.8715  -14.4997  -49.6580 H         1 UNK         0.0800 
    134 H134        4.7677  -16.2791  -51.2868 H         1 UNK         0.0800 
    135 H135        5.0548  -17.2210  -49.8416 H         1 UNK         0.0800 
    136 H136        2.7689  -16.9863  -52.8066 H         1 UNK         0.1150 
    137 H137        2.3902  -21.2374  -53.1868 H         1 UNK         0.1150 
    138 H138        4.5409  -19.5590  -49.8743 H         1 UNK         0.1150 
    139 H139        4.5733  -22.3998  -51.5476 H         1 UNK         0.0800 
    140 H140        4.1985  -21.8939  -49.9195 H         1 UNK         0.0800 
    141 H141        0.2275  -22.0636  -50.4946 H         1 UNK         0.0800 
    142 H142        1.4834  -21.0816  -49.7898 H         1 UNK         0.0800 
    143 H143        0.6120  -23.8005  -48.7064 H         1 UNK         0.0600 
    144 H144        2.8657  -22.1752  -47.9863 H         1 UNK         0.3000 
    145 H145        3.5699  -23.9973  -44.9856 H         1 UNK         0.0600 
    146 H146        5.7074  -23.9622  -46.2407 H         1 UNK         0.0600 
    147 H147        4.5367  -25.0113  -47.0243 H         1 UNK         0.0600 
    148 H148        4.8795  -23.4282  -47.7006 H         1 UNK         0.0600 
    149 H149        3.8583  -21.8921  -44.4328 H         1 UNK         0.3000 
    150 H150        5.2585  -19.3005  -45.3946 H         1 UNK         0.0600 
    151 H151        2.3693  -18.6784  -46.1907 H         1 UNK         0.0600 
    152 H152        3.8056  -18.3207  -47.1397 H         1 UNK         0.0600 
    153 H153        3.5505  -17.5061  -45.6061 H         1 UNK         0.0600 
    154 H154        4.4554  -19.1298  -43.3505 H         1 UNK         0.3000 
    155 H155        3.0653  -20.4235  -41.3825 H         1 UNK         0.0600 
    156 H156        2.4770  -17.5109  -42.1333 H         1 UNK         0.0600 
    157 H157        4.0250  -18.1901  -41.6480 H         1 UNK         0.0600 
    158 H158        2.7248  -18.0699  -40.4822 H         1 UNK         0.0600 
    159 H159        0.9718  -20.6779  -40.7985 H         1 UNK         0.3000 
    160 H160       -1.2953  -20.7756  -41.0311 H         1 UNK         0.0600 
    161 H161       -1.5240  -17.9655  -39.7995 H         1 UNK         0.0600 
    162 H162       -0.6254  -19.3076  -39.1008 H         1 UNK         0.0600 
    163 H163       -2.3733  -19.4031  -39.2340 H         1 UNK         0.0600 
    164 H164       -2.3042  -18.5491  -42.6033 H         1 UNK         0.3000 
    165 H165       -4.5648  -19.9165  -43.8903 H         1 UNK         0.0600 
    166 H166       -6.9059  -19.4667  -43.1779 H         1 UNK         0.0600 
    167 H167       -6.2609  -20.9146  -42.4280 H         1 UNK         0.0600 
    168 H168       -6.3889  -19.4283  -41.4918 H         1 UNK         0.0600 
    169 H169       -5.0420  -17.4356  -42.3062 H         1 UNK         0.3000 
    170 H170       -5.4956  -15.6021  -43.8269 H         1 UNK         0.0600 
    171 H171       -2.4342  -15.3703  -43.6465 H         1 UNK         0.0600 
    172 H172       -3.5403  -14.0112  -43.4620 H         1 UNK         0.0600 
    173 H173       -3.5722  -15.3373  -42.3105 H         1 UNK         0.0600 
    174 H174       -3.6047  -15.7626  -46.1085 H         1 UNK         0.3000 
    175 H175       -5.8572  -15.2869  -48.2653 H         1 UNK         0.0600 
    176 H176       -4.9426  -12.3925  -47.8969 H         1 UNK         0.0600 
    177 H177       -5.3880  -13.1186  -49.4421 H         1 UNK         0.0600 
    178 H178       -6.5805  -12.9630  -48.1637 H         1 UNK         0.0600 
    179 H179       -3.8355  -15.8988  -48.8143 H         1 UNK         0.3000 
    180 H180       -1.6623  -16.2644  -48.5656 H         1 UNK         0.0600 
    181 H181       -0.7573  -13.7779  -50.1193 H         1 UNK         0.0600 
    182 H182       -1.8651  -15.0084  -50.7186 H         1 UNK         0.0600 
    183 H183       -0.1920  -15.4280  -50.3880 H         1 UNK         0.0600 
    184 H184        0.5368  -14.5348  -48.1186 H         1 UNK         0.3000 
    185 H185        0.9591  -13.9184  -45.3728 H         1 UNK         0.0600 
    186 H186        2.1096  -15.5015  -43.8077 H         1 UNK         0.0600 
    187 H187        0.3633  -15.6240  -43.6690 H         1 UNK         0.0600 
    188 H188        1.2588  -16.8560  -44.5470 H         1 UNK         0.0600 
    189 H189        2.2006  -16.0242  -47.0515 H         1 UNK         0.3000 
    190 H190        0.8889  -20.8825  -46.7267 H         1 UNK         0.3000 
    191 H191       -1.9719  -20.2566  -46.8739 H         1 UNK         0.0600 
    192 H192       -0.4859  -18.3934  -46.5661 H         1 UNK         0.0600 
    193 H193       -1.3719  -18.6025  -45.0661 H         1 UNK         0.0600 
    194 H194        0.2888  -19.1217  -45.1737 H         1 UNK         0.0600 
    195 H195        0.2447  -21.7469  -44.4625 H         1 UNK         0.3000 
    196 H196       -1.7037  -22.5851  -42.6085 H         1 UNK         0.0600 
    197 H197        0.0510  -24.2250  -41.9014 H         1 UNK         0.0600 
    198 H198        0.7389  -22.6307  -42.1621 H         1 UNK         0.0600 
    199 H199        0.9649  -23.8927  -43.3679 H         1 UNK         0.0600 
    200 H200       -0.6325  -24.1534  -45.6270 H         1 UNK         0.3000 
    201 H201       -2.3100  -26.4912  -45.3609 H         1 UNK         0.0600 
    202 H202       -1.5858  -26.9157  -47.6863 H         1 UNK         0.0600 
    203 H203       -0.2043  -26.4205  -46.7228 H         1 UNK         0.0600 
    204 H204       -0.9654  -25.2783  -47.8306 H         1 UNK         0.0600 
    205 H205       -3.1754  -23.3014  -45.9040 H         1 UNK         0.3000 
    206 H206       -4.9699  -22.2190  -46.4146 H         1 UNK         0.0600 
    207 H207       -6.2467  -24.0307  -45.2667 H         1 UNK         0.0600 
    208 H208       -7.1797  -23.2540  -46.5348 H         1 UNK         0.0600 
    209 H209       -6.4846  -24.8411  -46.8159 H         1 UNK         0.0600 
    210 H210       -3.2228  -23.6476  -48.6762 H         1 UNK         0.3000 
    211 H211       -4.8355  -23.3789  -51.0696 H         1 UNK         0.0600 
    212 H212       -1.7981  -23.5740  -50.6743 H         1 UNK         0.0600 
    213 H213       -2.6317  -23.6748  -52.2199 H         1 UNK         0.0600 
    214 H214       -2.8950  -24.9120  -51.0014 H         1 UNK         0.0600 
    215 H215       -2.3028  -21.3839  -49.4758 H         1 UNK         0.3000 
    216 H216       -2.7318  -19.1445  -51.3273 H         1 UNK         0.0600 
    217 H217       -1.0076  -18.0042  -50.0491 H         1 UNK         0.0600 
    218 H218       -0.4702  -19.6305  -50.3988 H         1 UNK         0.0600 
    219 H219       -1.0484  -19.2183  -48.7831 H         1 UNK         0.0600 
    220 H220       -4.2578  -20.2536  -48.4417 H         1 UNK         0.3000 
    221 H221       -5.3716  -17.7191  -47.5688 H         1 UNK         0.0600 
    222 H222       -6.5606  -20.4894  -47.0465 H         1 UNK         0.0600 
    223 H223       -5.1763  -19.8752  -46.1502 H         1 UNK         0.0600 
    224 H224       -6.7143  -19.0315  -46.0846 H         1 UNK         0.0600 
    225 H225       -6.4580  -20.4803  -49.5915 H         1 UNK         0.3000 
    226 H226       -8.9017  -19.2620  -50.5153 H         1 UNK         0.0600 
    227 H227       -8.9268  -21.2571  -52.0174 H         1 UNK         0.0600 
    228 H228       -7.2689  -21.6386  -51.5658 H         1 UNK         0.0600 
    229 H229       -8.5567  -21.7287  -50.3660 H         1 UNK         0.0600 
    230 H230       -5.6778  -18.6773  -51.2923 H         1 UNK         0.3000 
    231 H231       -4.5360  -17.5252  -52.7803 H         1 UNK         0.0600 
    232 H232       -7.1826  -16.4355  -53.8663 H         1 UNK         0.0600 
    233 H233       -5.5849  -15.7438  -54.1024 H         1 UNK         0.0600 
    234 H234       -6.2934  -15.7708  -52.4958 H         1 UNK         0.0600 
    235 H235       -4.9335  -20.1960  -53.2961 H         1 UNK         0.3000 
    236 H236       -5.5995  -20.8509  -55.9726 H         1 UNK         0.0600 
    237 H237       -5.4230  -22.4906  -54.0851 H         1 UNK         0.0600 
    238 H238       -4.4301  -22.9748  -55.4519 H         1 UNK         0.0600 
    239 H239       -3.6762  -22.2492  -54.0387 H         1 UNK         0.0600 
    240 H240       -2.8577  -19.1820  -54.7589 H         1 UNK         0.3000 
    241 H241       -0.9281  -19.6486  -56.7955 H         1 UNK         0.0600 
    242 H242       -3.9919  -17.8294  -57.0059 H         1 UNK         0.3800 
    243 H243       -3.6140  -17.0989  -58.5459 H         1 UNK         0.3800 
    244 H244        0.0708  -17.4999  -56.0391 H         1 UNK         0.0800 
    245 H245       -1.3695  -17.1076  -55.1485 H         1 UNK         0.0800 
    246 H246        1.9956  -17.9948  -54.8991 H         1 UNK         0.0800 
    247 H247        1.8215  -19.7247  -55.0830 H         1 UNK         0.0800 
@<TRIPOS>BOND
     1    1    2 1    
     2    1  127 1    
     3    1  128 1    
     4    1  129 1    
     5    2    3 2    
     6    2    4 am   BACKBONE|DICT|INTERRES
     7    4    5 1    
     8    4  130 1    
     9    5    6 1    
    10    5   65 1    
    11    5  131 1    
    12    6    7 1    
    13    6  132 1    
    14    6  133 1    
    15    7    8 1    
    16    8    9 1    
    17    8  134 1    
    18    8  135 1    
    19    9   10 ar   
    20    9   14 ar   
    21   10   11 ar   
    22   10  136 1    
    23   11   12 ar   
    24   11  126 1    
    25   12   13 ar   
    26   12  137 1    
    27   13   14 ar   
    28   13   15 1    
    29   14  138 1    
    30   15   16 1    
    31   15  139 1    
    32   15  140 1    
    33   16   17 1    
    34   17   18 1    
    35   17  141 1    
    36   17  142 1    
    37   18   19 1    
    38   18   67 1    
    39   18  143 1    
    40   19   20 am   BACKBONE|DICT|INTERRES
    41   19  144 1    
    42   20   21 2    
    43   20   22 1    
    44   22   23 1    
    45   22   24 1    
    46   22  145 1    
    47   23  146 1    
    48   23  147 1    
    49   23  148 1    
    50   24   25 am   BACKBONE|DICT|INTERRES
    51   24  149 1    
    52   25   26 2    
    53   25   27 1    
    54   27   28 1    
    55   27   29 1    
    56   27  150 1    
    57   28  151 1    
    58   28  152 1    
    59   28  153 1    
    60   29   30 am   BACKBONE|DICT|INTERRES
    61   29  154 1    
    62   30   31 2    
    63   30   32 1    
    64   32   33 1    
    65   32   34 1    
    66   32  155 1    
    67   33  156 1    
    68   33  157 1    
    69   33  158 1    
    70   34   35 am   BACKBONE|DICT|INTERRES
    71   34  159 1    
    72   35   36 2    
    73   35   37 1    
    74   37   38 1    
    75   37   39 1    
    76   37  160 1    
    77   38  161 1    
    78   38  162 1    
    79   38  163 1    
    80   39   40 am   BACKBONE|DICT|INTERRES
    81   39  164 1    
    82   40   41 2    
    83   40   42 1    
    84   42   43 1    
    85   42   44 1    
    86   42  165 1    
    87   43  166 1    
    88   43  167 1    
    89   43  168 1    
    90   44   45 am   BACKBONE|DICT|INTERRES
    91   44  169 1    
    92   45   46 2    
    93   45   47 1    
    94   47   48 1    
    95   47   49 1    
    96   47  170 1    
    97   48  171 1    
    98   48  172 1    
    99   48  173 1    
   100   49   50 am   BACKBONE|DICT|INTERRES
   101   49  174 1    
   102   50   51 2    
   103   50   52 1    
   104   52   53 1    
   105   52   54 1    
   106   52  175 1    
   107   53  176 1    
   108   53  177 1    
   109   53  178 1    
   110   54   55 am   BACKBONE|DICT|INTERRES
   111   54  179 1    
   112   55   56 2    
   113   55   57 1    
   114   57   58 1    
   115   57   59 1    
   116   57  180 1    
   117   58  181 1    
   118   58  182 1    
   119   58  183 1    
   120   59   60 am   BACKBONE|DICT|INTERRES
   121   59  184 1    
   122   60   61 2    
   123   60   62 1    
   124   62   63 1    
   125   62   64 1    
   126   62  185 1    
   127   63  186 1    
   128   63  187 1    
   129   63  188 1    
   130   64   65 am   BACKBONE|DICT|INTERRES
   131   64  189 1    
   132   65   66 2    
   133   67   68 2    
   134   67   69 am   BACKBONE|DICT|INTERRES
   135   69   70 1    
   136   69  190 1    
   137   70   71 1    
   138   70   72 1    
   139   70  191 1    
   140   71  192 1    
   141   71  193 1    
   142   71  194 1    
   143   72   73 2    
   144   72   74 am   BACKBONE|DICT|INTERRES
   145   74   75 1    
   146   74  195 1    
   147   75   76 1    
   148   75   77 1    
   149   75  196 1    
   150   76  197 1    
   151   76  198 1    
   152   76  199 1    
   153   77   78 2    
   154   77   79 am   BACKBONE|DICT|INTERRES
   155   79   80 1    
   156   79  200 1    
   157   80   81 1    
   158   80   82 1    
   159   80  201 1    
   160   81  202 1    
   161   81  203 1    
   162   81  204 1    
   163   82   83 2    
   164   82   84 am   BACKBONE|DICT|INTERRES
   165   84   85 1    
   166   84  205 1    
   167   85   86 1    
   168   85   87 1    
   169   85  206 1    
   170   86  207 1    
   171   86  208 1    
   172   86  209 1    
   173   87   88 2    
   174   87   89 am   BACKBONE|DICT|INTERRES
   175   89   90 1    
   176   89  210 1    
   177   90   91 1    
   178   90   92 1    
   179   90  211 1    
   180   91  212 1    
   181   91  213 1    
   182   91  214 1    
   183   92   93 2    
   184   92   94 am   BACKBONE|DICT|INTERRES
   185   94   95 1    
   186   94  215 1    
   187   95   96 1    
   188   95   97 1    
   189   95  216 1    
   190   96  217 1    
   191   96  218 1    
   192   96  219 1    
   193   97   98 2    
   194   97   99 am   BACKBONE|DICT|INTERRES
   195   99  100 1    
   196   99  220 1    
   197  100  101 1    
   198  100  102 1    
   199  100  221 1    
   200  101  222 1    
   201  101  223 1    
   202  101  224 1    
   203  102  103 2    
   204  102  104 am   BACKBONE|DICT|INTERRES
   205  104  105 1    
   206  104  225 1    
   207  105  106 1    
   208  105  107 1    
   209  105  226 1    
   210  106  227 1    
   211  106  228 1    
   212  106  229 1    
   213  107  108 2    
   214  107  109 am   BACKBONE|DICT|INTERRES
   215  109  110 1    
   216  109  230 1    
   217  110  111 1    
   218  110  112 1    
   219  110  231 1    
   220  111  232 1    
   221  111  233 1    
   222  111  234 1    
   223  112  113 2    
   224  112  114 am   BACKBONE|DICT|INTERRES
   225  114  115 1    
   226  114  235 1    
   227  115  116 1    
   228  115  117 1    
   229  115  236 1    
   230  116  237 1    
   231  116  238 1    
   232  116  239 1    
   233  117  118 2    
   234  117  119 am   BACKBONE|DICT|INTERRES
   235  119  120 1    
   236  119  240 1    
   237  120  121 1    
   238  120  124 1    
   239  120  241 1    
   240  121  122 am   BACKBONE|DICT|INTERRES
   241  121  123 2    
   242  122  242 1    
   243  122  243 1    
   244  124  125 1    
   245  124  244 1    
   246  124  245 1    
   247  125  126 1    
   248  126  246 1    
   249  126  247 1    
@<TRIPOS>SUBSTRUCTURE
     1 UNK         1 GROUP             0       ****    0 ROOT    
