@<TRIPOS>MOLECULE
3R540
247   249    1
SMALL
USER_CHARGES


@<TRIPOS>ATOM
      1 CA          6.6351   -8.9087  -50.0199 C.3       0 UNK        -0.1800 
      2 C           6.7536  -10.4193  -49.8713 C.2       0 UNK         0.5000 
      3 O           7.8516  -10.9628  -49.9981 O.2       0 UNK        -0.5000 
      4 N           5.6288  -11.0976  -49.6121 N.am      1 UNK        -0.5000 
      5 CA          5.5591  -12.5419  -49.3673 C.3       1 UNK         0.1400 
      6 C6          4.1195  -13.0781  -49.5810 C.3       23 UNK        -0.0398 
      7 S7          4.0881  -14.8106  -50.1614 S.3       23 UNK        -0.2404 
      8 C8          3.1739  -15.6474  -48.8273 C.3       23 UNK        -0.0205 
      9 C9          2.5776  -16.9613  -49.3073 C.ar      23 UNK        -0.0193 
     10 C10         1.4996  -16.9411  -50.1952 C.ar      23 UNK        -0.1150 
     11 C11         0.9185  -18.1295  -50.6409 C.ar      23 UNK        -0.0193 
     12 C12         1.4221  -19.3509  -50.1842 C.ar      23 UNK        -0.1150 
     13 C13         2.5106  -19.3908  -49.3053 C.ar      23 UNK        -0.0193 
     14 C14         3.0864  -18.1899  -48.8715 C.ar      23 UNK        -0.1150 
     15 C15         3.0737  -20.7391  -48.8620 C.3       23 UNK        -0.0205 
     16 S16         3.1882  -20.9500  -47.0509 S.3       23 UNK        -0.2404 
     17 C17         1.4895  -20.5911  -46.4963 C.3       23 UNK        -0.0398 
     18 CA          0.5988  -21.8399  -46.2865 C.3       11 UNK         0.1400 
     19 N          -0.5442  -21.5264  -45.4261 N.am      11 UNK        -0.5000 
     20 C          -1.4752  -22.3925  -45.0057 C.2       10 UNK         0.5000 
     21 O          -1.4339  -23.6033  -45.2250 O.2       10 UNK        -0.5000 
     22 CA         -2.6790  -21.7920  -44.2550 C.3       10 UNK         0.1400 
     23 CB         -2.3636  -21.6091  -42.7630 C.3       10 UNK        -0.1800 
     24 N          -3.1129  -20.5139  -44.8263 N.am      10 UNK        -0.5000 
     25 C          -3.6989  -20.3848  -46.0257 C.2       9 UNK         0.5000 
     26 O          -3.9566  -21.3357  -46.7616 O.2       9 UNK        -0.5000 
     27 CA         -4.0017  -18.9511  -46.5040 C.3       9 UNK         0.1400 
     28 CB         -5.2368  -18.3870  -45.7853 C.3       9 UNK        -0.1800 
     29 N          -2.8739  -18.0387  -46.3124 N.am      9 UNK        -0.5000 
     30 C          -1.6589  -18.2040  -46.8556 C.2       8 UNK         0.5000 
     31 O          -1.3819  -19.1069  -47.6395 O.2       8 UNK        -0.5000 
     32 CA         -0.5453  -17.2533  -46.3850 C.3       8 UNK         0.1400 
     33 CB         -0.5416  -15.9651  -47.2176 C.3       8 UNK        -0.1800 
     34 N          -0.6552  -16.9230  -44.9648 N.am      8 UNK        -0.5000 
     35 C          -0.6067  -17.7960  -43.9497 C.2       7 UNK         0.5000 
     36 O          -0.4103  -19.0007  -44.0987 O.2       7 UNK        -0.5000 
     37 CA         -0.8744  -17.2415  -42.5405 C.3       7 UNK         0.1400 
     38 CB          0.4116  -16.7130  -41.8881 C.3       7 UNK        -0.1800 
     39 N          -1.8749  -16.1761  -42.5676 N.am      7 UNK        -0.5000 
     40 C          -3.1978  -16.3780  -42.5562 C.2       6 UNK         0.5000 
     41 O          -3.7172  -17.4906  -42.4655 O.2       6 UNK        -0.5000 
     42 CA         -4.0910  -15.1276  -42.6801 C.3       6 UNK         0.1400 
     43 CB         -4.3689  -14.5264  -41.2942 C.3       6 UNK        -0.1800 
     44 N          -3.5261  -14.0908  -43.5486 N.am      6 UNK        -0.5000 
     45 C          -3.3963  -14.2101  -44.8768 C.2       5 UNK         0.5000 
     46 O          -3.7301  -15.2150  -45.5061 O.2       5 UNK        -0.5000 
     47 CA         -2.7547  -13.0222  -45.6267 C.3       5 UNK         0.1400 
     48 CB         -3.8039  -11.9304  -45.8862 C.3       5 UNK        -0.1800 
     49 N          -1.5693  -12.4129  -45.0012 N.am      5 UNK        -0.5000 
     50 C          -0.5167  -13.0635  -44.4863 C.2       4 UNK         0.5000 
     51 O          -0.4935  -14.2784  -44.2952 O.2       4 UNK        -0.5000 
     52 CA          0.7120  -12.2253  -44.0883 C.3       4 UNK         0.1400 
     53 CB          0.4774  -11.5434  -42.7316 C.3       4 UNK        -0.1800 
     54 N           1.8982  -13.0802  -43.9855 N.am      4 UNK        -0.5000 
     55 C           2.5720  -13.5795  -45.0295 C.2       3 UNK         0.5000 
     56 O           2.3929  -13.2350  -46.2007 O.2       3 UNK        -0.5000 
     57 CA          3.5913  -14.6820  -44.7131 C.3       3 UNK         0.1400 
     58 CB          2.9456  -16.0734  -44.8369 C.3       3 UNK        -0.1800 
     59 N           4.6979  -14.5924  -45.6553 N.am      3 UNK        -0.5000 
     60 C           5.9797  -14.8596  -45.3837 C.2       2 UNK         0.5000 
     61 O           6.3762  -15.2121  -44.2718 O.2       2 UNK        -0.5000 
     62 CA          6.9984  -14.7384  -46.5393 C.3       2 UNK         0.1400 
     63 CB          7.6055  -16.1133  -46.8645 C.3       2 UNK        -0.1800 
     64 N           6.4564  -14.1743  -47.7794 N.am      2 UNK        -0.5000 
     65 C           6.1003  -12.8978  -47.9644 C.2       1 UNK         0.5000 
     66 O           6.1586  -12.0405  -47.0789 O.2       1 UNK        -0.5000 
     67 C           0.1342  -22.4431  -47.6283 C.2       11 UNK         0.5000 
     68 O           0.5895  -23.5210  -48.0063 O.2       11 UNK        -0.5000 
     69 N          -0.8033  -21.7600  -48.2958 N.am      12 UNK        -0.5000 
     70 CA         -1.4111  -22.1711  -49.5570 C.3       12 UNK         0.1400 
     71 CB         -2.2515  -21.0122  -50.0925 C.3       12 UNK        -0.1800 
     72 C          -2.2561  -23.4497  -49.4404 C.2       12 UNK         0.5000 
     73 O          -2.2405  -24.2639  -50.3661 O.2       12 UNK        -0.5000 
     74 N          -2.9468  -23.6262  -48.3037 N.am      13 UNK        -0.5000 
     75 CA         -3.6793  -24.8452  -47.9589 C.3       13 UNK         0.1400 
     76 CB         -4.4584  -24.6519  -46.6484 C.3       13 UNK        -0.1800 
     77 C          -2.7507  -26.0672  -47.8508 C.2       13 UNK         0.5000 
     78 O          -3.0724  -27.1239  -48.3924 O.2       13 UNK        -0.5000 
     79 N          -1.6022  -25.8918  -47.1852 N.am      14 UNK        -0.5000 
     80 CA         -0.5670  -26.9156  -47.0600 C.3       14 UNK         0.1400 
     81 CB          0.4338  -26.4967  -45.9718 C.3       14 UNK        -0.1800 
     82 C           0.1540  -27.1958  -48.3922 C.2       14 UNK         0.5000 
     83 O           0.4081  -28.3581  -48.7109 O.2       14 UNK        -0.5000 
     84 N           0.4804  -26.1301  -49.1350 N.am      15 UNK        -0.5000 
     85 CA          1.2631  -26.1905  -50.3669 C.3       15 UNK         0.1400 
     86 CB          1.8109  -24.7923  -50.6961 C.3       15 UNK        -0.1800 
     87 C           0.4950  -26.7587  -51.5722 C.2       15 UNK         0.5000 
     88 O           1.0598  -27.5727  -52.3050 O.2       15 UNK        -0.5000 
     89 N          -0.7445  -26.2967  -51.7899 N.am      16 UNK        -0.5000 
     90 CA         -1.4729  -26.5197  -53.0438 C.3       16 UNK         0.1400 
     91 CB         -1.1677  -25.3495  -53.9994 C.3       16 UNK        -0.1800 
     92 C          -2.9896  -26.7071  -52.8633 C.2       16 UNK         0.5000 
     93 O          -3.7021  -26.7535  -53.8669 O.2       16 UNK        -0.5000 
     94 N          -3.4705  -26.7864  -51.6129 N.am      17 UNK        -0.5000 
     95 CA         -4.8876  -26.8433  -51.2190 C.3       17 UNK         0.1400 
     96 CB         -5.5704  -28.1204  -51.7522 C.3       17 UNK        -0.1800 
     97 C          -5.6817  -25.5606  -51.5570 C.2       17 UNK         0.5000 
     98 O          -6.9133  -25.5787  -51.5344 O.2       17 UNK        -0.5000 
     99 N          -4.9773  -24.4523  -51.8224 N.am      18 UNK        -0.5000 
    100 CA        -5.5371  -23.1496  -52.1846 C.3       18 UNK         0.1400 
    101 CB        -4.5762  -22.4540  -53.1643 C.3       18 UNK        -0.1800 
    102 C         -5.8431  -22.3163  -50.9251 C.2       18 UNK         0.5000 
    103 O         -5.3764  -21.1845  -50.7883 O.2       18 UNK        -0.5000 
    104 N         -6.6200  -22.9165  -50.0137 N.am      19 UNK        -0.5000 
    105 CA        -6.9389  -22.4049  -48.6790 C.3       19 UNK         0.1400 
    106 CB        -7.7210  -23.4835  -47.9142 C.3       19 UNK        -0.1800 
    107 C         -7.7108  -21.0731  -48.6627 C.2       19 UNK         0.5000 
    108 O         -7.6546  -20.3533  -47.6652 O.2       19 UNK        -0.5000 
    109 N         -8.3988  -20.7493  -49.7647 N.am      20 UNK        -0.5000 
    110 CA        -9.1181  -19.4956  -49.9881 C.3       20 UNK         0.1400 
    111 CB       -10.1560  -19.7194  -51.1027 C.3       20 UNK        -0.1800 
    112 C         -8.1553  -18.3270  -50.2954 C.2       20 UNK         0.5000 
    113 O         -8.2319  -17.7311  -51.3714 O.2       20 UNK        -0.5000 
    114 N         -7.2475  -18.0441  -49.3494 N.am      21 UNK        -0.5000 
    115 CA        -6.2570  -16.9606  -49.3450 C.3       21 UNK         0.1400 
    116 CB        -6.9506  -15.6191  -49.0337 C.3       21 UNK        -0.1800 
    117 C         -5.3917  -16.9111  -50.6220 C.2       21 UNK         0.5000 
    118 O         -5.2393  -15.8458  -51.2224 O.2       21 UNK        -0.5000 
    119 N         -4.8734  -18.0800  -51.0226 N.am      22 UNK        -0.5000 
    120 CA        -4.0866  -18.3142  -52.2473 C.3       22 UNK         0.1400 
    121 C         -4.9309  -18.3583  -53.5579 C.2       22 UNK         0.5000 
    122 N         -6.2540  -18.2492  -53.5208 N.am      22 UNK        -0.7600 
    123 O         -4.3757  -18.5292  -54.6398 O.2       22 UNK        -0.5000 
    124 C124       -2.8392  -17.3915  -52.3997 C.3       23 UNK        -0.0398 
    125 S125       -1.7382  -17.3749  -50.9412 S.3       23 UNK        -0.2404 
    126 C126       -0.2191  -18.0840  -51.6507 C.3       23 UNK        -0.0205 
    127 H127        6.9778   -8.6004  -51.0076 H         1 UNK         0.0600 
    128 H128        7.2515   -8.4091  -49.2724 H         1 UNK         0.0600 
    129 H129        5.6069   -8.5680  -49.8952 H         1 UNK         0.0600 
    130 H130        4.7666  -10.5877  -49.4839 H         1 UNK         0.3000 
    131 H131        6.2143  -13.0163  -50.1019 H         1 UNK         0.0600 
    132 H132        3.6210  -12.4989  -50.3599 H         1 UNK         0.0800 
    133 H133        3.5038  -12.9487  -48.6892 H         1 UNK         0.0800 
    134 H134        3.8432  -15.8179  -47.9847 H         1 UNK         0.0800 
    135 H135        2.3669  -15.0080  -48.4661 H         1 UNK         0.0800 
    136 H136        1.1127  -15.9941  -50.5449 H         1 UNK         0.1150 
    137 H137        0.9776  -20.2732  -50.5302 H         1 UNK         0.1150 
    138 H138        3.9281  -18.2150  -48.1937 H         1 UNK         0.1150 
    139 H139        2.4794  -21.5583  -49.2696 H         1 UNK         0.0800 
    140 H140        4.0718  -20.8526  -49.2868 H         1 UNK         0.0800 
    141 H141        1.0196  -19.8816  -47.1735 H         1 UNK         0.0800 
    142 H142        1.5958  -20.0593  -45.5501 H         1 UNK         0.0800 
    143 H143        1.1848  -22.5998  -45.7654 H         1 UNK         0.0600 
    144 H144       -0.6335  -20.5572  -45.1326 H         1 UNK         0.3000 
    145 H145       -3.5080  -22.4977  -44.3396 H         1 UNK         0.0600 
    146 H146       -3.2314  -21.2344  -42.2199 H         1 UNK         0.0600 
    147 H147       -2.0793  -22.5584  -42.3071 H         1 UNK         0.0600 
    148 H148       -1.5419  -20.9108  -42.6032 H         1 UNK         0.0600 
    149 H149       -2.8986  -19.6809  -44.2969 H         1 UNK         0.3000 
    150 H150       -4.2136  -18.9983  -47.5741 H         1 UNK         0.0600 
    151 H151       -6.1044  -19.0295  -45.9350 H         1 UNK         0.0600 
    152 H152       -5.4963  -17.3953  -46.1552 H         1 UNK         0.0600 
    153 H153       -5.0744  -18.3049  -44.7104 H         1 UNK         0.0600 
    154 H154       -3.0336  -17.2297  -45.7230 H         1 UNK         0.3000 
    155 H155        0.4141  -17.7502  -46.5337 H         1 UNK         0.0600 
    156 H156       -0.4071  -16.1882  -48.2756 H         1 UNK         0.0600 
    157 H157        0.2665  -15.2982  -46.9168 H         1 UNK         0.0600 
    158 H158       -1.4817  -15.4256  -47.1200 H         1 UNK         0.0600 
    159 H159       -0.7560  -15.9343  -44.7392 H         1 UNK         0.3000 
    160 H160       -1.2413  -18.0689  -41.9290 H         1 UNK         0.0600 
    161 H161        0.7549  -15.7912  -42.3567 H         1 UNK         0.0600 
    162 H162        1.2185  -17.4441  -41.9551 H         1 UNK         0.0600 
    163 H163        0.2513  -16.5026  -40.8307 H         1 UNK         0.0600 
    164 H164       -1.5292  -15.2412  -42.7457 H         1 UNK         0.3000 
    165 H165       -5.0435  -15.4464  -43.1091 H         1 UNK         0.0600 
    166 H166       -5.0677  -13.6922  -41.3590 H         1 UNK         0.0600 
    167 H167       -4.8114  -15.2685  -40.6283 H         1 UNK         0.0600 
    168 H168       -3.4551  -14.1642  -40.8214 H         1 UNK         0.0600 
    169 H169       -3.2105  -13.2403  -43.1060 H         1 UNK         0.3000 
    170 H170       -2.4314  -13.3981  -46.5981 H         1 UNK         0.0600 
    171 H171       -4.6906  -12.3449  -46.3682 H         1 UNK         0.0600 
    172 H172       -4.1261  -11.4539  -44.9595 H         1 UNK         0.0600 
    173 H173       -3.4130  -11.1545  -46.5447 H         1 UNK         0.0600 
    174 H174       -1.5082  -11.4082  -45.0815 H         1 UNK         0.3000 
    175 H175        0.8828  -11.4625  -44.8508 H         1 UNK         0.0600 
    176 H176        0.2839  -12.2714  -41.9423 H         1 UNK         0.0600 
    177 H177        1.3422  -10.9495  -42.4349 H         1 UNK         0.0600 
    178 H178       -0.3785  -10.8687  -42.7726 H         1 UNK         0.0600 
    179 H179        2.0920  -13.4482  -43.0661 H         1 UNK         0.3000 
    180 H180        3.9541  -14.5372  -43.6932 H         1 UNK         0.0600 
    181 H181        3.6540  -16.8634  -44.5877 H         1 UNK         0.0600 
    182 H182        2.5774  -16.2601  -45.8463 H         1 UNK         0.0600 
    183 H183        2.0979  -16.1728  -44.1628 H         1 UNK         0.0600 
    184 H184        4.4528  -14.2218  -46.5623 H         1 UNK         0.3000 
    185 H185        7.8007  -14.0843  -46.1916 H         1 UNK         0.0600 
    186 H186        8.0690  -16.5581  -45.9829 H         1 UNK         0.0600 
    187 H187        6.8481  -16.8112  -47.2242 H         1 UNK         0.0600 
    188 H188        8.3796  -16.0333  -47.6281 H         1 UNK         0.0600 
    189 H189        6.3592  -14.8186  -48.5519 H         1 UNK         0.3000 
    190 H190       -1.1039  -20.8553  -47.9346 H         1 UNK         0.3000 
    191 H191       -0.6064  -22.3652  -50.2678 H         1 UNK         0.0600 
    192 H192       -1.6487  -20.1126  -50.1809 H         1 UNK         0.0600 
    193 H193       -2.6469  -21.2356  -51.0801 H         1 UNK         0.0600 
    194 H194       -3.0907  -20.7826  -49.4349 H         1 UNK         0.0600 
    195 H195       -2.9727  -22.8704  -47.6268 H         1 UNK         0.3000 
    196 H196       -4.4010  -25.0272  -48.7559 H         1 UNK         0.0600 
    197 H197       -5.1086  -25.5062  -46.4570 H         1 UNK         0.0600 
    198 H198       -5.0885  -23.7657  -46.6785 H         1 UNK         0.0600 
    199 H199       -3.7953  -24.5529  -45.7903 H         1 UNK         0.0600 
    200 H200       -1.4236  -24.9987  -46.7369 H         1 UNK         0.3000 
    201 H201       -1.0442  -27.8437  -46.7382 H         1 UNK         0.0600 
    202 H202       -0.0629  -26.3668  -45.0101 H         1 UNK         0.0600 
    203 H203        0.9303  -25.5577  -46.2185 H         1 UNK         0.0600 
    204 H204        1.2077  -27.2538  -45.8401 H         1 UNK         0.0600 
    205 H205        0.2967  -25.2020  -48.7609 H         1 UNK         0.3000 
    206 H206        2.1193  -26.8442  -50.1866 H         1 UNK         0.0600 
    207 H207        2.4451  -24.4178  -49.8924 H         1 UNK         0.0600 
    208 H208        2.4154  -24.8117  -51.6037 H         1 UNK         0.0600 
    209 H209        1.0077  -24.0720  -50.8520 H         1 UNK         0.0600 
    210 H210       -1.1425  -25.6094  -51.1544 H         1 UNK         0.3000 
    211 H211       -1.1279  -27.4424  -53.5143 H         1 UNK         0.0600 
    212 H212       -1.5146  -24.4004  -53.5887 H         1 UNK         0.0600 
    213 H213       -1.6521  -25.4870  -54.9669 H         1 UNK         0.0600 
    214 H214       -0.0977  -25.2611  -54.1881 H         1 UNK         0.0600 
    215 H215       -2.8123  -26.7489  -50.8461 H         1 UNK         0.3000 
    216 H216       -4.9041  -26.9148  -50.1335 H         1 UNK         0.0600 
    217 H217       -6.5584  -28.2483  -51.3084 H         1 UNK         0.0600 
    218 H218       -4.9898  -29.0095  -51.5065 H         1 UNK         0.0600 
    219 H219       -5.7041  -28.0932  -52.8336 H         1 UNK         0.0600 
    220 H220       -3.9709  -24.4959  -51.7197 H         1 UNK         0.3000 
    221 H221       -6.4855  -23.2915  -52.7070 H         1 UNK         0.0600 
    222 H222       -3.5713  -22.3661  -52.7552 H         1 UNK         0.0600 
    223 H223       -4.5006  -23.0152  -54.0958 H         1 UNK         0.0600 
    224 H224       -4.9250  -21.4528  -53.4196 H         1 UNK         0.0600 
    225 H225       -6.9704  -23.8396  -50.2399 H         1 UNK         0.3000 
    226 H226       -5.9922  -22.2290  -48.1679 H         1 UNK         0.0600 
    227 H227       -7.1732  -24.4251  -47.8807 H         1 UNK         0.0600 
    228 H228       -7.9028  -23.1765  -46.8833 H         1 UNK         0.0600 
    229 H229       -8.6899  -23.6785  -48.3756 H         1 UNK         0.0600 
    230 H230       -8.3613  -21.3887  -50.5442 H         1 UNK         0.3000 
    231 H231       -9.6610  -19.2352  -49.0771 H         1 UNK         0.0600 
    232 H232       -9.6821  -19.9942  -52.0460 H         1 UNK         0.0600 
    233 H233      -10.7420  -18.8165  -51.2791 H         1 UNK         0.0600 
    234 H234      -10.8563  -20.5112  -50.8360 H         1 UNK         0.0600 
    235 H235       -7.2517  -18.6465  -48.5312 H         1 UNK         0.3000 
    236 H236       -5.5674  -17.1691  -48.5276 H         1 UNK         0.0600 
    237 H237       -7.5063  -15.6716  -48.0975 H         1 UNK         0.0600 
    238 H238       -6.2211  -14.8148  -48.9308 H         1 UNK         0.0600 
    239 H239       -7.6476  -15.3339  -49.8225 H         1 UNK         0.0600 
    240 H240       -5.1032  -18.9210  -50.5079 H         1 UNK         0.3000 
    241 H241       -3.7113  -19.3313  -52.1391 H         1 UNK         0.0600 
    242 H242       -6.7505  -18.0770  -52.6531 H         1 UNK         0.3800 
    243 H243       -6.7720  -18.2918  -54.3836 H         1 UNK         0.3800 
    244 H244       -2.2578  -17.6975  -53.2706 H         1 UNK         0.0800 
    245 H245       -3.1418  -16.3645  -52.6050 H         1 UNK         0.0800 
    246 H246        0.0941  -17.4823  -52.5052 H         1 UNK         0.0800 
    247 H247       -0.4332  -19.0817  -52.0365 H         1 UNK         0.0800 
@<TRIPOS>BOND
     1    1    2 1    
     2    1  127 1    
     3    1  128 1    
     4    1  129 1    
     5    2    3 2    
     6    2    4 am   BACKBONE|DICT|INTERRES
     7    4    5 1    
     8    4  130 1    
     9    5    6 1    
    10    5   65 1    
    11    5  131 1    
    12    6    7 1    
    13    6  132 1    
    14    6  133 1    
    15    7    8 1    
    16    8    9 1    
    17    8  134 1    
    18    8  135 1    
    19    9   10 ar   
    20    9   14 ar   
    21   10   11 ar   
    22   10  136 1    
    23   11   12 ar   
    24   11  126 1    
    25   12   13 ar   
    26   12  137 1    
    27   13   14 ar   
    28   13   15 1    
    29   14  138 1    
    30   15   16 1    
    31   15  139 1    
    32   15  140 1    
    33   16   17 1    
    34   17   18 1    
    35   17  141 1    
    36   17  142 1    
    37   18   19 1    
    38   18   67 1    
    39   18  143 1    
    40   19   20 am   BACKBONE|DICT|INTERRES
    41   19  144 1    
    42   20   21 2    
    43   20   22 1    
    44   22   23 1    
    45   22   24 1    
    46   22  145 1    
    47   23  146 1    
    48   23  147 1    
    49   23  148 1    
    50   24   25 am   BACKBONE|DICT|INTERRES
    51   24  149 1    
    52   25   26 2    
    53   25   27 1    
    54   27   28 1    
    55   27   29 1    
    56   27  150 1    
    57   28  151 1    
    58   28  152 1    
    59   28  153 1    
    60   29   30 am   BACKBONE|DICT|INTERRES
    61   29  154 1    
    62   30   31 2    
    63   30   32 1    
    64   32   33 1    
    65   32   34 1    
    66   32  155 1    
    67   33  156 1    
    68   33  157 1    
    69   33  158 1    
    70   34   35 am   BACKBONE|DICT|INTERRES
    71   34  159 1    
    72   35   36 2    
    73   35   37 1    
    74   37   38 1    
    75   37   39 1    
    76   37  160 1    
    77   38  161 1    
    78   38  162 1    
    79   38  163 1    
    80   39   40 am   BACKBONE|DICT|INTERRES
    81   39  164 1    
    82   40   41 2    
    83   40   42 1    
    84   42   43 1    
    85   42   44 1    
    86   42  165 1    
    87   43  166 1    
    88   43  167 1    
    89   43  168 1    
    90   44   45 am   BACKBONE|DICT|INTERRES
    91   44  169 1    
    92   45   46 2    
    93   45   47 1    
    94   47   48 1    
    95   47   49 1    
    96   47  170 1    
    97   48  171 1    
    98   48  172 1    
    99   48  173 1    
   100   49   50 am   BACKBONE|DICT|INTERRES
   101   49  174 1    
   102   50   51 2    
   103   50   52 1    
   104   52   53 1    
   105   52   54 1    
   106   52  175 1    
   107   53  176 1    
   108   53  177 1    
   109   53  178 1    
   110   54   55 am   BACKBONE|DICT|INTERRES
   111   54  179 1    
   112   55   56 2    
   113   55   57 1    
   114   57   58 1    
   115   57   59 1    
   116   57  180 1    
   117   58  181 1    
   118   58  182 1    
   119   58  183 1    
   120   59   60 am   BACKBONE|DICT|INTERRES
   121   59  184 1    
   122   60   61 2    
   123   60   62 1    
   124   62   63 1    
   125   62   64 1    
   126   62  185 1    
   127   63  186 1    
   128   63  187 1    
   129   63  188 1    
   130   64   65 am   BACKBONE|DICT|INTERRES
   131   64  189 1    
   132   65   66 2    
   133   67   68 2    
   134   67   69 am   BACKBONE|DICT|INTERRES
   135   69   70 1    
   136   69  190 1    
   137   70   71 1    
   138   70   72 1    
   139   70  191 1    
   140   71  192 1    
   141   71  193 1    
   142   71  194 1    
   143   72   73 2    
   144   72   74 am   BACKBONE|DICT|INTERRES
   145   74   75 1    
   146   74  195 1    
   147   75   76 1    
   148   75   77 1    
   149   75  196 1    
   150   76  197 1    
   151   76  198 1    
   152   76  199 1    
   153   77   78 2    
   154   77   79 am   BACKBONE|DICT|INTERRES
   155   79   80 1    
   156   79  200 1    
   157   80   81 1    
   158   80   82 1    
   159   80  201 1    
   160   81  202 1    
   161   81  203 1    
   162   81  204 1    
   163   82   83 2    
   164   82   84 am   BACKBONE|DICT|INTERRES
   165   84   85 1    
   166   84  205 1    
   167   85   86 1    
   168   85   87 1    
   169   85  206 1    
   170   86  207 1    
   171   86  208 1    
   172   86  209 1    
   173   87   88 2    
   174   87   89 am   BACKBONE|DICT|INTERRES
   175   89   90 1    
   176   89  210 1    
   177   90   91 1    
   178   90   92 1    
   179   90  211 1    
   180   91  212 1    
   181   91  213 1    
   182   91  214 1    
   183   92   93 2    
   184   92   94 am   BACKBONE|DICT|INTERRES
   185   94   95 1    
   186   94  215 1    
   187   95   96 1    
   188   95   97 1    
   189   95  216 1    
   190   96  217 1    
   191   96  218 1    
   192   96  219 1    
   193   97   98 2    
   194   97   99 am   BACKBONE|DICT|INTERRES
   195   99  100 1    
   196   99  220 1    
   197  100  101 1    
   198  100  102 1    
   199  100  221 1    
   200  101  222 1    
   201  101  223 1    
   202  101  224 1    
   203  102  103 2    
   204  102  104 am   BACKBONE|DICT|INTERRES
   205  104  105 1    
   206  104  225 1    
   207  105  106 1    
   208  105  107 1    
   209  105  226 1    
   210  106  227 1    
   211  106  228 1    
   212  106  229 1    
   213  107  108 2    
   214  107  109 am   BACKBONE|DICT|INTERRES
   215  109  110 1    
   216  109  230 1    
   217  110  111 1    
   218  110  112 1    
   219  110  231 1    
   220  111  232 1    
   221  111  233 1    
   222  111  234 1    
   223  112  113 2    
   224  112  114 am   BACKBONE|DICT|INTERRES
   225  114  115 1    
   226  114  235 1    
   227  115  116 1    
   228  115  117 1    
   229  115  236 1    
   230  116  237 1    
   231  116  238 1    
   232  116  239 1    
   233  117  118 2    
   234  117  119 am   BACKBONE|DICT|INTERRES
   235  119  120 1    
   236  119  240 1    
   237  120  121 1    
   238  120  124 1    
   239  120  241 1    
   240  121  122 am   BACKBONE|DICT|INTERRES
   241  121  123 2    
   242  122  242 1    
   243  122  243 1    
   244  124  125 1    
   245  124  244 1    
   246  124  245 1    
   247  125  126 1    
   248  126  246 1    
   249  126  247 1    
@<TRIPOS>SUBSTRUCTURE
     1 UNK         1 GROUP             0       ****    0 ROOT    
