@<TRIPOS>MOLECULE
3R540
247   249    1
SMALL
USER_CHARGES


@<TRIPOS>ATOM
      1 CA         -0.7468   -8.0839  -45.7015 C.3       0 UNK        -0.1800 
      2 C          -0.6148   -9.5979  -45.6162 C.2       0 UNK         0.5000 
      3 O          -1.4621  -10.2502  -45.0070 O.2       0 UNK        -0.5000 
      4 N           0.4492  -10.1509  -46.2169 N.am      1 UNK        -0.5000 
      5 CA          0.7647  -11.5875  -46.2899 C.3       1 UNK         0.1400 
      6 C6         -0.2808  -12.4146  -47.0846 C.3       23 UNK        -0.0398 
      7 S7         -0.4330  -11.8659  -48.8196 S.3       23 UNK        -0.2404 
      8 C8          0.0509  -13.3705  -49.7398 C.3       23 UNK        -0.0205 
      9 C9         -0.8095  -14.6079  -49.4744 C.ar      23 UNK        -0.0193 
     10 C10        -2.1404  -14.5142  -49.0503 C.ar      23 UNK        -0.1150 
     11 C11        -2.9018  -15.6607  -48.8143 C.ar      23 UNK        -0.0193 
     12 C12        -2.3290  -16.9195  -49.0152 C.ar      23 UNK        -0.1150 
     13 C13        -1.0076  -17.0325  -49.4597 C.ar      23 UNK        -0.0193 
     14 C14        -0.2569  -15.8748  -49.6851 C.ar      23 UNK        -0.1150 
     15 C15        -0.3986  -18.4018  -49.7307 C.3       23 UNK        -0.0205 
     16 S16         0.9425  -18.8346  -48.5691 S.3       23 UNK        -0.2404 
     17 C17         0.0812  -18.8784  -46.9609 C.3       23 UNK        -0.0398 
     18 CA         -0.3889  -20.2916  -46.5379 C.3       11 UNK         0.1400 
     19 N          -0.7382  -20.3435  -45.1183 N.am      11 UNK        -0.5000 
     20 C          -1.1224  -21.4349  -44.4422 C.2       10 UNK         0.5000 
     21 O          -1.1220  -22.5704  -44.9158 O.2       10 UNK        -0.5000 
     22 CA         -1.6610  -21.2085  -43.0196 C.3       10 UNK         0.1400 
     23 CB         -0.5323  -21.2294  -41.9837 C.3       10 UNK        -0.1800 
     24 N          -2.3923  -19.9470  -42.9131 N.am      10 UNK        -0.5000 
     25 C          -3.6293  -19.7560  -43.3868 C.2       9 UNK         0.5000 
     26 O          -4.2936  -20.6368  -43.9346 O.2       9 UNK        -0.5000 
     27 CA         -4.2061  -18.3352  -43.2476 C.3       9 UNK         0.1400 
     28 CB         -4.7515  -18.1066  -41.8299 C.3       9 UNK        -0.1800 
     29 N          -3.2400  -17.2819  -43.5722 N.am      9 UNK        -0.5000 
     30 C          -2.7563  -17.0660  -44.8027 C.2       8 UNK         0.5000 
     31 O          -3.0335  -17.7693  -45.7734 O.2       8 UNK        -0.5000 
     32 CA         -1.8043  -15.8672  -44.9876 C.3       8 UNK         0.1400 
     33 CB         -2.5668  -14.5520  -44.7607 C.3       8 UNK        -0.1800 
     34 N          -0.5787  -15.8379  -44.1774 N.am      8 UNK        -0.5000 
     35 C           0.1409  -16.8487  -43.6713 C.2       7 UNK         0.5000 
     36 O          -0.2103  -18.0286  -43.6720 O.2       7 UNK        -0.5000 
     37 CA          1.4998  -16.4504  -43.0736 C.3       7 UNK         0.1400 
     38 CB          1.3454  -15.7796  -41.6947 C.3       7 UNK        -0.1800 
     39 N           2.4425  -17.5747  -43.0728 N.am      7 UNK        -0.5000 
     40 C           2.6048  -18.5691  -42.1863 C.2       6 UNK         0.5000 
     41 O           2.0094  -18.6483  -41.1115 O.2       6 UNK        -0.5000 
     42 CA          3.6162  -19.6801  -42.5548 C.3       6 UNK         0.1400 
     43 CB          2.9103  -21.0327  -42.7362 C.3       6 UNK        -0.1800 
     44 N           4.3791  -19.3996  -43.7718 N.am      6 UNK        -0.5000 
     45 C           5.4248  -18.5690  -43.8590 C.2       5 UNK         0.5000 
     46 O           5.9135  -17.9777  -42.8956 O.2       5 UNK        -0.5000 
     47 CA          5.9996  -18.3249  -45.2687 C.3       5 UNK         0.1400 
     48 CB          5.7911  -19.5077  -46.2414 C.3       5 UNK        -0.1800 
     49 N           5.4816  -17.0814  -45.8456 N.am      5 UNK        -0.5000 
     50 C           4.2030  -16.7566  -46.0799 C.2       4 UNK         0.5000 
     51 O           3.2526  -17.5027  -45.8418 O.2       4 UNK        -0.5000 
     52 CA          3.9502  -15.3363  -46.6221 C.3       4 UNK         0.1400 
     53 CB          2.5122  -15.1575  -47.1408 C.3       4 UNK        -0.1800 
     54 N           4.2209  -14.3167  -45.6054 N.am      4 UNK        -0.5000 
     55 C           5.4396  -13.9213  -45.2055 C.2       3 UNK         0.5000 
     56 O           6.4814  -14.3871  -45.6712 O.2       3 UNK        -0.5000 
     57 CA          5.5246  -12.8205  -44.1279 C.3       3 UNK         0.1400 
     58 CB          6.4730  -11.6915  -44.5672 C.3       3 UNK        -0.1800 
     59 N           4.2192  -12.2316  -43.8254 N.am      3 UNK        -0.5000 
     60 C           3.4538  -12.5288  -42.7671 C.2       2 UNK         0.5000 
     61 O           3.7675  -13.3442  -41.9013 O.2       2 UNK        -0.5000 
     62 CA          2.1001  -11.7959  -42.6719 C.3       2 UNK         0.1400 
     63 CB          2.2163  -10.5658  -41.7595 C.3       2 UNK        -0.1800 
     64 N           1.5976  -11.3726  -43.9819 N.am      2 UNK        -0.5000 
     65 C           1.0993  -12.2029  -44.9088 C.2       1 UNK         0.5000 
     66 O           0.9564  -13.4113  -44.7128 O.2       1 UNK        -0.5000 
     67 C          -1.5606  -20.7898  -47.4049 C.2       11 UNK         0.5000 
     68 O          -1.3654  -21.6893  -48.2192 O.2       11 UNK        -0.5000 
     69 N          -2.7637  -20.2417  -47.1775 N.am      12 UNK        -0.5000 
     70 CA         -3.9958  -20.6355  -47.8601 C.3       12 UNK         0.1400 
     71 CB         -5.1405  -19.7029  -47.4431 C.3       12 UNK        -0.1800 
     72 C          -4.3842  -22.1046  -47.6241 C.2       12 UNK         0.5000 
     73 O          -4.8526  -22.7545  -48.5563 O.2       12 UNK        -0.5000 
     74 N          -4.1595  -22.6079  -46.4025 N.am      13 UNK        -0.5000 
     75 CA         -4.3725  -24.0100  -46.0436 C.3       13 UNK         0.1400 
     76 CB         -4.2975  -24.1710  -44.5179 C.3       13 UNK        -0.1800 
     77 C          -3.3847  -24.9588  -46.7495 C.2       13 UNK         0.5000 
     78 O          -3.7969  -26.0178  -47.2214 O.2       13 UNK        -0.5000 
     79 N          -2.1079  -24.5599  -46.8306 N.am      14 UNK        -0.5000 
     80 CA         -1.0495  -25.3028  -47.5175 C.3       14 UNK         0.1400 
     81 CB          0.3174  -24.7268  -47.1164 C.3       14 UNK        -0.1800 
     82 C          -1.2157  -25.2972  -49.0491 C.2       14 UNK         0.5000 
     83 O          -1.0139  -26.3283  -49.6906 O.2       14 UNK        -0.5000 
     84 N          -1.5931  -24.1388  -49.6028 N.am      15 UNK        -0.5000 
     85 CA         -1.8030  -23.9066  -51.0317 C.3       15 UNK         0.1400 
     86 CB         -1.6084  -22.4076  -51.3149 C.3       15 UNK        -0.1800 
     87 C          -3.1724  -24.3850  -51.5515 C.2       15 UNK         0.5000 
     88 O          -3.4371  -24.2310  -52.7462 O.2       15 UNK        -0.5000 
     89 N          -4.0365  -24.9136  -50.6729 N.am      16 UNK        -0.5000 
     90 CA         -5.3784  -25.4071  -50.9890 C.3       16 UNK         0.1400 
     91 CB         -6.0476  -25.9366  -49.7127 C.3       16 UNK        -0.1800 
     92 C          -5.3465  -26.4883  -52.0830 C.2       16 UNK         0.5000 
     93 O          -4.6637  -27.5010  -51.9170 O.2       16 UNK        -0.5000 
     94 N          -6.0271  -26.2111  -53.2039 N.am      17 UNK        -0.5000 
     95 CA         -6.0703  -26.9618  -54.4687 C.3       17 UNK         0.1400 
     96 CB         -6.6238  -28.3848  -54.2641 C.3       17 UNK        -0.1800 
     97 C          -4.7377  -26.9899  -55.2499 C.2       17 UNK         0.5000 
     98 O          -4.7635  -26.9173  -56.4785 O.2       17 UNK        -0.5000 
     99 N          -3.6065  -27.0753  -54.5397 N.am      18 UNK        -0.5000 
    100 CA        -2.2473  -27.1245  -55.0780 C.3       18 UNK         0.1400 
    101 CB        -1.2707  -27.4306  -53.9316 C.3       18 UNK        -0.1800 
    102 C         -1.8247  -25.8397  -55.8137 C.2       18 UNK         0.5000 
    103 O         -1.1478  -25.9262  -56.8393 O.2       18 UNK        -0.5000 
    104 N         -2.2308  -24.6797  -55.2841 N.am      19 UNK        -0.5000 
    105 CA        -1.9244  -23.3563  -55.8277 C.3       19 UNK         0.1400 
    106 CB        -0.5863  -22.8526  -55.2533 C.3       19 UNK        -0.1800 
    107 C         -3.0956  -22.3771  -55.6167 C.2       19 UNK         0.5000 
    108 O         -2.8776  -21.1683  -55.5339 O.2       19 UNK        -0.5000 
    109 N         -4.3208  -22.9226  -55.5561 N.am      20 UNK        -0.5000 
    110 CA        -5.6066  -22.2223  -55.4431 C.3       20 UNK         0.1400 
    111 CB        -5.8916  -21.4011  -56.7184 C.3       20 UNK        -0.1800 
    112 C         -5.7727  -21.3945  -54.1490 C.2       20 UNK         0.5000 
    113 O         -6.4503  -20.3638  -54.1623 O.2       20 UNK        -0.5000 
    114 N         -5.1803  -21.8743  -53.0452 N.am      21 UNK        -0.5000 
    115 CA        -5.2319  -21.2875  -51.7023 C.3       21 UNK         0.1400 
    116 CB        -6.6513  -21.4362  -51.1044 C.3       21 UNK        -0.1800 
    117 C         -4.6843  -19.8430  -51.6824 C.2       21 UNK         0.5000 
    118 O         -3.5179  -19.6344  -52.0148 O.2       21 UNK        -0.5000 
    119 N         -5.5291  -18.8821  -51.2941 N.am      22 UNK        -0.5000 
    120 CA        -5.2543  -17.4380  -51.3303 C.3       22 UNK         0.1400 
    121 C         -5.4254  -16.7990  -52.7461 C.2       22 UNK         0.5000 
    122 N         -5.8879  -17.5185  -53.7629 N.am      22 UNK        -0.7600 
    123 O         -5.1173  -15.6273  -52.9416 O.2       22 UNK        -0.5000 
    124 C124       -6.0942  -16.7224  -50.2376 C.3       23 UNK        -0.0398 
    125 S125       -5.4598  -15.0938  -49.7093 S.3       23 UNK        -0.2404 
    126 C126       -4.3386  -15.5166  -48.3376 C.3       23 UNK        -0.0205 
    127 H127        0.0719   -7.6357  -46.2650 H         1 UNK         0.0600 
    128 H128       -1.6828   -7.8168  -46.1920 H         1 UNK         0.0600 
    129 H129       -0.7488   -7.6504  -44.7014 H         1 UNK         0.0600 
    130 H130        1.0959   -9.5473  -46.7057 H         1 UNK         0.3000 
    131 H131        1.7019  -11.6503  -46.8449 H         1 UNK         0.0600 
    132 H132       -0.0287  -13.4756  -47.0714 H         1 UNK         0.0800 
    133 H133       -1.2658  -12.3352  -46.6269 H         1 UNK         0.0800 
    134 H134        1.0954  -13.5888  -49.5148 H         1 UNK         0.0800 
    135 H135        0.0077  -13.1484  -50.8066 H         1 UNK         0.0800 
    136 H136       -2.5990  -13.5472  -48.9036 H         1 UNK         0.1150 
    137 H137       -2.9154  -17.8093  -48.8373 H         1 UNK         0.1150 
    138 H138        0.7637  -15.9648  -50.0300 H         1 UNK         0.1150 
    139 H139       -1.1658  -19.1767  -49.7193 H         1 UNK         0.0800 
    140 H140        0.0079  -18.4077  -50.7429 H         1 UNK         0.0800 
    141 H141       -0.7395  -18.1631  -46.9542 H         1 UNK         0.0800 
    142 H142        0.7952  -18.5051  -46.2264 H         1 UNK         0.0800 
    143 H143        0.4443  -20.9834  -46.6787 H         1 UNK         0.0600 
    144 H144       -0.7171  -19.4575  -44.6158 H         1 UNK         0.3000 
    145 H145       -2.3425  -22.0298  -42.7883 H         1 UNK         0.0600 
    146 H146       -0.9282  -21.1825  -40.9693 H         1 UNK         0.0600 
    147 H147        0.0558  -22.1444  -42.0629 H         1 UNK         0.0600 
    148 H148        0.1409  -20.3836  -42.1167 H         1 UNK         0.0600 
    149 H149       -1.8740  -19.1492  -42.5693 H         1 UNK         0.3000 
    150 H150       -5.0408  -18.2516  -43.9471 H         1 UNK         0.0600 
    151 H151       -5.4860  -18.8690  -41.5668 H         1 UNK         0.0600 
    152 H152       -5.2466  -17.1387  -41.7495 H         1 UNK         0.0600 
    153 H153       -3.9588  -18.1420  -41.0815 H         1 UNK         0.0600 
    154 H154       -2.9458  -16.6773  -42.8196 H         1 UNK         0.3000 
    155 H155       -1.4745  -15.8826  -46.0281 H         1 UNK         0.0600 
    156 H156       -2.9178  -14.4617  -43.7323 H         1 UNK         0.0600 
    157 H157       -1.9372  -13.6879  -44.9620 H         1 UNK         0.0600 
    158 H158       -3.4378  -14.4820  -45.4123 H         1 UNK         0.0600 
    159 H159       -0.1383  -14.9227  -44.1441 H         1 UNK         0.3000 
    160 H160        1.9469  -15.7177  -43.7464 H         1 UNK         0.0600 
    161 H161        0.7634  -16.3913  -41.0051 H         1 UNK         0.0600 
    162 H162        0.8288  -14.8242  -41.7864 H         1 UNK         0.0600 
    163 H163        2.3149  -15.5831  -41.2374 H         1 UNK         0.0600 
    164 H164        2.9351  -17.6814  -43.9549 H         1 UNK         0.3000 
    165 H165        4.3147  -19.7719  -41.7205 H         1 UNK         0.0600 
    166 H166        3.6212  -21.8197  -42.9885 H         1 UNK         0.0600 
    167 H167        2.4120  -21.3361  -41.8153 H         1 UNK         0.0600 
    168 H168        2.1592  -20.9920  -43.5264 H         1 UNK         0.0600 
    169 H169        4.0193  -19.7963  -44.6282 H         1 UNK         0.3000 
    170 H170        7.0748  -18.1877  -45.1445 H         1 UNK         0.0600 
    171 H171        6.1729  -20.4364  -45.8154 H         1 UNK         0.0600 
    172 H172        4.7422  -19.6655  -46.4939 H         1 UNK         0.0600 
    173 H173        6.3283  -19.3387  -47.1746 H         1 UNK         0.0600 
    174 H174        6.1660  -16.3426  -45.9764 H         1 UNK         0.3000 
    175 H175        4.6262  -15.1795  -47.4653 H         1 UNK         0.0600 
    176 H176        1.7710  -15.3252  -46.3591 H         1 UNK         0.0600 
    177 H177        2.3617  -14.1555  -47.5400 H         1 UNK         0.0600 
    178 H178        2.2988  -15.8642  -47.9436 H         1 UNK         0.0600 
    179 H179        3.4155  -13.9193  -45.1446 H         1 UNK         0.3000 
    180 H180        5.9440  -13.2834  -43.2324 H         1 UNK         0.0600 
    181 H181        7.4810  -12.0688  -44.7443 H         1 UNK         0.0600 
    182 H182        6.5494  -10.9211  -43.7996 H         1 UNK         0.0600 
    183 H183        6.1336  -11.2154  -45.4879 H         1 UNK         0.0600 
    184 H184        3.8790  -11.5428  -44.4801 H         1 UNK         0.3000 
    185 H185        1.3777  -12.4833  -42.2277 H         1 UNK         0.0600 
    186 H186        2.5617  -10.8493  -40.7644 H         1 UNK         0.0600 
    187 H187        2.9215   -9.8341  -42.1559 H         1 UNK         0.0600 
    188 H188        1.2517  -10.0723  -41.6389 H         1 UNK         0.0600 
    189 H189        1.6660  -10.3898  -44.2032 H         1 UNK         0.3000 
    190 H190       -2.8425  -19.4771  -46.5105 H         1 UNK         0.3000 
    191 H191       -3.8258  -20.5090  -48.9301 H         1 UNK         0.0600 
    192 H192       -5.3237  -19.7460  -46.3690 H         1 UNK         0.0600 
    193 H193       -6.0701  -19.9680  -47.9473 H         1 UNK         0.0600 
    194 H194       -4.9152  -18.6706  -47.6999 H         1 UNK         0.0600 
    195 H195       -3.8146  -21.9928  -45.6763 H         1 UNK         0.3000 
    196 H196       -5.3805  -24.2861  -46.3607 H         1 UNK         0.0600 
    197 H197       -4.5172  -25.1982  -44.2245 H         1 UNK         0.0600 
    198 H198       -5.0207  -23.5270  -44.0169 H         1 UNK         0.0600 
    199 H199       -3.3082  -23.9260  -44.1324 H         1 UNK         0.0600 
    200 H200       -1.8337  -23.6958  -46.3719 H         1 UNK         0.3000 
    201 H201       -1.0904  -26.3411  -47.1818 H         1 UNK         0.0600 
    202 H202        0.4730  -24.7971  -46.0397 H         1 UNK         0.0600 
    203 H203        0.4114  -23.6774  -47.3979 H         1 UNK         0.0600 
    204 H204        1.1291  -25.2719  -47.5998 H         1 UNK         0.0600 
    205 H205       -1.6780  -23.3206  -49.0020 H         1 UNK         0.3000 
    206 H206       -1.0454  -24.4555  -51.5945 H         1 UNK         0.0600 
    207 H207       -1.8336  -22.1539  -52.3506 H         1 UNK         0.0600 
    208 H208       -2.2569  -21.7947  -50.6902 H         1 UNK         0.0600 
    209 H209       -0.5805  -22.1016  -51.1202 H         1 UNK         0.0600 
    210 H210       -3.7500  -24.9838  -49.7070 H         1 UNK         0.3000 
    211 H211       -5.9596  -24.5577  -51.3489 H         1 UNK         0.0600 
    212 H212       -5.4931  -26.7737  -49.2869 H         1 UNK         0.0600 
    213 H213       -7.0609  -26.2837  -49.9179 H         1 UNK         0.0600 
    214 H214       -6.1183  -25.1599  -48.9513 H         1 UNK         0.0600 
    215 H215       -6.5316  -25.3365  -53.2285 H         1 UNK         0.3000 
    216 H216       -6.7824  -26.4264  -55.0988 H         1 UNK         0.0600 
    217 H217       -6.7688  -28.8853  -55.2223 H         1 UNK         0.0600 
    218 H218       -7.5897  -28.3636  -53.7594 H         1 UNK         0.0600 
    219 H219       -5.9499  -29.0063  -53.6741 H         1 UNK         0.0600 
    220 H220       -3.7042  -27.1642  -53.5327 H         1 UNK         0.3000 
    221 H221       -2.2029  -27.9467  -55.7950 H         1 UNK         0.0600 
    222 H222       -1.3026  -26.6610  -53.1591 H         1 UNK         0.0600 
    223 H223       -1.5034  -28.3857  -53.4604 H         1 UNK         0.0600 
    224 H224       -0.2443  -27.4894  -54.2960 H         1 UNK         0.0600 
    225 H225       -2.7563  -24.6866  -54.4118 H         1 UNK         0.3000 
    226 H226       -1.8135  -23.4332  -56.9112 H         1 UNK         0.0600 
    227 H227        0.2319  -23.5194  -55.5256 H         1 UNK         0.0600 
    228 H228       -0.3341  -21.8636  -55.6374 H         1 UNK         0.0600 
    229 H229       -0.6133  -22.7904  -54.1669 H         1 UNK         0.0600 
    230 H230       -4.3783  -23.9269  -55.6442 H         1 UNK         0.3000 
    231 H231       -6.3657  -23.0036  -55.3878 H         1 UNK         0.0600 
    232 H232       -6.9077  -21.0049  -56.7114 H         1 UNK         0.0600 
    233 H233       -5.7917  -22.0147  -57.6137 H         1 UNK         0.0600 
    234 H234       -5.2121  -20.5537  -56.8141 H         1 UNK         0.0600 
    235 H235       -4.5912  -22.6958  -53.1402 H         1 UNK         0.3000 
    236 H236       -4.5593  -21.8745  -51.0802 H         1 UNK         0.0600 
    237 H237       -6.9614  -22.4798  -51.0886 H         1 UNK         0.0600 
    238 H238       -6.6829  -21.0870  -50.0721 H         1 UNK         0.0600 
    239 H239       -7.4025  -20.8833  -51.6691 H         1 UNK         0.0600 
    240 H240       -6.4792  -19.1448  -51.0767 H         1 UNK         0.3000 
    241 H241       -4.2022  -17.3043  -51.0763 H         1 UNK         0.0600 
    242 H242       -6.1126  -18.5045  -53.6687 H         1 UNK         0.3800 
    243 H243       -5.9813  -17.0804  -54.6651 H         1 UNK         0.3800 
    244 H244       -7.1224  -16.5924  -50.5792 H         1 UNK         0.0800 
    245 H245       -6.1672  -17.3489  -49.3483 H         1 UNK         0.0800 
    246 H246       -4.3878  -14.7138  -47.6015 H         1 UNK         0.0800 
    247 H247       -4.6731  -16.4133  -47.8177 H         1 UNK         0.0800 
@<TRIPOS>BOND
     1    1    2 1    
     2    1  127 1    
     3    1  128 1    
     4    1  129 1    
     5    2    3 2    
     6    2    4 am   BACKBONE|DICT|INTERRES
     7    4    5 1    
     8    4  130 1    
     9    5    6 1    
    10    5   65 1    
    11    5  131 1    
    12    6    7 1    
    13    6  132 1    
    14    6  133 1    
    15    7    8 1    
    16    8    9 1    
    17    8  134 1    
    18    8  135 1    
    19    9   10 ar   
    20    9   14 ar   
    21   10   11 ar   
    22   10  136 1    
    23   11   12 ar   
    24   11  126 1    
    25   12   13 ar   
    26   12  137 1    
    27   13   14 ar   
    28   13   15 1    
    29   14  138 1    
    30   15   16 1    
    31   15  139 1    
    32   15  140 1    
    33   16   17 1    
    34   17   18 1    
    35   17  141 1    
    36   17  142 1    
    37   18   19 1    
    38   18   67 1    
    39   18  143 1    
    40   19   20 am   BACKBONE|DICT|INTERRES
    41   19  144 1    
    42   20   21 2    
    43   20   22 1    
    44   22   23 1    
    45   22   24 1    
    46   22  145 1    
    47   23  146 1    
    48   23  147 1    
    49   23  148 1    
    50   24   25 am   BACKBONE|DICT|INTERRES
    51   24  149 1    
    52   25   26 2    
    53   25   27 1    
    54   27   28 1    
    55   27   29 1    
    56   27  150 1    
    57   28  151 1    
    58   28  152 1    
    59   28  153 1    
    60   29   30 am   BACKBONE|DICT|INTERRES
    61   29  154 1    
    62   30   31 2    
    63   30   32 1    
    64   32   33 1    
    65   32   34 1    
    66   32  155 1    
    67   33  156 1    
    68   33  157 1    
    69   33  158 1    
    70   34   35 am   BACKBONE|DICT|INTERRES
    71   34  159 1    
    72   35   36 2    
    73   35   37 1    
    74   37   38 1    
    75   37   39 1    
    76   37  160 1    
    77   38  161 1    
    78   38  162 1    
    79   38  163 1    
    80   39   40 am   BACKBONE|DICT|INTERRES
    81   39  164 1    
    82   40   41 2    
    83   40   42 1    
    84   42   43 1    
    85   42   44 1    
    86   42  165 1    
    87   43  166 1    
    88   43  167 1    
    89   43  168 1    
    90   44   45 am   BACKBONE|DICT|INTERRES
    91   44  169 1    
    92   45   46 2    
    93   45   47 1    
    94   47   48 1    
    95   47   49 1    
    96   47  170 1    
    97   48  171 1    
    98   48  172 1    
    99   48  173 1    
   100   49   50 am   BACKBONE|DICT|INTERRES
   101   49  174 1    
   102   50   51 2    
   103   50   52 1    
   104   52   53 1    
   105   52   54 1    
   106   52  175 1    
   107   53  176 1    
   108   53  177 1    
   109   53  178 1    
   110   54   55 am   BACKBONE|DICT|INTERRES
   111   54  179 1    
   112   55   56 2    
   113   55   57 1    
   114   57   58 1    
   115   57   59 1    
   116   57  180 1    
   117   58  181 1    
   118   58  182 1    
   119   58  183 1    
   120   59   60 am   BACKBONE|DICT|INTERRES
   121   59  184 1    
   122   60   61 2    
   123   60   62 1    
   124   62   63 1    
   125   62   64 1    
   126   62  185 1    
   127   63  186 1    
   128   63  187 1    
   129   63  188 1    
   130   64   65 am   BACKBONE|DICT|INTERRES
   131   64  189 1    
   132   65   66 2    
   133   67   68 2    
   134   67   69 am   BACKBONE|DICT|INTERRES
   135   69   70 1    
   136   69  190 1    
   137   70   71 1    
   138   70   72 1    
   139   70  191 1    
   140   71  192 1    
   141   71  193 1    
   142   71  194 1    
   143   72   73 2    
   144   72   74 am   BACKBONE|DICT|INTERRES
   145   74   75 1    
   146   74  195 1    
   147   75   76 1    
   148   75   77 1    
   149   75  196 1    
   150   76  197 1    
   151   76  198 1    
   152   76  199 1    
   153   77   78 2    
   154   77   79 am   BACKBONE|DICT|INTERRES
   155   79   80 1    
   156   79  200 1    
   157   80   81 1    
   158   80   82 1    
   159   80  201 1    
   160   81  202 1    
   161   81  203 1    
   162   81  204 1    
   163   82   83 2    
   164   82   84 am   BACKBONE|DICT|INTERRES
   165   84   85 1    
   166   84  205 1    
   167   85   86 1    
   168   85   87 1    
   169   85  206 1    
   170   86  207 1    
   171   86  208 1    
   172   86  209 1    
   173   87   88 2    
   174   87   89 am   BACKBONE|DICT|INTERRES
   175   89   90 1    
   176   89  210 1    
   177   90   91 1    
   178   90   92 1    
   179   90  211 1    
   180   91  212 1    
   181   91  213 1    
   182   91  214 1    
   183   92   93 2    
   184   92   94 am   BACKBONE|DICT|INTERRES
   185   94   95 1    
   186   94  215 1    
   187   95   96 1    
   188   95   97 1    
   189   95  216 1    
   190   96  217 1    
   191   96  218 1    
   192   96  219 1    
   193   97   98 2    
   194   97   99 am   BACKBONE|DICT|INTERRES
   195   99  100 1    
   196   99  220 1    
   197  100  101 1    
   198  100  102 1    
   199  100  221 1    
   200  101  222 1    
   201  101  223 1    
   202  101  224 1    
   203  102  103 2    
   204  102  104 am   BACKBONE|DICT|INTERRES
   205  104  105 1    
   206  104  225 1    
   207  105  106 1    
   208  105  107 1    
   209  105  226 1    
   210  106  227 1    
   211  106  228 1    
   212  106  229 1    
   213  107  108 2    
   214  107  109 am   BACKBONE|DICT|INTERRES
   215  109  110 1    
   216  109  230 1    
   217  110  111 1    
   218  110  112 1    
   219  110  231 1    
   220  111  232 1    
   221  111  233 1    
   222  111  234 1    
   223  112  113 2    
   224  112  114 am   BACKBONE|DICT|INTERRES
   225  114  115 1    
   226  114  235 1    
   227  115  116 1    
   228  115  117 1    
   229  115  236 1    
   230  116  237 1    
   231  116  238 1    
   232  116  239 1    
   233  117  118 2    
   234  117  119 am   BACKBONE|DICT|INTERRES
   235  119  120 1    
   236  119  240 1    
   237  120  121 1    
   238  120  124 1    
   239  120  241 1    
   240  121  122 am   BACKBONE|DICT|INTERRES
   241  121  123 2    
   242  122  242 1    
   243  122  243 1    
   244  124  125 1    
   245  124  244 1    
   246  124  245 1    
   247  125  126 1    
   248  126  246 1    
   249  126  247 1    
@<TRIPOS>SUBSTRUCTURE
     1 UNK         1 GROUP             0       ****    0 ROOT    
