@<TRIPOS>MOLECULE
3R540
247   249    1
SMALL
USER_CHARGES


@<TRIPOS>ATOM
      1 CA         -0.4623  -13.0042  -53.5356 C.3       0 UNK        -0.1800 
      2 C          -0.5265  -13.2731  -52.0381 C.2       0 UNK         0.5000 
      3 O          -0.3557  -12.3508  -51.2403 O.2       0 UNK        -0.5000 
      4 N          -0.7576  -14.5349  -51.6602 N.am      1 UNK        -0.5000 
      5 CA         -0.9071  -15.0055  -50.2812 C.3       1 UNK         0.1400 
      6 C6         -0.8275  -16.5540  -50.2205 C.3       23 UNK        -0.0398 
      7 S7         -0.0737  -17.1760  -48.6780 S.3       23 UNK        -0.2404 
      8 C8          1.6641  -17.4222  -49.1748 C.3       23 UNK        -0.0205 
      9 C9          1.9005  -18.7841  -49.8177 C.ar      23 UNK        -0.0193 
     10 C10         1.6720  -18.9739  -51.1840 C.ar      23 UNK        -0.1150 
     11 C11         1.8771  -20.2226  -51.7722 C.ar      23 UNK        -0.0193 
     12 C12         2.3432  -21.2816  -50.9906 C.ar      23 UNK        -0.1150 
     13 C13         2.6024  -21.1109  -49.6275 C.ar      23 UNK        -0.0193 
     14 C14         2.3720  -19.8537  -49.0472 C.ar      23 UNK        -0.1150 
     15 C15         3.1591  -22.3096  -48.8545 C.3       23 UNK        -0.0205 
     16 S16         3.2143  -22.1453  -47.0385 S.3       23 UNK        -0.2404 
     17 C17         1.4741  -22.4270  -46.5698 C.3       23 UNK        -0.0398 
     18 CA          1.3544  -23.3883  -45.3619 C.3       11 UNK         0.1400 
     19 N           1.9997  -22.8336  -44.1747 N.am      11 UNK        -0.5000 
     20 C           2.7130  -23.5110  -43.2708 C.2       10 UNK         0.5000 
     21 O           2.9393  -24.7205  -43.3446 O.2       10 UNK        -0.5000 
     22 CA          3.2563  -22.6808  -42.0868 C.3       10 UNK         0.1400 
     23 CB          4.3484  -23.4078  -41.2747 C.3       10 UNK        -0.1800 
     24 N           3.6971  -21.3426  -42.4962 N.am      10 UNK        -0.5000 
     25 C           4.7009  -21.0213  -43.3267 C.2       9 UNK         0.5000 
     26 O           5.4917  -21.8393  -43.7983 O.2       9 UNK        -0.5000 
     27 CA          4.8498  -19.5322  -43.7083 C.3       9 UNK         0.1400 
     28 CB          4.4522  -19.3069  -45.1753 C.3       9 UNK        -0.1800 
     29 N           4.0599  -18.6279  -42.8700 N.am      9 UNK        -0.5000 
     30 C           4.3781  -18.2650  -41.6208 C.2       8 UNK         0.5000 
     31 O           5.4074  -18.6213  -41.0461 O.2       8 UNK        -0.5000 
     32 CA          3.3605  -17.3773  -40.8787 C.3       8 UNK         0.1400 
     33 CB          3.5692  -15.8977  -41.2347 C.3       8 UNK        -0.1800 
     34 N           1.9697  -17.7542  -41.1444 N.am      8 UNK        -0.5000 
     35 C           1.4144  -18.9185  -40.7769 C.2       7 UNK         0.5000 
     36 O           2.0112  -19.7920  -40.1472 O.2       7 UNK        -0.5000 
     37 CA         -0.0370  -19.1738  -41.2233 C.3       7 UNK         0.1400 
     38 CB         -1.0279  -18.4533  -40.2971 C.3       7 UNK        -0.1800 
     39 N          -0.2844  -18.7880  -42.6133 N.am      7 UNK        -0.5000 
     40 C           0.3303  -19.3366  -43.6718 C.2       6 UNK         0.5000 
     41 O           1.1583  -20.2407  -43.5890 O.2       6 UNK        -0.5000 
     42 CA          0.0198  -18.7344  -45.0508 C.3       6 UNK         0.1400 
     43 CB         -1.3375  -19.2281  -45.5718 C.3       6 UNK        -0.1800 
     44 N           0.0438  -17.2746  -45.0270 N.am      6 UNK        -0.5000 
     45 C           1.1205  -16.5331  -44.7315 C.2       5 UNK         0.5000 
     46 O           2.2327  -17.0004  -44.4896 O.2       5 UNK        -0.5000 
     47 CA          0.9014  -15.0155  -44.6300 C.3       5 UNK         0.1400 
     48 CB          0.8809  -14.3655  -46.0219 C.3       5 UNK        -0.1800 
     49 N          -0.3297  -14.6907  -43.9084 N.am      5 UNK        -0.5000 
     50 C          -0.5158  -14.9044  -42.5977 C.2       4 UNK         0.5000 
     51 O           0.3420  -15.3780  -41.8531 O.2       4 UNK        -0.5000 
     52 CA         -1.9050  -14.5591  -42.0307 C.3       4 UNK         0.1400 
     53 CB         -1.9990  -13.0615  -41.7026 C.3       4 UNK        -0.1800 
     54 N          -2.9922  -14.9263  -42.9390 N.am      4 UNK        -0.5000 
     55 C          -3.3275  -16.1881  -43.2419 C.2       3 UNK         0.5000 
     56 O          -2.7699  -17.1779  -42.7690 O.2       3 UNK        -0.5000 
     57 CA         -4.4336  -16.3713  -44.2989 C.3       3 UNK         0.1400 
     58 CB         -5.8254  -16.2675  -43.6589 C.3       3 UNK        -0.1800 
     59 N          -4.3378  -15.4311  -45.4230 N.am      3 UNK        -0.5000 
     60 C          -3.2716  -15.3328  -46.2260 C.2       2 UNK         0.5000 
     61 O          -2.2451  -15.9991  -46.0707 O.2       2 UNK        -0.5000 
     62 CA         -3.3459  -14.3311  -47.3866 C.3       2 UNK         0.1400 
     63 CB         -3.2185  -12.8841  -46.8826 C.3       2 UNK        -0.1800 
     64 N          -2.2362  -14.6350  -48.2793 N.am      2 UNK        -0.5000 
     65 C          -2.1913  -14.4722  -49.6018 C.2       1 UNK         0.5000 
     66 O          -3.1002  -13.9622  -50.2617 O.2       1 UNK        -0.5000 
     67 C          -0.1264  -23.6559  -45.0402 C.2       11 UNK         0.5000 
     68 O          -0.7333  -22.9138  -44.2634 O.2       11 UNK        -0.5000 
     69 N          -0.6956  -24.6962  -45.6615 N.am      12 UNK        -0.5000 
     70 CA         -2.1165  -25.0256  -45.5644 C.3       12 UNK         0.1400 
     71 CB         -2.3499  -26.4358  -46.1284 C.3       12 UNK        -0.1800 
     72 C          -2.9609  -23.9961  -46.3319 C.2       12 UNK         0.5000 
     73 O          -2.6899  -23.7516  -47.5088 O.2       12 UNK        -0.5000 
     74 N          -3.9905  -23.4421  -45.6810 N.am      13 UNK        -0.5000 
     75 CA         -4.8746  -22.4140  -46.2434 C.3       13 UNK         0.1400 
     76 CB         -5.7128  -21.8011  -45.1109 C.3       13 UNK        -0.1800 
     77 C          -5.7778  -22.9050  -47.3958 C.2       13 UNK         0.5000 
     78 O          -6.3662  -22.0805  -48.0935 O.2       13 UNK        -0.5000 
     79 N          -5.8711  -24.2283  -47.5812 N.am      14 UNK        -0.5000 
     80 CA         -6.5216  -24.8587  -48.7293 C.3       14 UNK         0.1400 
     81 CB         -6.8923  -26.3028  -48.3574 C.3       14 UNK        -0.1800 
     82 C          -5.6384  -24.8407  -49.9943 C.2       14 UNK         0.5000 
     83 O          -6.1778  -24.8766  -51.1007 O.2       14 UNK        -0.5000 
     84 N          -4.3103  -24.8072  -49.8133 N.am      15 UNK        -0.5000 
     85 CA         -3.3204  -24.7901  -50.8909 C.3       15 UNK         0.1400 
     86 CB         -2.1533  -25.7172  -50.5143 C.3       15 UNK        -0.1800 
     87 C          -2.8076  -23.3664  -51.1556 C.2       15 UNK         0.5000 
     88 O          -2.6376  -22.9901  -52.3146 O.2       15 UNK        -0.5000 
     89 N          -2.5706  -22.6141  -50.0766 N.am      16 UNK        -0.5000 
     90 CA         -2.1367  -21.2231  -50.0778 C.3       16 UNK         0.1400 
     91 CB         -0.9940  -21.0876  -49.0545 C.3       16 UNK        -0.1800 
     92 C          -3.3375  -20.3053  -49.7762 C.2       16 UNK         0.5000 
     93 O          -4.4568  -20.6073  -50.1947 O.2       16 UNK        -0.5000 
     94 N          -3.0840  -19.1992  -49.0607 N.am      17 UNK        -0.5000 
     95 CA         -4.0442  -18.2105  -48.5630 C.3       17 UNK         0.1400 
     96 CB         -4.7727  -18.7587  -47.3178 C.3       17 UNK        -0.1800 
     97 C          -4.9985  -17.6964  -49.6590 C.2       17 UNK         0.5000 
     98 O          -4.5571  -16.9615  -50.5413 O.2       17 UNK        -0.5000 
     99 N          -6.2695  -18.1179  -49.6051 N.am      18 UNK        -0.5000 
    100 CA        -7.3418  -17.7664  -50.5384 C.3       18 UNK         0.1400 
    101 CB        -8.6561  -18.3772  -50.0286 C.3       18 UNK        -0.1800 
    102 C         -7.0872  -18.1803  -52.0024 C.2       18 UNK         0.5000 
    103 O         -7.6963  -17.5980  -52.9005 O.2       18 UNK        -0.5000 
    104 N         -6.1856  -19.1472  -52.2302 N.am      19 UNK        -0.5000 
    105 CA        -5.7236  -19.5432  -53.5629 C.3       19 UNK         0.1400 
    106 CB        -5.0299  -20.9069  -53.4650 C.3       19 UNK        -0.1800 
    107 C         -4.7806  -18.5089  -54.2153 C.2       19 UNK         0.5000 
    108 O         -4.5491  -18.5893  -55.4227 O.2       19 UNK        -0.5000 
    109 N         -4.2591  -17.5661  -53.4147 N.am      20 UNK        -0.5000 
    110 CA        -3.3636  -16.4586  -53.7515 C.3       20 UNK         0.1400 
    111 CB        -4.0143  -15.4760  -54.7445 C.3       20 UNK        -0.1800 
    112 C         -1.9708  -16.9152  -54.2148 C.2       20 UNK         0.5000 
    113 O         -0.9994  -16.6871  -53.4956 O.2       20 UNK        -0.5000 
    114 N         -1.8924  -17.5348  -55.3947 N.am      21 UNK        -0.5000 
    115 CA        -0.6680  -18.0127  -56.0262 C.3       21 UNK         0.1400 
    116 CB         0.2500  -16.8295  -56.4087 C.3       21 UNK        -0.1800 
    117 C         -1.0550  -18.8557  -57.2564 C.2       21 UNK         0.5000 
    118 O         -1.0911  -18.3170  -58.3625 O.2       21 UNK        -0.5000 
    119 N         -1.3877  -20.1429  -57.1137 N.am      22 UNK        -0.5000 
    120 CA        -1.4991  -20.9520  -55.8937 C.3       22 UNK         0.1400 
    121 C         -2.3889  -22.1981  -56.1714 C.2       22 UNK         0.5000 
    122 N         -2.7355  -22.9777  -55.1584 N.am      22 UNK        -0.7600 
    123 O         -2.7599  -22.4835  -57.3095 O.2       22 UNK        -0.5000 
    124 C124       -0.1112  -21.3448  -55.3032 C.3       23 UNK        -0.0398 
    125 S125       -0.0657  -21.1219  -53.4957 S.3       23 UNK        -0.2404 
    126 C126        1.5963  -20.4299  -53.2514 C.3       23 UNK        -0.0205 
    127 H127       -0.5671  -13.9204  -54.1177 H         1 UNK         0.0600 
    128 H128        0.4920  -12.5460  -53.7949 H         1 UNK         0.0600 
    129 H129       -1.2608  -12.3225  -53.8284 H         1 UNK         0.0600 
    130 H130       -0.8569  -15.2540  -52.3732 H         1 UNK         0.3000 
    131 H131       -0.0580  -14.5939  -49.7306 H         1 UNK         0.0600 
    132 H132       -1.8083  -17.0100  -50.3598 H         1 UNK         0.0800 
    133 H133       -0.2317  -16.9263  -51.0477 H         1 UNK         0.0800 
    134 H134        2.2900  -17.3216  -48.2866 H         1 UNK         0.0800 
    135 H135        1.9749  -16.6251  -49.8518 H         1 UNK         0.0800 
    136 H136        1.3357  -18.1547  -51.8011 H         1 UNK         0.1150 
    137 H137        2.5095  -22.2457  -51.4509 H         1 UNK         0.1150 
    138 H138        2.5646  -19.6909  -47.9972 H         1 UNK         0.1150 
    139 H139        2.5959  -23.2078  -49.1120 H         1 UNK         0.0800 
    140 H140        4.1790  -22.4821  -49.2005 H         1 UNK         0.0800 
    141 H141        0.9357  -22.8327  -47.4274 H         1 UNK         0.0800 
    142 H142        1.0169  -21.4613  -46.3492 H         1 UNK         0.0800 
    143 H143        1.8275  -24.3364  -45.6267 H         1 UNK         0.0600 
    144 H144        1.7895  -21.8546  -43.9845 H         1 UNK         0.3000 
    145 H145        2.4077  -22.5211  -41.4201 H         1 UNK         0.0600 
    146 H146        4.7031  -22.7891  -40.4504 H         1 UNK         0.0600 
    147 H147        3.9619  -24.3318  -40.8434 H         1 UNK         0.0600 
    148 H148        5.2077  -23.6718  -41.8915 H         1 UNK         0.0600 
    149 H149        3.0918  -20.5869  -42.2024 H         1 UNK         0.3000 
    150 H150        5.9047  -19.2725  -43.6001 H         1 UNK         0.0600 
    151 H151        5.0427  -19.9344  -45.8438 H         1 UNK         0.0600 
    152 H152        4.6148  -18.2716  -45.4749 H         1 UNK         0.0600 
    153 H153        3.4006  -19.5421  -45.3443 H         1 UNK         0.0600 
    154 H154        3.2238  -18.2369  -43.2950 H         1 UNK         0.3000 
    155 H155        3.5387  -17.4955  -39.8079 H         1 UNK         0.0600 
    156 H156        4.5954  -15.5875  -41.0338 H         1 UNK         0.0600 
    157 H157        2.9142  -15.2551  -40.6461 H         1 UNK         0.0600 
    158 H158        3.3672  -15.7048  -42.2887 H         1 UNK         0.0600 
    159 H159        1.3971  -17.0662  -41.6239 H         1 UNK         0.3000 
    160 H160       -0.2214  -20.2473  -41.1440 H         1 UNK         0.0600 
    161 H161       -0.9306  -17.3697  -40.3673 H         1 UNK         0.0600 
    162 H162       -0.8637  -18.7319  -39.2555 H         1 UNK         0.0600 
    163 H163       -2.0572  -18.7132  -40.5441 H         1 UNK         0.0600 
    164 H164       -0.9847  -18.0691  -42.7673 H         1 UNK         0.3000 
    165 H165        0.7936  -19.0655  -45.7465 H         1 UNK         0.0600 
    166 H166       -1.5298  -18.8550  -46.5765 H         1 UNK         0.0600 
    167 H167       -1.3693  -20.3176  -45.6142 H         1 UNK         0.0600 
    168 H168       -2.1563  -18.8994  -44.9314 H         1 UNK         0.0600 
    169 H169       -0.8271  -16.8018  -45.2584 H         1 UNK         0.3000 
    170 H170        1.7412  -14.5942  -44.0733 H         1 UNK         0.0600 
    171 H171        1.8090  -14.5675  -46.5582 H         1 UNK         0.0600 
    172 H172        0.0646  -14.7445  -46.6338 H         1 UNK         0.0600 
    173 H173        0.7739  -13.2830  -45.9516 H         1 UNK         0.0600 
    174 H174       -1.1052  -14.3553  -44.4585 H         1 UNK         0.3000 
    175 H175       -2.0334  -15.1194  -41.1021 H         1 UNK         0.0600 
    176 H176       -1.2082  -12.7634  -41.0129 H         1 UNK         0.0600 
    177 H177       -1.9045  -12.4446  -42.5971 H         1 UNK         0.0600 
    178 H178       -2.9503  -12.8212  -41.2276 H         1 UNK         0.0600 
    179 H179       -3.4989  -14.1724  -43.3787 H         1 UNK         0.3000 
    180 H180       -4.3239  -17.3796  -44.7016 H         1 UNK         0.0600 
    181 H181       -5.9263  -16.9676  -42.8284 H         1 UNK         0.0600 
    182 H182       -6.0176  -15.2667  -43.2705 H         1 UNK         0.0600 
    183 H183       -6.6086  -16.5055  -44.3789 H         1 UNK         0.0600 
    184 H184       -5.1451  -14.8494  -45.5959 H         1 UNK         0.3000 
    185 H185       -4.2946  -14.4699  -47.9093 H         1 UNK         0.0600 
    186 H186       -4.0385  -12.6249  -46.2121 H         1 UNK         0.0600 
    187 H187       -2.2851  -12.7275  -46.3403 H         1 UNK         0.0600 
    188 H188       -3.2437  -12.1766  -47.7117 H         1 UNK         0.0600 
    189 H189       -1.4981  -15.1600  -47.8239 H         1 UNK         0.3000 
    190 H190       -0.1523  -25.2475  -46.3095 H         1 UNK         0.3000 
    191 H191       -2.4067  -25.0213  -44.5115 H         1 UNK         0.0600 
    192 H192       -2.0651  -26.5047  -47.1793 H         1 UNK         0.0600 
    193 H193       -3.4010  -26.7179  -46.0544 H         1 UNK         0.0600 
    194 H194       -1.7758  -27.1805  -45.5768 H         1 UNK         0.0600 
    195 H195       -4.1577  -23.6977  -44.7182 H         1 UNK         0.3000 
    196 H196       -4.2385  -21.6287  -46.6567 H         1 UNK         0.0600 
    197 H197       -6.3599  -21.0071  -45.4862 H         1 UNK         0.0600 
    198 H198       -5.0760  -21.3607  -44.3433 H         1 UNK         0.0600 
    199 H199       -6.3505  -22.5467  -44.6346 H         1 UNK         0.0600 
    200 H200       -5.3909  -24.8371  -46.9360 H         1 UNK         0.3000 
    201 H201       -7.4430  -24.3184  -48.9575 H         1 UNK         0.0600 
    202 H202       -7.4034  -26.7994  -49.1832 H         1 UNK         0.0600 
    203 H203       -6.0099  -26.8959  -48.1133 H         1 UNK         0.0600 
    204 H204       -7.5635  -26.3290  -47.4987 H         1 UNK         0.0600 
    205 H205       -3.9469  -24.7122  -48.8739 H         1 UNK         0.3000 
    206 H206       -3.7619  -25.1651  -51.8167 H         1 UNK         0.0600 
    207 H207       -2.4962  -26.7417  -50.3689 H         1 UNK         0.0600 
    208 H208       -1.3999  -25.7344  -51.3028 H         1 UNK         0.0600 
    209 H209       -1.6600  -25.3959  -49.5960 H         1 UNK         0.0600 
    210 H210       -2.7253  -23.0207  -49.1575 H         1 UNK         0.3000 
    211 H211       -1.7539  -20.9437  -51.0603 H         1 UNK         0.0600 
    212 H212       -0.5474  -20.0954  -49.0802 H         1 UNK         0.0600 
    213 H213       -0.1971  -21.7957  -49.2785 H         1 UNK         0.0600 
    214 H214       -1.3335  -21.2809  -48.0361 H         1 UNK         0.0600 
    215 H215       -2.1223  -19.0233  -48.8066 H         1 UNK         0.3000 
    216 H216       -3.4520  -17.3520  -48.2507 H         1 UNK         0.0600 
    217 H217       -5.4485  -18.0135  -46.8965 H         1 UNK         0.0600 
    218 H218       -4.0642  -19.0273  -46.5359 H         1 UNK         0.0600 
    219 H219       -5.3590  -19.6476  -47.5465 H         1 UNK         0.0600 
    220 H220       -6.5151  -18.7758  -48.8793 H         1 UNK         0.3000 
    221 H221       -7.4415  -16.6792  -50.5260 H         1 UNK         0.0600 
    222 H222       -8.6016  -19.4660  -49.9863 H         1 UNK         0.0600 
    223 H223       -8.9004  -18.0134  -49.0304 H         1 UNK         0.0600 
    224 H224       -9.4900  -18.1150  -50.6812 H         1 UNK         0.0600 
    225 H225       -5.7268  -19.5920  -51.4398 H         1 UNK         0.3000 
    226 H226       -6.5957  -19.6520  -54.2109 H         1 UNK         0.0600 
    227 H227       -5.6498  -21.6392  -52.9473 H         1 UNK         0.0600 
    228 H228       -4.8221  -21.3020  -54.4589 H         1 UNK         0.0600 
    229 H229       -4.0810  -20.8338  -52.9332 H         1 UNK         0.0600 
    230 H230       -4.5107  -17.5990  -52.4314 H         1 UNK         0.3000 
    231 H231       -3.2171  -15.9129  -52.8177 H         1 UNK         0.0600 
    232 H232       -4.9510  -15.0843  -54.3478 H         1 UNK         0.0600 
    233 H233       -4.2287  -15.9384  -55.7080 H         1 UNK         0.0600 
    234 H234       -3.3595  -14.6238  -54.9308 H         1 UNK         0.0600 
    235 H235       -2.7609  -17.7580  -55.8723 H         1 UNK         0.3000 
    236 H236       -0.1271  -18.6325  -55.3136 H         1 UNK         0.0600 
    237 H237        0.6377  -16.3175  -55.5284 H         1 UNK         0.0600 
    238 H238        1.1131  -17.1750  -56.9789 H         1 UNK         0.0600 
    239 H239       -0.2746  -16.0928  -57.0182 H         1 UNK         0.0600 
    240 H240       -1.6898  -20.6545  -57.9329 H         1 UNK         0.3000 
    241 H241       -2.0597  -20.3500  -55.1763 H         1 UNK         0.0600 
    242 H242       -2.4782  -22.7830  -54.1926 H         1 UNK         0.3800 
    243 H243       -3.3026  -23.7873  -55.3501 H         1 UNK         0.3800 
    244 H244        0.1536  -22.3789  -55.5320 H         1 UNK         0.0800 
    245 H245        0.6878  -20.7517  -55.7488 H         1 UNK         0.0800 
    246 H246        2.3395  -21.1044  -53.6793 H         1 UNK         0.0800 
    247 H247        1.6839  -19.4851  -53.7899 H         1 UNK         0.0800 
@<TRIPOS>BOND
     1    1    2 1    
     2    1  127 1    
     3    1  128 1    
     4    1  129 1    
     5    2    3 2    
     6    2    4 am   BACKBONE|DICT|INTERRES
     7    4    5 1    
     8    4  130 1    
     9    5    6 1    
    10    5   65 1    
    11    5  131 1    
    12    6    7 1    
    13    6  132 1    
    14    6  133 1    
    15    7    8 1    
    16    8    9 1    
    17    8  134 1    
    18    8  135 1    
    19    9   10 ar   
    20    9   14 ar   
    21   10   11 ar   
    22   10  136 1    
    23   11   12 ar   
    24   11  126 1    
    25   12   13 ar   
    26   12  137 1    
    27   13   14 ar   
    28   13   15 1    
    29   14  138 1    
    30   15   16 1    
    31   15  139 1    
    32   15  140 1    
    33   16   17 1    
    34   17   18 1    
    35   17  141 1    
    36   17  142 1    
    37   18   19 1    
    38   18   67 1    
    39   18  143 1    
    40   19   20 am   BACKBONE|DICT|INTERRES
    41   19  144 1    
    42   20   21 2    
    43   20   22 1    
    44   22   23 1    
    45   22   24 1    
    46   22  145 1    
    47   23  146 1    
    48   23  147 1    
    49   23  148 1    
    50   24   25 am   BACKBONE|DICT|INTERRES
    51   24  149 1    
    52   25   26 2    
    53   25   27 1    
    54   27   28 1    
    55   27   29 1    
    56   27  150 1    
    57   28  151 1    
    58   28  152 1    
    59   28  153 1    
    60   29   30 am   BACKBONE|DICT|INTERRES
    61   29  154 1    
    62   30   31 2    
    63   30   32 1    
    64   32   33 1    
    65   32   34 1    
    66   32  155 1    
    67   33  156 1    
    68   33  157 1    
    69   33  158 1    
    70   34   35 am   BACKBONE|DICT|INTERRES
    71   34  159 1    
    72   35   36 2    
    73   35   37 1    
    74   37   38 1    
    75   37   39 1    
    76   37  160 1    
    77   38  161 1    
    78   38  162 1    
    79   38  163 1    
    80   39   40 am   BACKBONE|DICT|INTERRES
    81   39  164 1    
    82   40   41 2    
    83   40   42 1    
    84   42   43 1    
    85   42   44 1    
    86   42  165 1    
    87   43  166 1    
    88   43  167 1    
    89   43  168 1    
    90   44   45 am   BACKBONE|DICT|INTERRES
    91   44  169 1    
    92   45   46 2    
    93   45   47 1    
    94   47   48 1    
    95   47   49 1    
    96   47  170 1    
    97   48  171 1    
    98   48  172 1    
    99   48  173 1    
   100   49   50 am   BACKBONE|DICT|INTERRES
   101   49  174 1    
   102   50   51 2    
   103   50   52 1    
   104   52   53 1    
   105   52   54 1    
   106   52  175 1    
   107   53  176 1    
   108   53  177 1    
   109   53  178 1    
   110   54   55 am   BACKBONE|DICT|INTERRES
   111   54  179 1    
   112   55   56 2    
   113   55   57 1    
   114   57   58 1    
   115   57   59 1    
   116   57  180 1    
   117   58  181 1    
   118   58  182 1    
   119   58  183 1    
   120   59   60 am   BACKBONE|DICT|INTERRES
   121   59  184 1    
   122   60   61 2    
   123   60   62 1    
   124   62   63 1    
   125   62   64 1    
   126   62  185 1    
   127   63  186 1    
   128   63  187 1    
   129   63  188 1    
   130   64   65 am   BACKBONE|DICT|INTERRES
   131   64  189 1    
   132   65   66 2    
   133   67   68 2    
   134   67   69 am   BACKBONE|DICT|INTERRES
   135   69   70 1    
   136   69  190 1    
   137   70   71 1    
   138   70   72 1    
   139   70  191 1    
   140   71  192 1    
   141   71  193 1    
   142   71  194 1    
   143   72   73 2    
   144   72   74 am   BACKBONE|DICT|INTERRES
   145   74   75 1    
   146   74  195 1    
   147   75   76 1    
   148   75   77 1    
   149   75  196 1    
   150   76  197 1    
   151   76  198 1    
   152   76  199 1    
   153   77   78 2    
   154   77   79 am   BACKBONE|DICT|INTERRES
   155   79   80 1    
   156   79  200 1    
   157   80   81 1    
   158   80   82 1    
   159   80  201 1    
   160   81  202 1    
   161   81  203 1    
   162   81  204 1    
   163   82   83 2    
   164   82   84 am   BACKBONE|DICT|INTERRES
   165   84   85 1    
   166   84  205 1    
   167   85   86 1    
   168   85   87 1    
   169   85  206 1    
   170   86  207 1    
   171   86  208 1    
   172   86  209 1    
   173   87   88 2    
   174   87   89 am   BACKBONE|DICT|INTERRES
   175   89   90 1    
   176   89  210 1    
   177   90   91 1    
   178   90   92 1    
   179   90  211 1    
   180   91  212 1    
   181   91  213 1    
   182   91  214 1    
   183   92   93 2    
   184   92   94 am   BACKBONE|DICT|INTERRES
   185   94   95 1    
   186   94  215 1    
   187   95   96 1    
   188   95   97 1    
   189   95  216 1    
   190   96  217 1    
   191   96  218 1    
   192   96  219 1    
   193   97   98 2    
   194   97   99 am   BACKBONE|DICT|INTERRES
   195   99  100 1    
   196   99  220 1    
   197  100  101 1    
   198  100  102 1    
   199  100  221 1    
   200  101  222 1    
   201  101  223 1    
   202  101  224 1    
   203  102  103 2    
   204  102  104 am   BACKBONE|DICT|INTERRES
   205  104  105 1    
   206  104  225 1    
   207  105  106 1    
   208  105  107 1    
   209  105  226 1    
   210  106  227 1    
   211  106  228 1    
   212  106  229 1    
   213  107  108 2    
   214  107  109 am   BACKBONE|DICT|INTERRES
   215  109  110 1    
   216  109  230 1    
   217  110  111 1    
   218  110  112 1    
   219  110  231 1    
   220  111  232 1    
   221  111  233 1    
   222  111  234 1    
   223  112  113 2    
   224  112  114 am   BACKBONE|DICT|INTERRES
   225  114  115 1    
   226  114  235 1    
   227  115  116 1    
   228  115  117 1    
   229  115  236 1    
   230  116  237 1    
   231  116  238 1    
   232  116  239 1    
   233  117  118 2    
   234  117  119 am   BACKBONE|DICT|INTERRES
   235  119  120 1    
   236  119  240 1    
   237  120  121 1    
   238  120  124 1    
   239  120  241 1    
   240  121  122 am   BACKBONE|DICT|INTERRES
   241  121  123 2    
   242  122  242 1    
   243  122  243 1    
   244  124  125 1    
   245  124  244 1    
   246  124  245 1    
   247  125  126 1    
   248  126  246 1    
   249  126  247 1    
@<TRIPOS>SUBSTRUCTURE
     1 UNK         1 GROUP             0       ****    0 ROOT    
