@<TRIPOS>MOLECULE
3R540
247   249    1
SMALL
USER_CHARGES


@<TRIPOS>ATOM
      1 CA          2.0536  -12.0980  -48.4841 C.3       0 UNK        -0.1800 
      2 C           1.7906  -13.3783  -47.6953 C.2       0 UNK         0.5000 
      3 O           0.6733  -13.5738  -47.2262 O.2       0 UNK        -0.5000 
      4 N           2.7717  -14.2753  -47.5276 N.am      1 UNK        -0.5000 
      5 CA          4.1617  -14.1528  -47.9848 C.3       1 UNK         0.1400 
      6 C6          4.8227  -15.5409  -48.1800 C.3       23 UNK        -0.0398 
      7 S7          4.2661  -16.3566  -49.7174 S.3       23 UNK        -0.2404 
      8 C8          2.9977  -17.5369  -49.1501 C.3       23 UNK        -0.0205 
      9 C9          1.6797  -17.2988  -49.8710 C.ar      23 UNK        -0.0193 
     10 C10         1.4837  -17.7935  -51.1649 C.ar      23 UNK        -0.1150 
     11 C11         0.2891  -17.5451  -51.8494 C.ar      23 UNK        -0.0193 
     12 C12        -0.7174  -16.8060  -51.2217 C.ar      23 UNK        -0.1150 
     13 C13        -0.5412  -16.3230  -49.9226 C.ar      23 UNK        -0.0193 
     14 C14         0.6609  -16.5691  -49.2534 C.ar      23 UNK        -0.1150 
     15 C15        -1.6520  -15.5340  -49.2486 C.3       23 UNK        -0.0205 
     16 S16        -2.9398  -16.6301  -48.5780 S.3       23 UNK        -0.2404 
     17 C17        -2.0726  -17.4007  -47.1679 C.3       23 UNK        -0.0398 
     18 CA         -1.4737  -18.7921  -47.4844 C.3       11 UNK         0.1400 
     19 N          -0.5402  -19.2332  -46.4434 N.am      11 UNK        -0.5000 
     20 C           0.2684  -20.2963  -46.5631 C.2       10 UNK         0.5000 
     21 O           0.3503  -20.9766  -47.5828 O.2       10 UNK        -0.5000 
     22 CA          1.0945  -20.7096  -45.3337 C.3       10 UNK         0.1400 
     23 CB          2.5148  -20.1443  -45.4314 C.3       10 UNK        -0.1800 
     24 N           0.4877  -20.3321  -44.0551 N.am      10 UNK        -0.5000 
     25 C          -0.6514  -20.8632  -43.5879 C.2       9 UNK         0.5000 
     26 O          -1.3602  -21.6288  -44.2437 O.2       9 UNK        -0.5000 
     27 CA         -1.0744  -20.4736  -42.1652 C.3       9 UNK         0.1400 
     28 CB         -0.2199  -21.2094  -41.1200 C.3       9 UNK        -0.1800 
     29 N          -0.9708  -19.0296  -41.9495 N.am      9 UNK        -0.5000 
     30 C          -1.9668  -18.2631  -41.4860 C.2       8 UNK         0.5000 
     31 O          -3.0850  -18.6952  -41.2020 O.2       8 UNK        -0.5000 
     32 CA         -1.6875  -16.7598  -41.2908 C.3       8 UNK         0.1400 
     33 CB         -1.3547  -16.4541  -39.8224 C.3       8 UNK        -0.1800 
     34 N          -0.6356  -16.2066  -42.1461 N.am      8 UNK        -0.5000 
     35 C          -0.7438  -16.0609  -43.4745 C.2       7 UNK         0.5000 
     36 O          -1.6746  -16.5182  -44.1354 O.2       7 UNK        -0.5000 
     37 CA          0.3675  -15.2734  -44.1811 C.3       7 UNK         0.1400 
     38 CB          0.2149  -13.7703  -43.8978 C.3       7 UNK        -0.1800 
     39 N           1.6757  -15.7358  -43.7271 N.am      7 UNK        -0.5000 
     40 C           2.5742  -16.3669  -44.4913 C.2       6 UNK         0.5000 
     41 O           2.4645  -16.4783  -45.7118 O.2       6 UNK        -0.5000 
     42 CA          3.8032  -16.9937  -43.7926 C.3       6 UNK         0.1400 
     43 CB          5.0539  -16.1386  -44.0249 C.3       6 UNK        -0.1800 
     44 N           3.6536  -17.1873  -42.3513 N.am      6 UNK        -0.5000 
     45 C           2.7223  -17.9235  -41.7311 C.2       5 UNK         0.5000 
     46 O           1.8984  -18.6263  -42.3164 O.2       5 UNK        -0.5000 
     47 CA          2.6472  -17.7716  -40.1983 C.3       5 UNK         0.1400 
     48 CB          3.4299  -18.8985  -39.5102 C.3       5 UNK        -0.1800 
     49 N           3.1358  -16.4715  -39.7136 N.am      5 UNK        -0.5000 
     50 C           2.6604  -15.2724  -40.0851 C.2       4 UNK         0.5000 
     51 O           1.6915  -15.1401  -40.8394 O.2       4 UNK        -0.5000 
     52 CA          3.4228  -14.0248  -39.5994 C.3       4 UNK         0.1400 
     53 CB          4.9161  -14.2935  -39.3059 C.3       4 UNK        -0.1800 
     54 N           3.2896  -12.9883  -40.6188 N.am      4 UNK        -0.5000 
     55 C           3.4803  -11.6765  -40.4623 C.2       3 UNK         0.5000 
     56 O           3.8474  -11.1639  -39.4029 O.2       3 UNK        -0.5000 
     57 CA          3.2180  -10.7978  -41.7072 C.3       3 UNK         0.1400 
     58 CB          3.2686   -9.2923  -41.3886 C.3       3 UNK        -0.1800 
     59 N           4.1413  -11.0702  -42.8145 N.am      3 UNK        -0.5000 
     60 C           4.1009  -12.1422  -43.6142 C.2       2 UNK         0.5000 
     61 O           3.3124  -13.0768  -43.4596 O.2       2 UNK        -0.5000 
     62 CA          5.0972  -12.1824  -44.7822 C.3       2 UNK         0.1400 
     63 CB          6.5049  -12.5945  -44.3077 C.3       2 UNK        -0.1800 
     64 N           4.5740  -13.1094  -45.7845 N.am      2 UNK        -0.5000 
     65 C           4.9956  -13.2480  -47.0475 C.2       1 UNK         0.5000 
     66 O           5.9746  -12.6574  -47.5043 O.2       1 UNK        -0.5000 
     67 C          -2.5647  -19.8504  -47.7419 C.2       11 UNK         0.5000 
     68 O          -2.8230  -20.1867  -48.8962 O.2       11 UNK        -0.5000 
     69 N          -3.1388  -20.4047  -46.6635 N.am      12 UNK        -0.5000 
     70 CA         -4.1361  -21.4738  -46.7287 C.3       12 UNK         0.1400 
     71 CB         -4.7612  -21.6852  -45.3422 C.3       12 UNK        -0.1800 
     72 C          -3.5531  -22.7888  -47.2741 C.2       12 UNK         0.5000 
     73 O          -4.2427  -23.4915  -48.0141 O.2       12 UNK        -0.5000 
     74 N          -2.2899  -23.0757  -46.9282 N.am      13 UNK        -0.5000 
     75 CA         -1.5312  -24.2179  -47.4350 C.3       13 UNK         0.1400 
     76 CB         -0.2518  -24.4022  -46.6052 C.3       13 UNK        -0.1800 
     77 C          -1.2063  -24.0855  -48.9346 C.2       13 UNK         0.5000 
     78 O          -1.4447  -25.0307  -49.6855 O.2       13 UNK        -0.5000 
     79 N          -0.7069  -22.9121  -49.3511 N.am      14 UNK        -0.5000 
     80 CA         -0.3818  -22.5826  -50.7425 C.3       14 UNK         0.1400 
     81 CB          0.3699  -21.2437  -50.7934 C.3       14 UNK        -0.1800 
     82 C          -1.6229  -22.5422  -51.6510 C.2       14 UNK         0.5000 
     83 O          -1.5667  -23.0154  -52.7871 O.2       14 UNK        -0.5000 
     84 N          -2.7349  -22.0181  -51.1190 N.am      15 UNK        -0.5000 
     85 CA         -4.0389  -22.0157  -51.7748 C.3       15 UNK         0.1400 
     86 CB         -4.9471  -20.9820  -51.0943 C.3       15 UNK        -0.1800 
     87 C          -4.7183  -23.3970  -51.7870 C.2       15 UNK         0.5000 
     88 O          -5.6739  -23.5766  -52.5435 O.2       15 UNK        -0.5000 
     89 N          -4.2479  -24.3248  -50.9412 N.am      16 UNK        -0.5000 
     90 CA         -4.7886  -25.6624  -50.6819 C.3       16 UNK         0.1400 
     91 CB         -4.5768  -26.5801  -51.9024 C.3       16 UNK        -0.1800 
     92 C          -6.2582  -25.5984  -50.2232 C.2       16 UNK         0.5000 
     93 O          -7.1177  -26.2653  -50.7981 O.2       16 UNK        -0.5000 
     94 N          -6.5292  -24.7220  -49.2443 N.am      17 UNK        -0.5000 
     95 CA         -7.8617  -24.3546  -48.7435 C.3       17 UNK         0.1400 
     96 CB         -8.5008  -25.5312  -47.9773 C.3       17 UNK        -0.1800 
     97 C          -8.7790  -23.7823  -49.8510 C.2       17 UNK         0.5000 
     98 O          -9.9832  -24.0408  -49.8604 O.2       17 UNK        -0.5000 
     99 N          -8.1631  -23.0278  -50.7730 N.am      18 UNK        -0.5000 
    100 CA        -8.7260  -22.4041  -51.9758 C.3       18 UNK         0.1400 
    101 CB        -9.8915  -21.4532  -51.6329 C.3       18 UNK        -0.1800 
    102 C         -9.0735  -23.3905  -53.1115 C.2       18 UNK         0.5000 
    103 O         -9.7008  -22.9743  -54.0868 O.2       18 UNK        -0.5000 
    104 N         -8.6434  -24.6577  -53.0095 N.am      19 UNK        -0.5000 
    105 CA        -8.8128  -25.6567  -54.0678 C.3       19 UNK         0.1400 
    106 CB        -8.6835  -27.0693  -53.4792 C.3       19 UNK        -0.1800 
    107 C         -7.8134  -25.4659  -55.2242 C.2       19 UNK         0.5000 
    108 O         -8.1663  -25.7372  -56.3728 O.2       19 UNK        -0.5000 
    109 N         -6.5948  -25.0076  -54.9064 N.am      20 UNK        -0.5000 
    110 CA        -5.5321  -24.7324  -55.8756 C.3       20 UNK         0.1400 
    111 CB        -4.1969  -25.2717  -55.3378 C.3       20 UNK        -0.1800 
    112 C         -5.4125  -23.2290  -56.1671 C.2       20 UNK         0.5000 
    113 O         -5.0657  -22.8582  -57.2892 O.2       20 UNK        -0.5000 
    114 N         -5.6761  -22.3941  -55.1488 N.am      21 UNK        -0.5000 
    115 CA        -5.6520  -20.9249  -55.1712 C.3       21 UNK         0.1400 
    116 CB        -6.8565  -20.3917  -55.9727 C.3       21 UNK        -0.1800 
    117 C         -4.3034  -20.3298  -55.6422 C.2       21 UNK         0.5000 
    118 O         -4.2855  -19.2793  -56.2852 O.2       21 UNK        -0.5000 
    119 N         -3.2051  -21.0334  -55.3292 N.am      22 UNK        -0.5000 
    120 CA        -1.8249  -20.7587  -55.7671 C.3       22 UNK         0.1400 
    121 C         -1.5728  -21.0028  -57.2891 C.2       22 UNK         0.5000 
    122 N         -2.4721  -21.6428  -58.0287 N.am      22 UNK        -0.7600 
    123 O         -0.5230  -20.6369  -57.8111 O.2       22 UNK        -0.5000 
    124 C124       -1.2777  -19.3820  -55.2896 C.3       23 UNK        -0.0398 
    125 S125       -1.2859  -19.1827  -53.4740 S.3       23 UNK        -0.2404 
    126 C126        0.1060  -18.0217  -53.2841 C.3       23 UNK        -0.0205 
    127 H127        2.8593  -11.5170  -48.0365 H         1 UNK         0.0600 
    128 H128        1.1624  -11.4702  -48.4981 H         1 UNK         0.0600 
    129 H129        2.3126  -12.3278  -49.5175 H         1 UNK         0.0600 
    130 H130        2.5705  -15.1132  -46.9871 H         1 UNK         0.3000 
    131 H131        4.1666  -13.6568  -48.9570 H         1 UNK         0.0600 
    132 H132        5.9066  -15.4415  -48.2639 H         1 UNK         0.0800 
    133 H133        4.6500  -16.1917  -47.3233 H         1 UNK         0.0800 
    134 H134        2.8548  -17.4683  -48.0723 H         1 UNK         0.0800 
    135 H135        3.3437  -18.5531  -49.3439 H         1 UNK         0.0800 
    136 H136        2.2746  -18.3517  -51.6459 H         1 UNK         0.1150 
    137 H137       -1.6426  -16.6101  -51.7456 H         1 UNK         0.1150 
    138 H138        0.8026  -16.1945  -48.2497 H         1 UNK         0.1150 
    139 H139       -1.2556  -14.9022  -48.4532 H         1 UNK         0.0800 
    140 H140       -2.1070  -14.8576  -49.9736 H         1 UNK         0.0800 
    141 H141       -2.7735  -17.4656  -46.3344 H         1 UNK         0.0800 
    142 H142       -1.2832  -16.7237  -46.8398 H         1 UNK         0.0800 
    143 H143       -0.8957  -18.7101  -48.4065 H         1 UNK         0.0600 
    144 H144       -0.5570  -18.7332  -45.5666 H         1 UNK         0.3000 
    145 H145        1.1736  -21.7981  -45.3408 H         1 UNK         0.0600 
    146 H146        3.0953  -20.3530  -44.5326 H         1 UNK         0.0600 
    147 H147        3.0476  -20.5828  -46.2761 H         1 UNK         0.0600 
    148 H148        2.4953  -19.0693  -45.5896 H         1 UNK         0.0600 
    149 H149        1.0347  -19.7212  -43.4519 H         1 UNK         0.3000 
    150 H150       -2.1070  -20.8081  -42.0466 H         1 UNK         0.0600 
    151 H151       -0.2723  -22.2895  -41.2624 H         1 UNK         0.0600 
    152 H152       -0.5694  -20.9974  -40.1095 H         1 UNK         0.0600 
    153 H153        0.8301  -20.9204  -41.1766 H         1 UNK         0.0600 
    154 H154       -0.0748  -18.6037  -42.1592 H         1 UNK         0.3000 
    155 H155       -2.6127  -16.2331  -41.5346 H         1 UNK         0.0600 
    156 H156       -0.4383  -16.9477  -39.5031 H         1 UNK         0.0600 
    157 H157       -2.1545  -16.7918  -39.1621 H         1 UNK         0.0600 
    158 H158       -1.2311  -15.3831  -39.6604 H         1 UNK         0.0600 
    159 H159        0.1591  -15.7909  -41.6676 H         1 UNK         0.3000 
    160 H160        0.2487  -15.4306  -45.2548 H         1 UNK         0.0600 
    161 H161        0.3978  -13.5316  -42.8495 H         1 UNK         0.0600 
    162 H162       -0.7883  -13.4238  -44.1486 H         1 UNK         0.0600 
    163 H163        0.9122  -13.1885  -44.4991 H         1 UNK         0.0600 
    164 H164        1.8608  -15.6402  -42.7355 H         1 UNK         0.3000 
    165 H165        3.9773  -17.9714  -44.2411 H         1 UNK         0.0600 
    166 H166        5.9501  -16.6424  -43.6629 H         1 UNK         0.0600 
    167 H167        5.2077  -15.9272  -45.0822 H         1 UNK         0.0600 
    168 H168        4.9721  -15.1867  -43.5032 H         1 UNK         0.0600 
    169 H169        4.2781  -16.6492  -41.7703 H         1 UNK         0.3000 
    170 H170        1.5990  -17.8654  -39.9143 H         1 UNK         0.0600 
    171 H171        3.0725  -19.8768  -39.8350 H         1 UNK         0.0600 
    172 H172        4.4956  -18.8459  -39.7367 H         1 UNK         0.0600 
    173 H173        3.3133  -18.8555  -38.4272 H         1 UNK         0.0600 
    174 H174        3.9327  -16.4990  -39.0939 H         1 UNK         0.3000 
    175 H175        2.9326  -13.6837  -38.6857 H         1 UNK         0.0600 
    176 H176        5.4326  -14.6889  -40.1815 H         1 UNK         0.0600 
    177 H177        5.4326  -13.3821  -39.0049 H         1 UNK         0.0600 
    178 H178        5.0434  -15.0045  -38.4892 H         1 UNK         0.0600 
    179 H179        2.9887  -13.3168  -41.5332 H         1 UNK         0.3000 
    180 H180        2.2042  -11.0245  -42.0450 H         1 UNK         0.0600 
    181 H181        2.5697   -9.0368  -40.5911 H         1 UNK         0.0600 
    182 H182        2.9952   -8.6957  -42.2592 H         1 UNK         0.0600 
    183 H183        4.2634   -8.9810  -41.0674 H         1 UNK         0.0600 
    184 H184        4.8445  -10.3655  -42.9835 H         1 UNK         0.3000 
    185 H185        5.1417  -11.1855  -45.2252 H         1 UNK         0.0600 
    186 H186        6.8697  -11.9180  -43.5341 H         1 UNK         0.0600 
    187 H187        6.5213  -13.6003  -43.8921 H         1 UNK         0.0600 
    188 H188        7.2272  -12.5620  -45.1229 H         1 UNK         0.0600 
    189 H189        3.7403  -13.5988  -45.4804 H         1 UNK         0.3000 
    190 H190       -2.8282  -20.1297  -45.7431 H         1 UNK         0.3000 
    191 H191       -4.9266  -21.1552  -47.4114 H         1 UNK         0.0600 
    192 H192       -4.0202  -22.0010  -44.6072 H         1 UNK         0.0600 
    193 H193       -5.5348  -22.4534  -45.3777 H         1 UNK         0.0600 
    194 H194       -5.2283  -20.7708  -44.9762 H         1 UNK         0.0600 
    195 H195       -1.8162  -22.4569  -46.2818 H         1 UNK         0.3000 
    196 H196       -2.1469  -25.1104  -47.3037 H         1 UNK         0.0600 
    197 H197        0.2746  -25.3100  -46.9025 H         1 UNK         0.0600 
    198 H198       -0.4777  -24.4893  -45.5422 H         1 UNK         0.0600 
    199 H199        0.4388  -23.5699  -46.7349 H         1 UNK         0.0600 
    200 H200       -0.4978  -22.1913  -48.6632 H         1 UNK         0.3000 
    201 H201        0.2829  -23.3606  -51.1232 H         1 UNK         0.0600 
    202 H202        1.2875  -21.2812  -50.2064 H         1 UNK         0.0600 
    203 H203       -0.2396  -20.4247  -50.4084 H         1 UNK         0.0600 
    204 H204        0.6499  -20.9908  -51.8166 H         1 UNK         0.0600 
    205 H205       -2.6841  -21.5670  -50.2086 H         1 UNK         0.3000 
    206 H206       -3.8967  -21.7093  -52.8093 H         1 UNK         0.0600 
    207 H207       -4.4917  -19.9913  -51.1088 H         1 UNK         0.0600 
    208 H208       -5.9063  -20.8990  -51.6036 H         1 UNK         0.0600 
    209 H209       -5.1455  -21.2437  -50.0542 H         1 UNK         0.0600 
    210 H210       -3.4631  -24.0657  -50.3581 H         1 UNK         0.3000 
    211 H211       -4.2165  -26.0736  -49.8490 H         1 UNK         0.0600 
    212 H212       -5.1860  -26.2730  -52.7513 H         1 UNK         0.0600 
    213 H213       -4.8473  -27.6096  -51.6655 H         1 UNK         0.0600 
    214 H214       -3.5338  -26.5811  -52.2191 H         1 UNK         0.0600 
    215 H215       -5.7432  -24.2255  -48.8269 H         1 UNK         0.3000 
    216 H216       -7.7059  -23.5438  -48.0304 H         1 UNK         0.0600 
    217 H217       -9.4258  -25.2231  -47.4887 H         1 UNK         0.0600 
    218 H218       -7.8333  -25.9037  -47.2004 H         1 UNK         0.0600 
    219 H219       -8.7428  -26.3632  -48.6392 H         1 UNK         0.0600 
    220 H220       -7.1612  -22.9418  -50.6866 H         1 UNK         0.3000 
    221 H221       -7.9261  -21.7852  -52.3820 H         1 UNK         0.0600 
    222 H222      -10.7815  -21.9970  -51.3160 H         1 UNK         0.0600 
    223 H223       -9.6165  -20.7621  -50.8362 H         1 UNK         0.0600 
    224 H224      -10.1722  -20.8517  -52.4982 H         1 UNK         0.0600 
    225 H225       -8.1309  -24.9481  -52.1848 H         1 UNK         0.3000 
    226 H226       -9.8211  -25.5600  -54.4762 H         1 UNK         0.0600 
    227 H227       -9.3507  -27.2082  -52.6283 H         1 UNK         0.0600 
    228 H228       -8.9416  -27.8236  -54.2234 H         1 UNK         0.0600 
    229 H229       -7.6660  -27.2774  -53.1476 H         1 UNK         0.0600 
    230 H230       -6.4009  -24.7666  -53.9400 H         1 UNK         0.3000 
    231 H231       -5.7392  -25.2381  -56.8210 H         1 UNK         0.0600 
    232 H232       -4.2512  -26.3452  -55.1568 H         1 UNK         0.0600 
    233 H233       -3.9065  -24.7886  -54.4045 H         1 UNK         0.0600 
    234 H234       -3.3922  -25.1046  -56.0550 H         1 UNK         0.0600 
    235 H235       -5.8991  -22.8145  -54.2519 H         1 UNK         0.3000 
    236 H236       -5.7792  -20.5995  -54.1382 H         1 UNK         0.0600 
    237 H237       -6.7755  -20.6371  -57.0321 H         1 UNK         0.0600 
    238 H238       -7.7920  -20.8115  -55.6021 H         1 UNK         0.0600 
    239 H239       -6.9346  -19.3070  -55.8915 H         1 UNK         0.0600 
    240 H240       -3.3214  -21.8954  -54.8187 H         1 UNK         0.3000 
    241 H241       -1.2206  -21.5221  -55.2757 H         1 UNK         0.0600 
    242 H242       -2.2801  -21.7981  -59.0054 H         1 UNK         0.3800 
    243 H243       -3.3526  -21.9655  -57.6399 H         1 UNK         0.3800 
    244 H244       -1.8400  -18.5609  -55.7351 H         1 UNK         0.0800 
    245 H245       -0.2489  -19.2561  -55.6306 H         1 UNK         0.0800 
    246 H246       -0.0628  -17.1524  -53.9215 H         1 UNK         0.0800 
    247 H247        1.0173  -18.5000  -53.6466 H         1 UNK         0.0800 
@<TRIPOS>BOND
     1    1    2 1    
     2    1  127 1    
     3    1  128 1    
     4    1  129 1    
     5    2    3 2    
     6    2    4 am   BACKBONE|DICT|INTERRES
     7    4    5 1    
     8    4  130 1    
     9    5    6 1    
    10    5   65 1    
    11    5  131 1    
    12    6    7 1    
    13    6  132 1    
    14    6  133 1    
    15    7    8 1    
    16    8    9 1    
    17    8  134 1    
    18    8  135 1    
    19    9   10 ar   
    20    9   14 ar   
    21   10   11 ar   
    22   10  136 1    
    23   11   12 ar   
    24   11  126 1    
    25   12   13 ar   
    26   12  137 1    
    27   13   14 ar   
    28   13   15 1    
    29   14  138 1    
    30   15   16 1    
    31   15  139 1    
    32   15  140 1    
    33   16   17 1    
    34   17   18 1    
    35   17  141 1    
    36   17  142 1    
    37   18   19 1    
    38   18   67 1    
    39   18  143 1    
    40   19   20 am   BACKBONE|DICT|INTERRES
    41   19  144 1    
    42   20   21 2    
    43   20   22 1    
    44   22   23 1    
    45   22   24 1    
    46   22  145 1    
    47   23  146 1    
    48   23  147 1    
    49   23  148 1    
    50   24   25 am   BACKBONE|DICT|INTERRES
    51   24  149 1    
    52   25   26 2    
    53   25   27 1    
    54   27   28 1    
    55   27   29 1    
    56   27  150 1    
    57   28  151 1    
    58   28  152 1    
    59   28  153 1    
    60   29   30 am   BACKBONE|DICT|INTERRES
    61   29  154 1    
    62   30   31 2    
    63   30   32 1    
    64   32   33 1    
    65   32   34 1    
    66   32  155 1    
    67   33  156 1    
    68   33  157 1    
    69   33  158 1    
    70   34   35 am   BACKBONE|DICT|INTERRES
    71   34  159 1    
    72   35   36 2    
    73   35   37 1    
    74   37   38 1    
    75   37   39 1    
    76   37  160 1    
    77   38  161 1    
    78   38  162 1    
    79   38  163 1    
    80   39   40 am   BACKBONE|DICT|INTERRES
    81   39  164 1    
    82   40   41 2    
    83   40   42 1    
    84   42   43 1    
    85   42   44 1    
    86   42  165 1    
    87   43  166 1    
    88   43  167 1    
    89   43  168 1    
    90   44   45 am   BACKBONE|DICT|INTERRES
    91   44  169 1    
    92   45   46 2    
    93   45   47 1    
    94   47   48 1    
    95   47   49 1    
    96   47  170 1    
    97   48  171 1    
    98   48  172 1    
    99   48  173 1    
   100   49   50 am   BACKBONE|DICT|INTERRES
   101   49  174 1    
   102   50   51 2    
   103   50   52 1    
   104   52   53 1    
   105   52   54 1    
   106   52  175 1    
   107   53  176 1    
   108   53  177 1    
   109   53  178 1    
   110   54   55 am   BACKBONE|DICT|INTERRES
   111   54  179 1    
   112   55   56 2    
   113   55   57 1    
   114   57   58 1    
   115   57   59 1    
   116   57  180 1    
   117   58  181 1    
   118   58  182 1    
   119   58  183 1    
   120   59   60 am   BACKBONE|DICT|INTERRES
   121   59  184 1    
   122   60   61 2    
   123   60   62 1    
   124   62   63 1    
   125   62   64 1    
   126   62  185 1    
   127   63  186 1    
   128   63  187 1    
   129   63  188 1    
   130   64   65 am   BACKBONE|DICT|INTERRES
   131   64  189 1    
   132   65   66 2    
   133   67   68 2    
   134   67   69 am   BACKBONE|DICT|INTERRES
   135   69   70 1    
   136   69  190 1    
   137   70   71 1    
   138   70   72 1    
   139   70  191 1    
   140   71  192 1    
   141   71  193 1    
   142   71  194 1    
   143   72   73 2    
   144   72   74 am   BACKBONE|DICT|INTERRES
   145   74   75 1    
   146   74  195 1    
   147   75   76 1    
   148   75   77 1    
   149   75  196 1    
   150   76  197 1    
   151   76  198 1    
   152   76  199 1    
   153   77   78 2    
   154   77   79 am   BACKBONE|DICT|INTERRES
   155   79   80 1    
   156   79  200 1    
   157   80   81 1    
   158   80   82 1    
   159   80  201 1    
   160   81  202 1    
   161   81  203 1    
   162   81  204 1    
   163   82   83 2    
   164   82   84 am   BACKBONE|DICT|INTERRES
   165   84   85 1    
   166   84  205 1    
   167   85   86 1    
   168   85   87 1    
   169   85  206 1    
   170   86  207 1    
   171   86  208 1    
   172   86  209 1    
   173   87   88 2    
   174   87   89 am   BACKBONE|DICT|INTERRES
   175   89   90 1    
   176   89  210 1    
   177   90   91 1    
   178   90   92 1    
   179   90  211 1    
   180   91  212 1    
   181   91  213 1    
   182   91  214 1    
   183   92   93 2    
   184   92   94 am   BACKBONE|DICT|INTERRES
   185   94   95 1    
   186   94  215 1    
   187   95   96 1    
   188   95   97 1    
   189   95  216 1    
   190   96  217 1    
   191   96  218 1    
   192   96  219 1    
   193   97   98 2    
   194   97   99 am   BACKBONE|DICT|INTERRES
   195   99  100 1    
   196   99  220 1    
   197  100  101 1    
   198  100  102 1    
   199  100  221 1    
   200  101  222 1    
   201  101  223 1    
   202  101  224 1    
   203  102  103 2    
   204  102  104 am   BACKBONE|DICT|INTERRES
   205  104  105 1    
   206  104  225 1    
   207  105  106 1    
   208  105  107 1    
   209  105  226 1    
   210  106  227 1    
   211  106  228 1    
   212  106  229 1    
   213  107  108 2    
   214  107  109 am   BACKBONE|DICT|INTERRES
   215  109  110 1    
   216  109  230 1    
   217  110  111 1    
   218  110  112 1    
   219  110  231 1    
   220  111  232 1    
   221  111  233 1    
   222  111  234 1    
   223  112  113 2    
   224  112  114 am   BACKBONE|DICT|INTERRES
   225  114  115 1    
   226  114  235 1    
   227  115  116 1    
   228  115  117 1    
   229  115  236 1    
   230  116  237 1    
   231  116  238 1    
   232  116  239 1    
   233  117  118 2    
   234  117  119 am   BACKBONE|DICT|INTERRES
   235  119  120 1    
   236  119  240 1    
   237  120  121 1    
   238  120  124 1    
   239  120  241 1    
   240  121  122 am   BACKBONE|DICT|INTERRES
   241  121  123 2    
   242  122  242 1    
   243  122  243 1    
   244  124  125 1    
   245  124  244 1    
   246  124  245 1    
   247  125  126 1    
   248  126  246 1    
   249  126  247 1    
@<TRIPOS>SUBSTRUCTURE
     1 UNK         1 GROUP             0       ****    0 ROOT    
