@<TRIPOS>MOLECULE
3R540
247   249    1
SMALL
USER_CHARGES


@<TRIPOS>ATOM
      1 CA          8.3294  -13.0341  -48.9592 C.3       0 UNK        -0.1800 
      2 C           6.9062  -12.9693  -48.4227 C.2       0 UNK         0.5000 
      3 O           6.2661  -11.9253  -48.5375 O.2       0 UNK        -0.5000 
      4 N           6.4358  -14.0780  -47.8301 N.am      1 UNK        -0.5000 
      5 CA          5.0981  -14.3191  -47.2614 C.3       1 UNK         0.1400 
      6 C6          4.0290  -14.7385  -48.3113 C.3       23 UNK        -0.0398 
      7 S7          3.4970  -13.4528  -49.4989 S.3       23 UNK        -0.2404 
      8 C8          3.4090  -14.3950  -51.0537 C.3       23 UNK        -0.0205 
      9 C9          2.2770  -15.4115  -51.0318 C.ar      23 UNK        -0.0193 
     10 C10         0.9591  -15.0001  -51.2506 C.ar      23 UNK        -0.1150 
     11 C11        -0.0914  -15.9220  -51.2181 C.ar      23 UNK        -0.0193 
     12 C12         0.1921  -17.2681  -50.9589 C.ar      23 UNK        -0.1150 
     13 C13         1.5064  -17.6956  -50.7521 C.ar      23 UNK        -0.0193 
     14 C14         2.5447  -16.7618  -50.7914 C.ar      23 UNK        -0.1150 
     15 C15         1.8125  -19.1624  -50.4898 C.3       23 UNK        -0.0205 
     16 S16         1.6469  -19.5765  -48.7272 S.3       23 UNK        -0.2404 
     17 C17        -0.1415  -19.9205  -48.5873 C.3       23 UNK        -0.0398 
     18 CA         -0.3824  -21.3678  -48.1063 C.3       11 UNK         0.1400 
     19 N           0.0845  -21.5757  -46.7342 N.am      11 UNK        -0.5000 
     20 C           0.3379  -22.7764  -46.1994 C.2       10 UNK         0.5000 
     21 O           0.0367  -23.8375  -46.7447 O.2       10 UNK        -0.5000 
     22 CA          1.0489  -22.7953  -44.8376 C.3       10 UNK         0.1400 
     23 CB          2.5386  -22.4573  -45.0063 C.3       10 UNK        -0.1800 
     24 N           0.4388  -21.8320  -43.9260 N.am      10 UNK        -0.5000 
     25 C          -0.3768  -22.1517  -42.9125 C.2       9 UNK         0.5000 
     26 O          -0.6163  -23.3076  -42.5613 O.2       9 UNK        -0.5000 
     27 CA         -1.0699  -20.9835  -42.1783 C.3       9 UNK         0.1400 
     28 CB         -0.2557  -20.5655  -40.9446 C.3       9 UNK        -0.1800 
     29 N          -1.3028  -19.8041  -43.0179 N.am      9 UNK        -0.5000 
     30 C          -2.0119  -19.7982  -44.1552 C.2       8 UNK         0.5000 
     31 O          -2.5739  -20.7908  -44.6125 O.2       8 UNK        -0.5000 
     32 CA         -2.0452  -18.4886  -44.9615 C.3       8 UNK         0.1400 
     33 CB         -3.2773  -17.6534  -44.5855 C.3       8 UNK        -0.1800 
     34 N          -0.8457  -17.6558  -44.8426 N.am      8 UNK        -0.5000 
     35 C           0.4175  -18.0337  -45.0926 C.2       7 UNK         0.5000 
     36 O           0.7535  -19.2025  -45.2991 O.2       7 UNK        -0.5000 
     37 CA          1.4635  -16.8979  -45.1122 C.3       7 UNK         0.1400 
     38 CB          2.7914  -17.3002  -45.7819 C.3       7 UNK        -0.1800 
     39 N           0.9488  -15.6420  -45.6795 N.am      7 UNK        -0.5000 
     40 C           0.4044  -15.4749  -46.8976 C.2       6 UNK         0.5000 
     41 O           0.3039  -16.3813  -47.7206 O.2       6 UNK        -0.5000 
     42 CA         -0.1669  -14.0965  -47.2680 C.3       6 UNK         0.1400 
     43 CB         -1.7018  -14.1063  -47.1322 C.3       6 UNK        -0.1800 
     44 N           0.3942  -12.9913  -46.4891 N.am      6 UNK        -0.5000 
     45 C           0.4070  -11.7136  -46.8970 C.2       5 UNK         0.5000 
     46 O          -0.0372  -11.3474  -47.9875 O.2       5 UNK        -0.5000 
     47 CA          0.9979  -10.6649  -45.9227 C.3       5 UNK         0.1400 
     48 CB          0.5039   -9.2317  -46.2105 C.3       5 UNK        -0.1800 
     49 N           0.7996  -10.9988  -44.5079 N.am      5 UNK        -0.5000 
     50 C          -0.3627  -11.2269  -43.8745 C.2       4 UNK         0.5000 
     51 O          -1.4671  -11.0705  -44.3973 O.2       4 UNK        -0.5000 
     52 CA         -0.2787  -11.7289  -42.4124 C.3       4 UNK         0.1400 
     53 CB         -1.3767  -12.7661  -42.0942 C.3       4 UNK        -0.1800 
     54 N           1.0420  -12.2488  -42.0257 N.am      4 UNK        -0.5000 
     55 C           1.7000  -13.2755  -42.5822 C.2       3 UNK         0.5000 
     56 O           1.2593  -13.9465  -43.5171 O.2       3 UNK        -0.5000 
     57 CA          3.1255  -13.5378  -42.0610 C.3       3 UNK         0.1400 
     58 CB          3.3513  -15.0318  -41.7793 C.3       3 UNK        -0.1800 
     59 N           4.1348  -13.0780  -43.0163 N.am      3 UNK        -0.5000 
     60 C           4.2863  -11.8193  -43.4530 C.2       2 UNK         0.5000 
     61 O           3.6150  -10.8684  -43.0501 O.2       2 UNK        -0.5000 
     62 CA          5.3471  -11.5793  -44.5450 C.3       2 UNK         0.1400 
     63 CB          6.6916  -11.1913  -43.9117 C.3       2 UNK        -0.1800 
     64 N           5.5574  -12.7051  -45.4612 N.am      2 UNK        -0.5000 
     65 C           4.6183  -13.2499  -46.2499 C.2       1 UNK         0.5000 
     66 O           3.4286  -12.9451  -46.1883 O.2       1 UNK        -0.5000 
     67 C          -1.8370  -21.8130  -48.3497 C.2       11 UNK         0.5000 
     68 O          -2.1425  -22.1986  -49.4790 O.2       11 UNK        -0.5000 
     69 N          -2.7030  -21.7880  -47.3242 N.am      12 UNK        -0.5000 
     70 CA         -4.0545  -22.3482  -47.4162 C.3       12 UNK         0.1400 
     71 CB         -4.9706  -21.7605  -46.3339 C.3       12 UNK        -0.1800 
     72 C          -4.0244  -23.8807  -47.3335 C.2       12 UNK         0.5000 
     73 O          -4.7353  -24.5400  -48.0897 O.2       12 UNK        -0.5000 
     74 N          -3.1681  -24.4259  -46.4568 N.am      13 UNK        -0.5000 
     75 CA         -2.9552  -25.8660  -46.2877 C.3       13 UNK         0.1400 
     76 CB         -2.0596  -26.1179  -45.0655 C.3       13 UNK        -0.1800 
     77 C          -2.3737  -26.5275  -47.5509 C.2       13 UNK         0.5000 
     78 O          -2.8021  -27.6223  -47.9162 O.2       13 UNK        -0.5000 
     79 N          -1.4724  -25.8138  -48.2402 N.am      14 UNK        -0.5000 
     80 CA         -0.9146  -26.1779  -49.5460 C.3       14 UNK         0.1400 
     81 CB          0.1802  -25.1657  -49.9159 C.3       14 UNK        -0.1800 
     82 C          -1.9663  -26.2664  -50.6734 C.2       14 UNK         0.5000 
     83 O          -1.7482  -26.9887  -51.6462 O.2       14 UNK        -0.5000 
     84 N          -3.0887  -25.5541  -50.5122 N.am      15 UNK        -0.5000 
     85 CA         -4.2481  -25.5660  -51.4041 C.3       15 UNK         0.1400 
     86 CB         -4.6643  -24.1107  -51.6670 C.3       15 UNK        -0.1800 
     87 C          -5.4170  -26.3902  -50.8226 C.2       15 UNK         0.5000 
     88 O          -6.5452  -26.2559  -51.2994 O.2       15 UNK        -0.5000 
     89 N          -5.1481  -27.2036  -49.7872 N.am      16 UNK        -0.5000 
     90 CA         -6.0835  -28.0843  -49.0736 C.3       16 UNK         0.1400 
     91 CB         -6.5129  -29.2526  -49.9849 C.3       16 UNK        -0.1800 
     92 C          -7.2902  -27.3484  -48.4471 C.2       16 UNK         0.5000 
     93 O          -8.3591  -27.9413  -48.2942 O.2       16 UNK        -0.5000 
     94 N          -7.1003  -26.0613  -48.1206 N.am      17 UNK        -0.5000 
     95 CA         -8.0813  -25.0964  -47.6141 C.3       17 UNK         0.1400 
     96 CB         -8.6063  -25.5194  -46.2271 C.3       17 UNK        -0.1800 
     97 C          -9.2211  -24.7595  -48.6028 C.2       17 UNK         0.5000 
     98 O         -10.1927  -24.1164  -48.2020 O.2       17 UNK        -0.5000 
     99 N          -9.0892  -25.1623  -49.8759 N.am      18 UNK        -0.5000 
    100 CA       -10.0446  -24.8526  -50.9436 C.3       18 UNK         0.1400 
    101 CB        -9.9122  -25.9060  -52.0541 C.3       18 UNK        -0.1800 
    102 C         -9.8402  -23.4364  -51.5157 C.2       18 UNK         0.5000 
    103 O        -10.7727  -22.8655  -52.0825 O.2       18 UNK        -0.5000 
    104 N         -8.6277  -22.9013  -51.3479 N.am      19 UNK        -0.5000 
    105 CA        -8.1800  -21.5717  -51.7409 C.3       19 UNK         0.1400 
    106 CB        -7.9985  -21.4950  -53.2739 C.3       19 UNK        -0.1800 
    107 C         -6.8914  -21.2855  -50.9482 C.2       19 UNK         0.5000 
    108 O         -6.7583  -21.7671  -49.8199 O.2       19 UNK        -0.5000 
    109 N         -5.9489  -20.5579  -51.5537 N.am      20 UNK        -0.5000 
    110 CA        -4.5795  -20.4066  -51.0803 C.3       20 UNK         0.1400 
    111 CB        -4.4206  -19.0892  -50.3066 C.3       20 UNK        -0.1800 
    112 C         -3.6468  -20.4786  -52.2938 C.2       20 UNK         0.5000 
    113 O         -4.0186  -20.0226  -53.3786 O.2       20 UNK        -0.5000 
    114 N         -2.4604  -21.0622  -52.0956 N.am      21 UNK        -0.5000 
    115 CA        -1.4539  -21.3517  -53.1209 C.3       21 UNK         0.1400 
    116 CB        -0.5403  -22.4710  -52.5875 C.3       21 UNK        -0.1800 
    117 C         -0.6627  -20.1068  -53.5874 C.2       21 UNK         0.5000 
    118 O          0.5670  -20.1433  -53.6473 O.2       21 UNK        -0.5000 
    119 N         -1.3783  -19.0219  -53.9009 N.am      22 UNK        -0.5000 
    120 CA        -0.8241  -17.7147  -54.2952 C.3       22 UNK         0.1400 
    121 C         -0.2782  -17.6453  -55.7520 C.2       22 UNK         0.5000 
    122 N         -0.4897  -18.6492  -56.5945 N.am      22 UNK        -0.7600 
    123 O          0.3539  -16.6611  -56.1259 O.2       22 UNK        -0.5000 
    124 C124       -1.8197  -16.5521  -54.0283 C.3       23 UNK        -0.0398 
    125 S125       -2.5821  -16.5843  -52.3673 S.3       23 UNK        -0.2404 
    126 C126       -1.5237  -15.4355  -51.4230 C.3       23 UNK        -0.0205 
    127 H127        8.9483  -12.2798  -48.4731 H         1 UNK         0.0600 
    128 H128        8.7855  -14.0095  -48.7884 H         1 UNK         0.0600 
    129 H129        8.3341  -12.8406  -50.0319 H         1 UNK         0.0600 
    130 H130        7.0568  -14.8732  -47.7729 H         1 UNK         0.3000 
    131 H131        5.2474  -15.2013  -46.6380 H         1 UNK         0.0600 
    132 H132        4.4125  -15.5942  -48.8665 H         1 UNK         0.0800 
    133 H133        3.1356  -15.1054  -47.8070 H         1 UNK         0.0800 
    134 H134        3.2539  -13.6986  -51.8789 H         1 UNK         0.0800 
    135 H135        4.3672  -14.8816  -51.2426 H         1 UNK         0.0800 
    136 H136        0.7529  -13.9544  -51.4308 H         1 UNK         0.1150 
    137 H137       -0.6134  -17.9852  -50.9245 H         1 UNK         0.1150 
    138 H138        3.5617  -17.0874  -50.6256 H         1 UNK         0.1150 
    139 H139        1.1652  -19.8034  -51.0877 H         1 UNK         0.0800 
    140 H140        2.8315  -19.3893  -50.8062 H         1 UNK         0.0800 
    141 H141       -0.6166  -19.7582  -49.5546 H         1 UNK         0.0800 
    142 H142       -0.5866  -19.1966  -47.9035 H         1 UNK         0.0800 
    143 H143        0.2222  -22.0179  -48.7433 H         1 UNK         0.0600 
    144 H144        0.3782  -20.7391  -46.2352 H         1 UNK         0.3000 
    145 H145        0.9761  -23.8087  -44.4373 H         1 UNK         0.0600 
    146 H146        3.0652  -22.5220  -44.0541 H         1 UNK         0.0600 
    147 H147        3.0215  -23.1530  -45.6937 H         1 UNK         0.0600 
    148 H148        2.6842  -21.4503  -45.4005 H         1 UNK         0.0600 
    149 H149        0.5517  -20.8530  -44.1673 H         1 UNK         0.3000 
    150 H150       -2.0440  -21.3437  -41.8412 H         1 UNK         0.0600 
    151 H151       -0.0845  -21.4156  -40.2828 H         1 UNK         0.0600 
    152 H152       -0.7787  -19.8047  -40.3648 H         1 UNK         0.0600 
    153 H153        0.7198  -20.1652  -41.2240 H         1 UNK         0.0600 
    154 H154       -0.8576  -18.9457  -42.7297 H         1 UNK         0.3000 
    155 H155       -2.1365  -18.7655  -46.0134 H         1 UNK         0.0600 
    156 H156       -3.3760  -16.7817  -45.2328 H         1 UNK         0.0600 
    157 H157       -3.2258  -17.3029  -43.5539 H         1 UNK         0.0600 
    158 H158       -4.1927  -18.2380  -44.6892 H         1 UNK         0.0600 
    159 H159       -1.0058  -16.6742  -44.6711 H         1 UNK         0.3000 
    160 H160        1.6795  -16.6909  -44.0641 H         1 UNK         0.0600 
    161 H161        2.6696  -17.4756  -46.8505 H         1 UNK         0.0600 
    162 H162        3.1972  -18.2125  -45.3433 H         1 UNK         0.0600 
    163 H163        3.5402  -16.5211  -45.6502 H         1 UNK         0.0600 
    164 H164        0.9763  -14.8650  -45.0235 H         1 UNK         0.3000 
    165 H165        0.0881  -13.9413  -48.3190 H         1 UNK         0.0600 
    166 H166       -2.0089  -14.2017  -46.0900 H         1 UNK         0.0600 
    167 H167       -2.1428  -13.1915  -47.5280 H         1 UNK         0.0600 
    168 H168       -2.1407  -14.9391  -47.6835 H         1 UNK         0.0600 
    169 H169        0.8350  -13.2155  -45.6065 H         1 UNK         0.3000 
    170 H170        2.0758  -10.6735  -46.0871 H         1 UNK         0.0600 
    171 H171        0.7780   -8.9178  -47.2182 H         1 UNK         0.0600 
    172 H172       -0.5804   -9.1531  -46.1270 H         1 UNK         0.0600 
    173 H173        0.9470   -8.5157  -45.5184 H         1 UNK         0.0600 
    174 H174        1.6505  -11.1357  -43.9751 H         1 UNK         0.3000 
    175 H175       -0.4568  -10.8548  -41.7847 H         1 UNK         0.0600 
    176 H176       -1.3074  -13.1104  -41.0624 H         1 UNK         0.0600 
    177 H177       -2.3712  -12.3380  -42.2244 H         1 UNK         0.0600 
    178 H178       -1.3107  -13.6388  -42.7447 H         1 UNK         0.0600 
    179 H179        1.5174  -11.7170  -41.3093 H         1 UNK         0.3000 
    180 H180        3.2660  -12.9912  -41.1264 H         1 UNK         0.0600 
    181 H181        3.3237  -15.6240  -42.6942 H         1 UNK         0.0600 
    182 H182        2.5860  -15.4244  -41.1086 H         1 UNK         0.0600 
    183 H183        4.3174  -15.1999  -41.3032 H         1 UNK         0.0600 
    184 H184        4.7142  -13.7907  -43.4333 H         1 UNK         0.3000 
    185 H185        5.0007  -10.7365  -45.1468 H         1 UNK         0.0600 
    186 H186        7.4200  -10.9100  -44.6726 H         1 UNK         0.0600 
    187 H187        6.5773  -10.3371  -43.2428 H         1 UNK         0.0600 
    188 H188        7.1129  -12.0111  -43.3286 H         1 UNK         0.0600 
    189 H189        6.5108  -13.0158  -45.5778 H         1 UNK         0.3000 
    190 H190       -2.4100  -21.4591  -46.4085 H         1 UNK         0.3000 
    191 H191       -4.4844  -22.0780  -48.3797 H         1 UNK         0.0600 
    192 H192       -4.9466  -20.6707  -46.3437 H         1 UNK         0.0600 
    193 H193       -6.0046  -22.0646  -46.5012 H         1 UNK         0.0600 
    194 H194       -4.6919  -22.0976  -45.3352 H         1 UNK         0.0600 
    195 H195       -2.5921  -23.8133  -45.8987 H         1 UNK         0.3000 
    196 H196       -3.9279  -26.3236  -46.0949 H         1 UNK         0.0600 
    197 H197       -1.9277  -27.1869  -44.8943 H         1 UNK         0.0600 
    198 H198       -2.4981  -25.6959  -44.1609 H         1 UNK         0.0600 
    199 H199       -1.0682  -25.6825  -45.1895 H         1 UNK         0.0600 
    200 H200       -1.1188  -24.9583  -47.8204 H         1 UNK         0.3000 
    201 H201       -0.4548  -27.1632  -49.4482 H         1 UNK         0.0600 
    202 H202        0.9735  -25.1506  -49.1683 H         1 UNK         0.0600 
    203 H203       -0.2216  -24.1558  -49.9973 H         1 UNK         0.0600 
    204 H204        0.6393  -25.4149  -50.8734 H         1 UNK         0.0600 
    205 H205       -3.1953  -25.0067  -49.6678 H         1 UNK         0.3000 
    206 H206       -3.9868  -26.0202  -52.3616 H         1 UNK         0.0600 
    207 H207       -3.8496  -23.5522  -52.1260 H         1 UNK         0.0600 
    208 H208       -5.5177  -24.0514  -52.3436 H         1 UNK         0.0600 
    209 H209       -4.9378  -23.6071  -50.7401 H         1 UNK         0.0600 
    210 H210       -4.1992  -27.2197  -49.4318 H         1 UNK         0.3000 
    211 H211       -5.5237  -28.5057  -48.2377 H         1 UNK         0.0600 
    212 H212       -7.1326  -28.9106  -50.8145 H         1 UNK         0.0600 
    213 H213       -7.0889  -29.9938  -49.4297 H         1 UNK         0.0600 
    214 H214       -5.6464  -29.7654  -50.4024 H         1 UNK         0.0600 
    215 H215       -6.1753  -25.6650  -48.2787 H         1 UNK         0.3000 
    216 H216       -7.5288  -24.1650  -47.4813 H         1 UNK         0.0600 
    217 H217       -7.7846  -25.7320  -45.5432 H         1 UNK         0.0600 
    218 H218       -9.2354  -26.4080  -46.2844 H         1 UNK         0.0600 
    219 H219       -9.2041  -24.7268  -45.7758 H         1 UNK         0.0600 
    220 H220       -8.2585  -25.6772  -50.1473 H         1 UNK         0.3000 
    221 H221      -11.0587  -24.9090  -50.5426 H         1 UNK         0.0600 
    222 H222       -8.9298  -25.8732  -52.5262 H         1 UNK         0.0600 
    223 H223      -10.0633  -26.9126  -51.6638 H         1 UNK         0.0600 
    224 H224      -10.6560  -25.7440  -52.8352 H         1 UNK         0.0600 
    225 H225       -7.9498  -23.4189  -50.8038 H         1 UNK         0.3000 
    226 H226       -8.9278  -20.8409  -51.4277 H         1 UNK         0.0600 
    227 H227       -8.9164  -21.7604  -53.7979 H         1 UNK         0.0600 
    228 H228       -7.7379  -20.4860  -53.5948 H         1 UNK         0.0600 
    229 H229       -7.2148  -22.1706  -53.6194 H         1 UNK         0.0600 
    230 H230       -6.0974  -20.2355  -52.5017 H         1 UNK         0.3000 
    231 H231       -4.3287  -21.2381  -50.4248 H         1 UNK         0.0600 
    232 H232       -3.3852  -18.9372  -49.9986 H         1 UNK         0.0600 
    233 H233       -5.0324  -19.0897  -49.4044 H         1 UNK         0.0600 
    234 H234       -4.7161  -18.2316  -50.9117 H         1 UNK         0.0600 
    235 H235       -2.2593  -21.4297  -51.1683 H         1 UNK         0.3000 
    236 H236       -1.9693  -21.7410  -54.0012 H         1 UNK         0.0600 
    237 H237        0.1896  -22.7776  -53.3376 H         1 UNK         0.0600 
    238 H238        0.0096  -22.1510  -51.7015 H         1 UNK         0.0600 
    239 H239       -1.1179  -23.3564  -52.3200 H         1 UNK         0.0600 
    240 H240       -2.3891  -19.0827  -53.8252 H         1 UNK         0.3000 
    241 H241        0.0490  -17.5384  -53.6665 H         1 UNK         0.0600 
    242 H242       -1.0063  -19.4625  -56.3008 H         1 UNK         0.3800 
    243 H243       -0.1288  -18.5952  -57.5342 H         1 UNK         0.3800 
    244 H244       -1.3275  -15.5887  -54.1722 H         1 UNK         0.0800 
    245 H245       -2.6326  -16.5858  -54.7556 H         1 UNK         0.0800 
    246 H246       -1.5327  -14.4644  -51.9204 H         1 UNK         0.0800 
    247 H247       -1.9718  -15.2822  -50.4405 H         1 UNK         0.0800 
@<TRIPOS>BOND
     1    1    2 1    
     2    1  127 1    
     3    1  128 1    
     4    1  129 1    
     5    2    3 2    
     6    2    4 am   BACKBONE|DICT|INTERRES
     7    4    5 1    
     8    4  130 1    
     9    5    6 1    
    10    5   65 1    
    11    5  131 1    
    12    6    7 1    
    13    6  132 1    
    14    6  133 1    
    15    7    8 1    
    16    8    9 1    
    17    8  134 1    
    18    8  135 1    
    19    9   10 ar   
    20    9   14 ar   
    21   10   11 ar   
    22   10  136 1    
    23   11   12 ar   
    24   11  126 1    
    25   12   13 ar   
    26   12  137 1    
    27   13   14 ar   
    28   13   15 1    
    29   14  138 1    
    30   15   16 1    
    31   15  139 1    
    32   15  140 1    
    33   16   17 1    
    34   17   18 1    
    35   17  141 1    
    36   17  142 1    
    37   18   19 1    
    38   18   67 1    
    39   18  143 1    
    40   19   20 am   BACKBONE|DICT|INTERRES
    41   19  144 1    
    42   20   21 2    
    43   20   22 1    
    44   22   23 1    
    45   22   24 1    
    46   22  145 1    
    47   23  146 1    
    48   23  147 1    
    49   23  148 1    
    50   24   25 am   BACKBONE|DICT|INTERRES
    51   24  149 1    
    52   25   26 2    
    53   25   27 1    
    54   27   28 1    
    55   27   29 1    
    56   27  150 1    
    57   28  151 1    
    58   28  152 1    
    59   28  153 1    
    60   29   30 am   BACKBONE|DICT|INTERRES
    61   29  154 1    
    62   30   31 2    
    63   30   32 1    
    64   32   33 1    
    65   32   34 1    
    66   32  155 1    
    67   33  156 1    
    68   33  157 1    
    69   33  158 1    
    70   34   35 am   BACKBONE|DICT|INTERRES
    71   34  159 1    
    72   35   36 2    
    73   35   37 1    
    74   37   38 1    
    75   37   39 1    
    76   37  160 1    
    77   38  161 1    
    78   38  162 1    
    79   38  163 1    
    80   39   40 am   BACKBONE|DICT|INTERRES
    81   39  164 1    
    82   40   41 2    
    83   40   42 1    
    84   42   43 1    
    85   42   44 1    
    86   42  165 1    
    87   43  166 1    
    88   43  167 1    
    89   43  168 1    
    90   44   45 am   BACKBONE|DICT|INTERRES
    91   44  169 1    
    92   45   46 2    
    93   45   47 1    
    94   47   48 1    
    95   47   49 1    
    96   47  170 1    
    97   48  171 1    
    98   48  172 1    
    99   48  173 1    
   100   49   50 am   BACKBONE|DICT|INTERRES
   101   49  174 1    
   102   50   51 2    
   103   50   52 1    
   104   52   53 1    
   105   52   54 1    
   106   52  175 1    
   107   53  176 1    
   108   53  177 1    
   109   53  178 1    
   110   54   55 am   BACKBONE|DICT|INTERRES
   111   54  179 1    
   112   55   56 2    
   113   55   57 1    
   114   57   58 1    
   115   57   59 1    
   116   57  180 1    
   117   58  181 1    
   118   58  182 1    
   119   58  183 1    
   120   59   60 am   BACKBONE|DICT|INTERRES
   121   59  184 1    
   122   60   61 2    
   123   60   62 1    
   124   62   63 1    
   125   62   64 1    
   126   62  185 1    
   127   63  186 1    
   128   63  187 1    
   129   63  188 1    
   130   64   65 am   BACKBONE|DICT|INTERRES
   131   64  189 1    
   132   65   66 2    
   133   67   68 2    
   134   67   69 am   BACKBONE|DICT|INTERRES
   135   69   70 1    
   136   69  190 1    
   137   70   71 1    
   138   70   72 1    
   139   70  191 1    
   140   71  192 1    
   141   71  193 1    
   142   71  194 1    
   143   72   73 2    
   144   72   74 am   BACKBONE|DICT|INTERRES
   145   74   75 1    
   146   74  195 1    
   147   75   76 1    
   148   75   77 1    
   149   75  196 1    
   150   76  197 1    
   151   76  198 1    
   152   76  199 1    
   153   77   78 2    
   154   77   79 am   BACKBONE|DICT|INTERRES
   155   79   80 1    
   156   79  200 1    
   157   80   81 1    
   158   80   82 1    
   159   80  201 1    
   160   81  202 1    
   161   81  203 1    
   162   81  204 1    
   163   82   83 2    
   164   82   84 am   BACKBONE|DICT|INTERRES
   165   84   85 1    
   166   84  205 1    
   167   85   86 1    
   168   85   87 1    
   169   85  206 1    
   170   86  207 1    
   171   86  208 1    
   172   86  209 1    
   173   87   88 2    
   174   87   89 am   BACKBONE|DICT|INTERRES
   175   89   90 1    
   176   89  210 1    
   177   90   91 1    
   178   90   92 1    
   179   90  211 1    
   180   91  212 1    
   181   91  213 1    
   182   91  214 1    
   183   92   93 2    
   184   92   94 am   BACKBONE|DICT|INTERRES
   185   94   95 1    
   186   94  215 1    
   187   95   96 1    
   188   95   97 1    
   189   95  216 1    
   190   96  217 1    
   191   96  218 1    
   192   96  219 1    
   193   97   98 2    
   194   97   99 am   BACKBONE|DICT|INTERRES
   195   99  100 1    
   196   99  220 1    
   197  100  101 1    
   198  100  102 1    
   199  100  221 1    
   200  101  222 1    
   201  101  223 1    
   202  101  224 1    
   203  102  103 2    
   204  102  104 am   BACKBONE|DICT|INTERRES
   205  104  105 1    
   206  104  225 1    
   207  105  106 1    
   208  105  107 1    
   209  105  226 1    
   210  106  227 1    
   211  106  228 1    
   212  106  229 1    
   213  107  108 2    
   214  107  109 am   BACKBONE|DICT|INTERRES
   215  109  110 1    
   216  109  230 1    
   217  110  111 1    
   218  110  112 1    
   219  110  231 1    
   220  111  232 1    
   221  111  233 1    
   222  111  234 1    
   223  112  113 2    
   224  112  114 am   BACKBONE|DICT|INTERRES
   225  114  115 1    
   226  114  235 1    
   227  115  116 1    
   228  115  117 1    
   229  115  236 1    
   230  116  237 1    
   231  116  238 1    
   232  116  239 1    
   233  117  118 2    
   234  117  119 am   BACKBONE|DICT|INTERRES
   235  119  120 1    
   236  119  240 1    
   237  120  121 1    
   238  120  124 1    
   239  120  241 1    
   240  121  122 am   BACKBONE|DICT|INTERRES
   241  121  123 2    
   242  122  242 1    
   243  122  243 1    
   244  124  125 1    
   245  124  244 1    
   246  124  245 1    
   247  125  126 1    
   248  126  246 1    
   249  126  247 1    
@<TRIPOS>SUBSTRUCTURE
     1 UNK         1 GROUP             0       ****    0 ROOT    
