@<TRIPOS>MOLECULE
3R540
247   249    1
SMALL
USER_CHARGES


@<TRIPOS>ATOM
      1 CA          2.8860  -10.2417  -52.5601 C.3       0 UNK        -0.1800 
      2 C           3.3100  -11.4891  -51.7977 C.2       0 UNK         0.5000 
      3 O           4.3304  -12.0925  -52.1297 O.2       0 UNK        -0.5000 
      4 N           2.5304  -11.8766  -50.7801 N.am      1 UNK        -0.5000 
      5 CA          2.7717  -13.0536  -49.9333 C.3       1 UNK         0.1400 
      6 C6          1.5339  -13.4172  -49.0770 C.3       23 UNK        -0.0398 
      7 S7          0.0187  -13.6771  -50.0545 S.3       23 UNK        -0.2404 
      8 C8         -1.1563  -14.1031  -48.7227 C.3       23 UNK        -0.0205 
      9 C9         -1.5276  -15.5834  -48.6316 C.ar      23 UNK        -0.0193 
     10 C10        -2.7754  -15.9206  -48.0965 C.ar      23 UNK        -0.1150 
     11 C11        -3.1850  -17.2533  -48.0155 C.ar      23 UNK        -0.0193 
     12 C12        -2.3238  -18.2606  -48.4533 C.ar      23 UNK        -0.1150 
     13 C13        -1.0674  -17.9477  -48.9760 C.ar      23 UNK        -0.0193 
     14 C14        -0.6709  -16.6091  -49.0577 C.ar      23 UNK        -0.1150 
     15 C15        -0.1625  -19.0624  -49.4830 C.3       23 UNK        -0.0205 
     16 S16         1.2306  -19.4271  -48.3662 S.3       23 UNK        -0.2404 
     17 C17         0.4158  -19.7872  -46.7723 C.3       23 UNK        -0.0398 
     18 CA          0.2081  -21.2977  -46.5121 C.3       11 UNK         0.1400 
     19 N          -0.0431  -21.5782  -45.0974 N.am      11 UNK        -0.5000 
     20 C           0.0112  -22.7978  -44.5432 C.2       10 UNK         0.5000 
     21 O           0.3651  -23.8086  -45.1504 O.2       10 UNK        -0.5000 
     22 CA         -0.4641  -22.9148  -43.0829 C.3       10 UNK         0.1400 
     23 CB          0.6935  -22.6714  -42.1046 C.3       10 UNK        -0.1800 
     24 N          -1.5645  -21.9944  -42.7867 N.am      10 UNK        -0.5000 
     25 C          -2.8102  -22.1539  -43.2575 C.2       9 UNK         0.5000 
     26 O          -3.1576  -23.1201  -43.9353 O.2       9 UNK        -0.5000 
     27 CA         -3.8268  -21.0313  -42.9720 C.3       9 UNK         0.1400 
     28 CB         -4.5609  -21.2943  -41.6494 C.3       9 UNK        -0.1800 
     29 N          -3.2301  -19.6955  -42.9342 N.am      9 UNK        -0.5000 
     30 C          -2.5809  -19.1078  -43.9485 C.2       8 UNK         0.5000 
     31 O          -2.4423  -19.6281  -45.0539 O.2       8 UNK        -0.5000 
     32 CA         -1.9453  -17.7303  -43.6771 C.3       8 UNK         0.1400 
     33 CB         -2.6894  -16.9283  -42.5886 C.3       8 UNK        -0.1800 
     34 N          -0.5164  -17.8058  -43.3502 N.am      8 UNK        -0.5000 
     35 C           0.0786  -18.5613  -42.4118 C.2       7 UNK         0.5000 
     36 O          -0.4879  -19.4395  -41.7606 O.2       7 UNK        -0.5000 
     37 CA          1.5566  -18.2487  -42.1172 C.3       7 UNK         0.1400 
     38 CB          2.4863  -18.8927  -43.1580 C.3       7 UNK        -0.1800 
     39 N           1.8007  -16.8063  -42.0528 N.am      7 UNK        -0.5000 
     40 C           1.3787  -16.0076  -41.0597 C.2       6 UNK         0.5000 
     41 O           0.8126  -16.4188  -40.0465 O.2       6 UNK        -0.5000 
     42 CA          1.6182  -14.4950  -41.2249 C.3       6 UNK         0.1400 
     43 CB          2.9331  -14.0759  -40.5495 C.3       6 UNK        -0.1800 
     44 N           1.6414  -14.0964  -42.6332 N.am      6 UNK        -0.5000 
     45 C           0.5389  -13.8712  -43.3656 C.2       5 UNK         0.5000 
     46 O          -0.5998  -13.8785  -42.8997 O.2       5 UNK        -0.5000 
     47 CA          0.7274  -13.6125  -44.8747 C.3       5 UNK         0.1400 
     48 CB          0.7452  -12.1029  -45.1557 C.3       5 UNK        -0.1800 
     49 N           1.9427  -14.2279  -45.4136 N.am      5 UNK        -0.5000 
     50 C           2.1408  -15.5539  -45.4879 C.2       4 UNK         0.5000 
     51 O           1.2698  -16.3800  -45.2134 O.2       4 UNK        -0.5000 
     52 CA          3.5580  -16.0493  -45.8447 C.3       4 UNK         0.1400 
     53 CB          3.6032  -16.6585  -47.2498 C.3       4 UNK        -0.1800 
     54 N           4.5917  -15.0196  -45.7175 N.am      4 UNK        -0.5000 
     55 C           5.0001  -14.5122  -44.5444 C.2       3 UNK         0.5000 
     56 O           4.5270  -14.8624  -43.4631 O.2       3 UNK        -0.5000 
     57 CA          6.0739  -13.4058  -44.5738 C.3       3 UNK         0.1400 
     58 CB          7.4628  -14.0020  -44.3024 C.3       3 UNK        -0.1800 
     59 N           6.1169  -12.6442  -45.8248 N.am      3 UNK        -0.5000 
     60 C           5.1143  -11.8993  -46.3090 C.2       2 UNK         0.5000 
     61 O           4.0275  -11.7762  -45.7410 O.2       2 UNK        -0.5000 
     62 CA          5.3257  -11.2120  -47.6753 C.3       2 UNK         0.1400 
     63 CB          6.7320  -11.4133  -48.2843 C.3       2 UNK        -0.1800 
     64 N           4.2901  -11.6199  -48.6292 N.am      2 UNK        -0.5000 
     65 C           3.9960  -12.8740  -49.0094 C.2       1 UNK         0.5000 
     66 O           4.6278  -13.8658  -48.6428 O.2       1 UNK        -0.5000 
     67 C          -0.9161  -21.8896  -47.3852 C.2       11 UNK         0.5000 
     68 O          -0.6251  -22.5326  -48.3914 O.2       11 UNK        -0.5000 
     69 N          -2.1756  -21.7139  -46.9591 N.am      12 UNK        -0.5000 
     70 CA         -3.3577  -22.2844  -47.6055 C.3       12 UNK         0.1400 
     71 CB         -4.6297  -21.7669  -46.9218 C.3       12 UNK        -0.1800 
     72 C          -3.3426  -23.8233  -47.6261 C.2       12 UNK         0.5000 
     73 O          -3.7006  -24.4149  -48.6445 O.2       12 UNK        -0.5000 
     74 N          -2.8980  -24.4421  -46.5236 N.am      13 UNK        -0.5000 
     75 CA         -2.6874  -25.8849  -46.4104 C.3       13 UNK         0.1400 
     76 CB         -2.3629  -26.2533  -44.9552 C.3       13 UNK        -0.1800 
     77 C          -1.5934  -26.3909  -47.3676 C.2       13 UNK         0.5000 
     78 O          -1.8238  -27.3659  -48.0836 O.2       13 UNK        -0.5000 
     79 N          -0.4494  -25.6906  -47.4076 N.am      14 UNK        -0.5000 
     80 CA          0.6661  -25.9669  -48.3196 C.3       14 UNK         0.1400 
     81 CB          1.8615  -25.0754  -47.9514 C.3       14 UNK        -0.1800 
     82 C           0.2932  -25.7962  -49.8065 C.2       14 UNK         0.5000 
     83 O           0.7717  -26.5582  -50.6468 O.2       14 UNK        -0.5000 
     84 N          -0.5898  -24.8317  -50.0941 N.am      15 UNK        -0.5000 
     85 CA         -1.1752  -24.5650  -51.4088 C.3       15 UNK         0.1400 
     86 CB         -1.6699  -23.1097  -51.4386 C.3       15 UNK        -0.1800 
     87 C          -2.3003  -25.5479  -51.8085 C.2       15 UNK         0.5000 
     88 O          -2.8652  -25.3890  -52.8905 O.2       15 UNK        -0.5000 
     89 N          -2.5934  -26.5429  -50.9553 N.am      16 UNK        -0.5000 
     90 CA         -3.5893  -27.6051  -51.1193 C.3       16 UNK         0.1400 
     91 CB         -3.2766  -28.4868  -52.3474 C.3       16 UNK        -0.1800 
     92 C          -5.0257  -27.0506  -51.1117 C.2       16 UNK         0.5000 
     93 O          -5.7278  -27.1142  -52.1224 O.2       16 UNK        -0.5000 
     94 N          -5.4188  -26.5146  -49.9475 N.am      17 UNK        -0.5000 
     95 CA         -6.7058  -25.8779  -49.6461 C.3       17 UNK         0.1400 
     96 CB         -7.8835  -26.8615  -49.8148 C.3       17 UNK        -0.1800 
     97 C          -6.8834  -24.5608  -50.4243 C.2       17 UNK         0.5000 
     98 O          -7.9155  -24.3376  -51.0610 O.2       17 UNK        -0.5000 
     99 N          -5.8445  -23.7191  -50.3488 N.am      18 UNK        -0.5000 
    100 CA        -5.6678  -22.4061  -50.9712 C.3       18 UNK         0.1400 
    101 CB        -6.7613  -21.4109  -50.5396 C.3       18 UNK        -0.1800 
    102 C         -5.5226  -22.4653  -52.4996 C.2       18 UNK         0.5000 
    103 O         -4.4986  -22.0259  -53.0198 O.2       18 UNK        -0.5000 
    104 N         -6.5397  -22.9955  -53.1905 N.am      19 UNK        -0.5000 
    105 CA        -6.6722  -23.0683  -54.6468 C.3       19 UNK         0.1400 
    106 CB        -5.6730  -24.0921  -55.2312 C.3       19 UNK        -0.1800 
    107 C         -6.5827  -21.6652  -55.2863 C.2       19 UNK         0.5000 
    108 O         -7.5652  -20.9232  -55.2460 O.2       19 UNK        -0.5000 
    109 N         -5.4139  -21.3221  -55.8417 N.am      20 UNK        -0.5000 
    110 CA        -5.1109  -20.0114  -56.4166 C.3       20 UNK         0.1400 
    111 CB        -4.0324  -20.1919  -57.4970 C.3       20 UNK        -0.1800 
    112 C         -4.6546  -18.9707  -55.3715 C.2       20 UNK         0.5000 
    113 O         -4.6542  -17.7786  -55.6837 O.2       20 UNK        -0.5000 
    114 N         -4.2481  -19.4173  -54.1743 N.am      21 UNK        -0.5000 
    115 CA        -3.7905  -18.5626  -53.0772 C.3       21 UNK         0.1400 
    116 CB        -2.9011  -19.3902  -52.1313 C.3       21 UNK        -0.1800 
    117 C         -4.9596  -17.9130  -52.3090 C.2       21 UNK         0.5000 
    118 O         -6.1280  -18.2206  -52.5601 O.2       21 UNK        -0.5000 
    119 N         -4.6004  -17.0360  -51.3642 N.am      22 UNK        -0.5000 
    120 CA        -5.5014  -16.2438  -50.5105 C.3       22 UNK         0.1400 
    121 C         -6.2882  -15.1454  -51.2932 C.2       22 UNK         0.5000 
    122 N         -7.2889  -14.5155  -50.6900 N.am      22 UNK        -0.7600 
    123 O         -5.9737  -14.8117  -52.4340 O.2       22 UNK        -0.5000 
    124 C124       -6.4092  -17.1033  -49.5770 C.3       23 UNK        -0.0398 
    125 S125       -5.5802  -18.4741  -48.6964 S.3       23 UNK        -0.2404 
    126 C126       -4.5545  -17.6144  -47.4592 C.3       23 UNK        -0.0205 
    127 H127        3.6654   -9.4821  -52.4997 H         1 UNK         0.0600 
    128 H128        1.9647   -9.8161  -52.1616 H         1 UNK         0.0600 
    129 H129        2.7227  -10.4816  -53.6107 H         1 UNK         0.0600 
    130 H130        1.6871  -11.3585  -50.5772 H         1 UNK         0.3000 
    131 H131        2.9860  -13.8990  -50.5908 H         1 UNK         0.0600 
    132 H132        1.7167  -14.3232  -48.4986 H         1 UNK         0.0800 
    133 H133        1.3339  -12.6257  -48.3542 H         1 UNK         0.0800 
    134 H134       -0.7684  -13.7781  -47.7572 H         1 UNK         0.0800 
    135 H135       -2.0605  -13.5175  -48.8962 H         1 UNK         0.0800 
    136 H136       -3.4392  -15.1384  -47.7555 H         1 UNK         0.1150 
    137 H137       -2.6417  -19.2917  -48.3933 H         1 UNK         0.1150 
    138 H138        0.3033  -16.3764  -49.4620 H         1 UNK         0.1150 
    139 H139       -0.7353  -19.9752  -49.6530 H         1 UNK         0.0800 
    140 H140        0.2389  -18.7792  -50.4570 H         1 UNK         0.0800 
    141 H141       -0.5123  -19.2277  -46.6758 H         1 UNK         0.0800 
    142 H142        1.0707  -19.3777  -46.0035 H         1 UNK         0.0800 
    143 H143        1.1341  -21.8120  -46.7791 H         1 UNK         0.0600 
    144 H144       -0.4229  -20.8200  -44.5500 H         1 UNK         0.3000 
    145 H145       -0.8198  -23.9362  -42.9319 H         1 UNK         0.0600 
    146 H146        0.3756  -22.8279  -41.0737 H         1 UNK         0.0600 
    147 H147        1.5192  -23.3573  -42.2983 H         1 UNK         0.0600 
    148 H148        1.0833  -21.6576  -42.1820 H         1 UNK         0.0600 
    149 H149       -1.3362  -21.1530  -42.2642 H         1 UNK         0.3000 
    150 H150       -4.5630  -21.0393  -43.7776 H         1 UNK         0.0600 
    151 H151       -5.3441  -20.5555  -41.4788 H         1 UNK         0.0600 
    152 H152       -5.0372  -22.2757  -41.6557 H         1 UNK         0.0600 
    153 H153       -3.8791  -21.2651  -40.7984 H         1 UNK         0.0600 
    154 H154       -3.2526  -19.2174  -42.0454 H         1 UNK         0.3000 
    155 H155       -2.0201  -17.1704  -44.6110 H         1 UNK         0.0600 
    156 H156       -2.5664  -17.3635  -41.5962 H         1 UNK         0.0600 
    157 H157       -3.7580  -16.8717  -42.8002 H         1 UNK         0.0600 
    158 H158       -2.3192  -15.9049  -42.5416 H         1 UNK         0.0600 
    159 H159        0.0766  -17.1778  -43.8862 H         1 UNK         0.3000 
    160 H160        1.7991  -18.6782  -41.1427 H         1 UNK         0.0600 
    161 H161        2.2938  -18.5233  -44.1632 H         1 UNK         0.0600 
    162 H162        2.3592  -19.9746  -43.1831 H         1 UNK         0.0600 
    163 H163        3.5328  -18.6958  -42.9250 H         1 UNK         0.0600 
    164 H164        2.2543  -16.3828  -42.8480 H         1 UNK         0.3000 
    165 H165        0.8035  -13.9709  -40.7203 H         1 UNK         0.0600 
    166 H166        3.1176  -13.0084  -40.6703 H         1 UNK         0.0600 
    167 H167        2.9004  -14.2812  -39.4788 H         1 UNK         0.0600 
    168 H168        3.7892  -14.6139  -40.9565 H         1 UNK         0.0600 
    169 H169        2.5490  -14.0853  -43.0826 H         1 UNK         0.3000 
    170 H170       -0.1295  -14.0484  -45.3923 H         1 UNK         0.0600 
    171 H171       -0.1819  -11.6348  -44.8225 H         1 UNK         0.0600 
    172 H172        1.5655  -11.6074  -44.6353 H         1 UNK         0.0600 
    173 H173        0.8483  -11.8933  -46.2189 H         1 UNK         0.0600 
    174 H174        2.7125  -13.6030  -45.6204 H         1 UNK         0.3000 
    175 H175        3.8049  -16.8444  -45.1386 H         1 UNK         0.0600 
    176 H176        3.2445  -15.9702  -48.0122 H         1 UNK         0.0600 
    177 H177        4.6132  -16.9665  -47.5200 H         1 UNK         0.0600 
    178 H178        2.9753  -17.5448  -47.2913 H         1 UNK         0.0600 
    179 H179        4.9797  -14.6550  -46.5798 H         1 UNK         0.3000 
    180 H180        5.8387  -12.7069  -43.7684 H         1 UNK         0.0600 
    181 H181        7.7657  -14.6913  -45.0917 H         1 UNK         0.0600 
    182 H182        7.4742  -14.5545  -43.3617 H         1 UNK         0.0600 
    183 H183        8.2203  -13.2216  -44.2276 H         1 UNK         0.0600 
    184 H184        6.9652  -12.7167  -46.3676 H         1 UNK         0.3000 
    185 H185        5.1888  -10.1437  -47.5027 H         1 UNK         0.0600 
    186 H186        7.5082  -11.0271  -47.6226 H         1 UNK         0.0600 
    187 H187        6.9519  -12.4627  -48.4839 H         1 UNK         0.0600 
    188 H188        6.8238  -10.8762  -49.2285 H         1 UNK         0.0600 
    189 H189        3.6977  -10.8778  -48.9730 H         1 UNK         0.3000 
    190 H190       -2.3355  -21.1168  -46.1511 H         1 UNK         0.3000 
    191 H191       -3.3601  -21.9329  -48.6382 H         1 UNK         0.0600 
    192 H192       -4.6381  -20.6793  -46.8720 H         1 UNK         0.0600 
    193 H193       -5.5190  -22.0767  -47.4714 H         1 UNK         0.0600 
    194 H194       -4.7265  -22.1476  -45.9059 H         1 UNK         0.0600 
    195 H195       -2.7068  -23.8865  -45.6957 H         1 UNK         0.3000 
    196 H196       -3.6222  -26.3794  -46.6822 H         1 UNK         0.0600 
    197 H197       -2.2289  -27.3302  -44.8461 H         1 UNK         0.0600 
    198 H198       -3.1699  -25.9565  -44.2851 H         1 UNK         0.0600 
    199 H199       -1.4483  -25.7722  -44.6094 H         1 UNK         0.0600 
    200 H200       -0.3284  -24.9116  -46.7690 H         1 UNK         0.3000 
    201 H201        0.9618  -27.0077  -48.1730 H         1 UNK         0.0600 
    202 H202        2.1755  -25.2426  -46.9210 H         1 UNK         0.0600 
    203 H203        1.6243  -24.0171  -48.0606 H         1 UNK         0.0600 
    204 H204        2.7187  -25.2874  -48.5916 H         1 UNK         0.0600 
    205 H205       -0.8598  -24.1950  -49.3495 H         1 UNK         0.3000 
    206 H206       -0.3878  -24.6641  -52.1584 H         1 UNK         0.0600 
    207 H207       -0.8702  -22.4129  -51.1869 H         1 UNK         0.0600 
    208 H208       -2.0304  -22.8384  -52.4310 H         1 UNK         0.0600 
    209 H209       -2.4860  -22.9510  -50.7350 H         1 UNK         0.0600 
    210 H210       -2.0906  -26.5658  -50.0764 H         1 UNK         0.3000 
    211 H211       -3.4981  -28.2437  -50.2393 H         1 UNK         0.0600 
    212 H212       -3.3773  -27.9401  -53.2852 H         1 UNK         0.0600 
    213 H213       -3.9574  -29.3373  -52.3949 H         1 UNK         0.0600 
    214 H214       -2.2629  -28.8841  -52.2982 H         1 UNK         0.0600 
    215 H215       -4.7238  -26.4350  -49.2167 H         1 UNK         0.3000 
    216 H216       -6.6657  -25.6017  -48.5913 H         1 UNK         0.0600 
    217 H217       -8.8124  -26.4174  -49.4556 H         1 UNK         0.0600 
    218 H218       -7.7189  -27.7753  -49.2440 H         1 UNK         0.0600 
    219 H219       -8.0406  -27.1396  -50.8570 H         1 UNK         0.0600 
    220 H220       -5.0387  -24.0444  -49.8176 H         1 UNK         0.3000 
    221 H221       -4.7231  -22.0246  -50.5845 H         1 UNK         0.0600 
    222 H222       -7.7508  -21.7008  -50.8927 H         1 UNK         0.0600 
    223 H223       -6.8067  -21.3196  -49.4549 H         1 UNK         0.0600 
    224 H224       -6.5560  -20.4177  -50.9397 H         1 UNK         0.0600 
    225 H225       -7.3163  -23.3640  -52.6491 H         1 UNK         0.3000 
    226 H226       -7.6781  -23.4384  -54.8500 H         1 UNK         0.0600 
    227 H227       -5.8595  -25.0868  -54.8255 H         1 UNK         0.0600 
    228 H228       -5.7716  -24.1621  -56.3151 H         1 UNK         0.0600 
    229 H229       -4.6357  -23.8425  -55.0063 H         1 UNK         0.0600 
    230 H230       -4.6496  -21.9800  -55.7867 H         1 UNK         0.3000 
    231 H231       -6.0082  -19.6176  -56.8989 H         1 UNK         0.0600 
    232 H232       -3.1050  -20.5841  -57.0778 H         1 UNK         0.0600 
    233 H233       -3.7985  -19.2421  -57.9798 H         1 UNK         0.0600 
    234 H234       -4.3656  -20.8772  -58.2766 H         1 UNK         0.0600 
    235 H235       -4.3296  -20.4077  -53.9589 H         1 UNK         0.3000 
    236 H236       -3.1801  -17.7615  -53.4995 H         1 UNK         0.0600 
    237 H237       -2.1572  -19.9670  -52.6813 H         1 UNK         0.0600 
    238 H238       -2.3598  -18.7416  -51.4441 H         1 UNK         0.0600 
    239 H239       -3.4856  -20.0838  -51.5270 H         1 UNK         0.0600 
    240 H240       -3.6178  -16.8510  -51.2282 H         1 UNK         0.3000 
    241 H241       -4.8339  -15.6719  -49.8693 H         1 UNK         0.0600 
    242 H242       -7.5671  -14.7284  -49.7454 H         1 UNK         0.3800 
    243 H243       -7.7806  -13.7942  -51.1951 H         1 UNK         0.3800 
    244 H244       -6.8864  -16.4752  -48.8243 H         1 UNK         0.0800 
    245 H245       -7.2224  -17.5424  -50.1568 H         1 UNK         0.0800 
    246 H246       -4.4154  -18.2714  -46.6000 H         1 UNK         0.0800 
    247 H247       -5.0797  -16.7333  -47.0884 H         1 UNK         0.0800 
@<TRIPOS>BOND
     1    1    2 1    
     2    1  127 1    
     3    1  128 1    
     4    1  129 1    
     5    2    3 2    
     6    2    4 am   BACKBONE|DICT|INTERRES
     7    4    5 1    
     8    4  130 1    
     9    5    6 1    
    10    5   65 1    
    11    5  131 1    
    12    6    7 1    
    13    6  132 1    
    14    6  133 1    
    15    7    8 1    
    16    8    9 1    
    17    8  134 1    
    18    8  135 1    
    19    9   10 ar   
    20    9   14 ar   
    21   10   11 ar   
    22   10  136 1    
    23   11   12 ar   
    24   11  126 1    
    25   12   13 ar   
    26   12  137 1    
    27   13   14 ar   
    28   13   15 1    
    29   14  138 1    
    30   15   16 1    
    31   15  139 1    
    32   15  140 1    
    33   16   17 1    
    34   17   18 1    
    35   17  141 1    
    36   17  142 1    
    37   18   19 1    
    38   18   67 1    
    39   18  143 1    
    40   19   20 am   BACKBONE|DICT|INTERRES
    41   19  144 1    
    42   20   21 2    
    43   20   22 1    
    44   22   23 1    
    45   22   24 1    
    46   22  145 1    
    47   23  146 1    
    48   23  147 1    
    49   23  148 1    
    50   24   25 am   BACKBONE|DICT|INTERRES
    51   24  149 1    
    52   25   26 2    
    53   25   27 1    
    54   27   28 1    
    55   27   29 1    
    56   27  150 1    
    57   28  151 1    
    58   28  152 1    
    59   28  153 1    
    60   29   30 am   BACKBONE|DICT|INTERRES
    61   29  154 1    
    62   30   31 2    
    63   30   32 1    
    64   32   33 1    
    65   32   34 1    
    66   32  155 1    
    67   33  156 1    
    68   33  157 1    
    69   33  158 1    
    70   34   35 am   BACKBONE|DICT|INTERRES
    71   34  159 1    
    72   35   36 2    
    73   35   37 1    
    74   37   38 1    
    75   37   39 1    
    76   37  160 1    
    77   38  161 1    
    78   38  162 1    
    79   38  163 1    
    80   39   40 am   BACKBONE|DICT|INTERRES
    81   39  164 1    
    82   40   41 2    
    83   40   42 1    
    84   42   43 1    
    85   42   44 1    
    86   42  165 1    
    87   43  166 1    
    88   43  167 1    
    89   43  168 1    
    90   44   45 am   BACKBONE|DICT|INTERRES
    91   44  169 1    
    92   45   46 2    
    93   45   47 1    
    94   47   48 1    
    95   47   49 1    
    96   47  170 1    
    97   48  171 1    
    98   48  172 1    
    99   48  173 1    
   100   49   50 am   BACKBONE|DICT|INTERRES
   101   49  174 1    
   102   50   51 2    
   103   50   52 1    
   104   52   53 1    
   105   52   54 1    
   106   52  175 1    
   107   53  176 1    
   108   53  177 1    
   109   53  178 1    
   110   54   55 am   BACKBONE|DICT|INTERRES
   111   54  179 1    
   112   55   56 2    
   113   55   57 1    
   114   57   58 1    
   115   57   59 1    
   116   57  180 1    
   117   58  181 1    
   118   58  182 1    
   119   58  183 1    
   120   59   60 am   BACKBONE|DICT|INTERRES
   121   59  184 1    
   122   60   61 2    
   123   60   62 1    
   124   62   63 1    
   125   62   64 1    
   126   62  185 1    
   127   63  186 1    
   128   63  187 1    
   129   63  188 1    
   130   64   65 am   BACKBONE|DICT|INTERRES
   131   64  189 1    
   132   65   66 2    
   133   67   68 2    
   134   67   69 am   BACKBONE|DICT|INTERRES
   135   69   70 1    
   136   69  190 1    
   137   70   71 1    
   138   70   72 1    
   139   70  191 1    
   140   71  192 1    
   141   71  193 1    
   142   71  194 1    
   143   72   73 2    
   144   72   74 am   BACKBONE|DICT|INTERRES
   145   74   75 1    
   146   74  195 1    
   147   75   76 1    
   148   75   77 1    
   149   75  196 1    
   150   76  197 1    
   151   76  198 1    
   152   76  199 1    
   153   77   78 2    
   154   77   79 am   BACKBONE|DICT|INTERRES
   155   79   80 1    
   156   79  200 1    
   157   80   81 1    
   158   80   82 1    
   159   80  201 1    
   160   81  202 1    
   161   81  203 1    
   162   81  204 1    
   163   82   83 2    
   164   82   84 am   BACKBONE|DICT|INTERRES
   165   84   85 1    
   166   84  205 1    
   167   85   86 1    
   168   85   87 1    
   169   85  206 1    
   170   86  207 1    
   171   86  208 1    
   172   86  209 1    
   173   87   88 2    
   174   87   89 am   BACKBONE|DICT|INTERRES
   175   89   90 1    
   176   89  210 1    
   177   90   91 1    
   178   90   92 1    
   179   90  211 1    
   180   91  212 1    
   181   91  213 1    
   182   91  214 1    
   183   92   93 2    
   184   92   94 am   BACKBONE|DICT|INTERRES
   185   94   95 1    
   186   94  215 1    
   187   95   96 1    
   188   95   97 1    
   189   95  216 1    
   190   96  217 1    
   191   96  218 1    
   192   96  219 1    
   193   97   98 2    
   194   97   99 am   BACKBONE|DICT|INTERRES
   195   99  100 1    
   196   99  220 1    
   197  100  101 1    
   198  100  102 1    
   199  100  221 1    
   200  101  222 1    
   201  101  223 1    
   202  101  224 1    
   203  102  103 2    
   204  102  104 am   BACKBONE|DICT|INTERRES
   205  104  105 1    
   206  104  225 1    
   207  105  106 1    
   208  105  107 1    
   209  105  226 1    
   210  106  227 1    
   211  106  228 1    
   212  106  229 1    
   213  107  108 2    
   214  107  109 am   BACKBONE|DICT|INTERRES
   215  109  110 1    
   216  109  230 1    
   217  110  111 1    
   218  110  112 1    
   219  110  231 1    
   220  111  232 1    
   221  111  233 1    
   222  111  234 1    
   223  112  113 2    
   224  112  114 am   BACKBONE|DICT|INTERRES
   225  114  115 1    
   226  114  235 1    
   227  115  116 1    
   228  115  117 1    
   229  115  236 1    
   230  116  237 1    
   231  116  238 1    
   232  116  239 1    
   233  117  118 2    
   234  117  119 am   BACKBONE|DICT|INTERRES
   235  119  120 1    
   236  119  240 1    
   237  120  121 1    
   238  120  124 1    
   239  120  241 1    
   240  121  122 am   BACKBONE|DICT|INTERRES
   241  121  123 2    
   242  122  242 1    
   243  122  243 1    
   244  124  125 1    
   245  124  244 1    
   246  124  245 1    
   247  125  126 1    
   248  126  246 1    
   249  126  247 1    
@<TRIPOS>SUBSTRUCTURE
     1 UNK         1 GROUP             0       ****    0 ROOT    
