@<TRIPOS>MOLECULE
3R540
247   249    1
SMALL
USER_CHARGES


@<TRIPOS>ATOM
      1 CA         -0.2991  -10.7469  -42.9218 C.3       0 UNK        -0.1800 
      2 C          -0.5994  -10.4022  -44.3733 C.2       0 UNK         0.5000 
      3 O          -0.7444   -9.2265  -44.7075 O.2       0 UNK        -0.5000 
      4 N          -0.6961  -11.4225  -45.2352 N.am      1 UNK        -0.5000 
      5 CA         -0.9426  -11.2859  -46.6778 C.3       1 UNK         0.1400 
      6 C6         -1.4116  -12.6266  -47.2986 C.3       23 UNK        -0.0398 
      7 S7         -0.1628  -13.9594  -47.1762 S.3       23 UNK        -0.2404 
      8 C8          0.2214  -14.2773  -48.9228 C.3       23 UNK        -0.0205 
      9 C9         -0.6970  -15.3419  -49.5006 C.ar      23 UNK        -0.0193 
     10 C10        -1.8787  -14.9913  -50.1587 C.ar      23 UNK        -0.1150 
     11 C11        -2.7029  -15.9788  -50.7077 C.ar      23 UNK        -0.0193 
     12 C12        -2.3395  -17.3234  -50.5899 C.ar      23 UNK        -0.1150 
     13 C13        -1.1630  -17.6915  -49.9208 C.ar      23 UNK        -0.0193 
     14 C14        -0.3510  -16.6896  -49.3845 C.ar      23 UNK        -0.1150 
     15 C15        -0.6976  -19.1408  -49.7726 C.3       23 UNK        -0.0205 
     16 S16        -1.8921  -20.4181  -50.2717 S.3       23 UNK        -0.2404 
     17 C17        -3.0599  -20.4222  -48.8712 C.3       23 UNK        -0.0398 
     18 CA         -2.9245  -21.7216  -48.0424 C.3       11 UNK         0.1400 
     19 N          -1.7528  -21.7110  -47.1659 N.am      11 UNK        -0.5000 
     20 C          -1.1282  -22.8116  -46.7278 C.2       10 UNK         0.5000 
     21 O          -1.4296  -23.9536  -47.0795 O.2       10 UNK        -0.5000 
     22 CA          0.0093  -22.6044  -45.7095 C.3       10 UNK         0.1400 
     23 CB          1.3470  -22.3873  -46.4298 C.3       10 UNK        -0.1800 
     24 N          -0.2349  -21.4841  -44.7983 N.am      10 UNK        -0.5000 
     25 C          -1.2021  -21.4672  -43.8703 C.2       9 UNK         0.5000 
     26 O          -1.9791  -22.4015  -43.6817 O.2       9 UNK        -0.5000 
     27 CA         -1.3678  -20.1760  -43.0475 C.3       9 UNK         0.1400 
     28 CB         -0.4593  -20.2063  -41.8102 C.3       9 UNK        -0.1800 
     29 N          -1.1207  -18.9476  -43.8037 N.am      9 UNK        -0.5000 
     30 C          -1.7314  -18.5906  -44.9428 C.2       8 UNK         0.5000 
     31 O          -2.5658  -19.2832  -45.5252 O.2       8 UNK        -0.5000 
     32 CA         -1.3186  -17.2395  -45.5456 C.3       8 UNK         0.1400 
     33 CB         -2.1482  -16.1152  -44.9027 C.3       8 UNK        -0.1800 
     34 N           0.1131  -16.9673  -45.3886 N.am      8 UNK        -0.5000 
     35 C           1.0941  -17.6791  -45.9651 C.2       7 UNK         0.5000 
     36 O           0.9001  -18.6518  -46.6925 O.2       7 UNK        -0.5000 
     37 CA          2.5379  -17.2648  -45.6303 C.3       7 UNK         0.1400 
     38 CB          2.9464  -15.9951  -46.3933 C.3       7 UNK        -0.1800 
     39 N           2.7162  -17.0577  -44.1945 N.am      7 UNK        -0.5000 
     40 C           2.6918  -18.0457  -43.2859 C.2       6 UNK         0.5000 
     41 O           2.6277  -19.2398  -43.5787 O.2       6 UNK        -0.5000 
     42 CA          2.7079  -17.6357  -41.7988 C.3       6 UNK         0.1400 
     43 CB          4.1411  -17.6695  -41.2474 C.3       6 UNK        -0.1800 
     44 N           2.1355  -16.3105  -41.5539 N.am      6 UNK        -0.5000 
     45 C           0.8725  -15.9489  -41.8227 C.2       5 UNK         0.5000 
     46 O           0.0188  -16.7323  -42.2362 O.2       5 UNK        -0.5000 
     47 CA          0.5143  -14.4585  -41.6521 C.3       5 UNK         0.1400 
     48 CB         -0.3347  -14.2465  -40.3905 C.3       5 UNK        -0.1800 
     49 N           1.6866  -13.5769  -41.5963 N.am      5 UNK        -0.5000 
     50 C           2.5093  -13.3294  -42.6240 C.2       4 UNK         0.5000 
     51 O           2.3372  -13.7725  -43.7628 O.2       4 UNK        -0.5000 
     52 CA          3.7625  -12.5066  -42.2995 C.3       4 UNK         0.1400 
     53 CB          4.7769  -13.3650  -41.5166 C.3       4 UNK        -0.1800 
     54 N           4.3633  -12.0311  -43.5410 N.am      4 UNK        -0.5000 
     55 C           5.2728  -11.0540  -43.6402 C.2       3 UNK         0.5000 
     56 O           5.7074  -10.4244  -42.6746 O.2       3 UNK        -0.5000 
     57 CA          5.7899  -10.7166  -45.0526 C.3       3 UNK         0.1400 
     58 CB          7.0497  -11.5368  -45.3709 C.3       3 UNK        -0.1800 
     59 N           4.8009  -10.9327  -46.1113 N.am      3 UNK        -0.5000 
     60 C           3.6864  -10.2077  -46.2741 C.2       2 UNK         0.5000 
     61 O           3.3648   -9.2797  -45.5298 O.2       2 UNK        -0.5000 
     62 CA          2.7641  -10.5754  -47.4472 C.3       2 UNK         0.1400 
     63 CB          3.2796  -11.7206  -48.3457 C.3       2 UNK        -0.1800 
     64 N           1.4734  -10.9458  -46.8893 N.am      2 UNK        -0.5000 
     65 C           0.2766  -10.7156  -47.4391 C.2       1 UNK         0.5000 
     66 O           0.1090  -10.1110  -48.4994 O.2       1 UNK        -0.5000 
     67 C          -4.2019  -22.0221  -47.2389 C.2       11 UNK         0.5000 
     68 O          -5.0288  -22.8017  -47.7086 O.2       11 UNK        -0.5000 
     69 N          -4.3262  -21.4568  -46.0293 N.am      12 UNK        -0.5000 
     70 CA         -5.4444  -21.6944  -45.1096 C.3       12 UNK         0.1400 
     71 CB         -5.3211  -20.7590  -43.8986 C.3       12 UNK        -0.1800 
     72 C          -5.5514  -23.1638  -44.6545 C.2       12 UNK         0.5000 
     73 O          -6.6597  -23.6871  -44.5373 O.2       12 UNK        -0.5000 
     74 N          -4.3967  -23.8132  -44.4540 N.am      13 UNK        -0.5000 
     75 CA         -4.2703  -25.2427  -44.1637 C.3       13 UNK         0.1400 
     76 CB         -2.8840  -25.4957  -43.5484 C.3       13 UNK        -0.1800 
     77 C          -4.4721  -26.1457  -45.3992 C.2       13 UNK         0.5000 
     78 O          -4.5193  -27.3655  -45.2397 O.2       13 UNK        -0.5000 
     79 N          -4.5447  -25.5476  -46.6000 N.am      14 UNK        -0.5000 
     80 CA         -4.6543  -26.1727  -47.9259 C.3       14 UNK         0.1400 
     81 CB         -5.9322  -27.0317  -48.0296 C.3       14 UNK        -0.1800 
     82 C          -3.3915  -26.9426  -48.3717 C.2       14 UNK         0.5000 
     83 O          -3.4145  -27.5851  -49.4234 O.2       14 UNK        -0.5000 
     84 N          -2.3057  -26.8430  -47.5928 N.am      15 UNK        -0.5000 
     85 CA         -1.0207  -27.4996  -47.8265 C.3       15 UNK         0.1400 
     86 CB         -0.1434  -27.3433  -46.5749 C.3       15 UNK        -0.1800 
     87 C          -0.2986  -26.9538  -49.0683 C.2       15 UNK         0.5000 
     88 O           0.3112  -27.7256  -49.8105 O.2       15 UNK        -0.5000 
     89 N          -0.4164  -25.6399  -49.2979 N.am      16 UNK        -0.5000 
     90 CA          0.0883  -24.9416  -50.4781 C.3       16 UNK         0.1400 
     91 CB          0.2662  -23.4534  -50.1374 C.3       16 UNK        -0.1800 
     92 C          -0.8278  -25.1682  -51.6982 C.2       16 UNK         0.5000 
     93 O          -1.4651  -24.2285  -52.1730 O.2       16 UNK        -0.5000 
     94 N          -0.8883  -26.4257  -52.1605 N.am      17 UNK        -0.5000 
     95 CA         -1.5688  -26.9122  -53.3666 C.3       17 UNK         0.1400 
     96 CB         -0.7836  -26.4737  -54.6200 C.3       17 UNK        -0.1800 
     97 C          -3.0613  -26.5258  -53.4344 C.2       17 UNK         0.5000 
     98 O          -3.5077  -25.9516  -54.4300 O.2       17 UNK        -0.5000 
     99 N          -3.8005  -26.8129  -52.3512 N.am      18 UNK        -0.5000 
    100 CA        -5.2257  -26.5026  -52.1664 C.3       18 UNK         0.1400 
    101 CB        -6.1008  -27.3366  -53.1254 C.3       18 UNK        -0.1800 
    102 C         -5.5209  -24.9883  -52.2353 C.2       18 UNK         0.5000 
    103 O         -6.5408  -24.5755  -52.7880 O.2       18 UNK        -0.5000 
    104 N         -4.5824  -24.1980  -51.6956 N.am      19 UNK        -0.5000 
    105 CA        -4.5052  -22.7331  -51.6829 C.3       19 UNK         0.1400 
    106 CB        -5.7871  -22.0888  -51.1151 C.3       19 UNK        -0.1800 
    107 C         -4.0941  -22.1016  -53.0288 C.2       19 UNK         0.5000 
    108 O         -3.9708  -20.8770  -53.0968 O.2       19 UNK        -0.5000 
    109 N         -3.8982  -22.9225  -54.0745 N.am      20 UNK        -0.5000 
    110 CA        -3.4049  -22.5785  -55.4159 C.3       20 UNK         0.1400 
    111 CB        -1.9023  -22.2403  -55.3358 C.3       20 UNK        -0.1800 
    112 C         -4.2007  -21.4686  -56.1417 C.2       20 UNK         0.5000 
    113 O         -3.6631  -20.8284  -57.0472 O.2       20 UNK        -0.5000 
    114 N         -5.4412  -21.2139  -55.6956 N.am      21 UNK        -0.5000 
    115 CA        -6.2994  -20.0764  -56.0517 C.3       21 UNK         0.1400 
    116 CB        -6.8275  -20.2354  -57.4926 C.3       21 UNK        -0.1800 
    117 C         -5.6331  -18.6987  -55.8076 C.2       21 UNK         0.5000 
    118 O         -5.9497  -17.7365  -56.5093 O.2       21 UNK        -0.5000 
    119 N         -4.7066  -18.6320  -54.8371 N.am      22 UNK        -0.5000 
    120 CA        -3.8083  -17.4925  -54.5750 C.3       22 UNK         0.1400 
    121 C         -2.7429  -17.2480  -55.6966 C.2       22 UNK         0.5000 
    122 N         -2.5023  -18.1820  -56.6105 N.am      22 UNK        -0.7600 
    123 O         -2.0951  -16.2063  -55.7384 O.2       22 UNK        -0.5000 
    124 C124       -4.5910  -16.2127  -54.1540 C.3       23 UNK        -0.0398 
    125 S125       -3.6302  -15.0408  -53.1305 S.3       23 UNK        -0.2404 
    126 C126       -3.9834  -15.5912  -51.4316 C.3       23 UNK        -0.0205 
    127 H127        0.7381  -10.5091  -42.6860 H         1 UNK         0.0600 
    128 H128       -0.4659  -11.8037  -42.7183 H         1 UNK         0.0600 
    129 H129       -0.9427  -10.1721  -42.2557 H         1 UNK         0.0600 
    130 H130       -0.5630  -12.3693  -44.9092 H         1 UNK         0.3000 
    131 H131       -1.7554  -10.5675  -46.8045 H         1 UNK         0.0600 
    132 H132       -2.3165  -12.9671  -46.7939 H         1 UNK         0.0800 
    133 H133       -1.7020  -12.4771  -48.3393 H         1 UNK         0.0800 
    134 H134        1.2579  -14.6101  -48.9938 H         1 UNK         0.0800 
    135 H135        0.1639  -13.3551  -49.5029 H         1 UNK         0.0800 
    136 H136       -2.1530  -13.9506  -50.2566 H         1 UNK         0.1150 
    137 H137       -2.9792  -18.0732  -51.0314 H         1 UNK         0.1150 
    138 H138        0.5633  -16.9608  -48.8757 H         1 UNK         0.1150 
    139 H139        0.2044  -19.2718  -50.3713 H         1 UNK         0.0800 
    140 H140       -0.4113  -19.3319  -48.7395 H         1 UNK         0.0800 
    141 H141       -4.0599  -20.3296  -49.2965 H         1 UNK         0.0800 
    142 H142       -2.9167  -19.5375  -48.2487 H         1 UNK         0.0800 
    143 H143       -2.8168  -22.5525  -48.7432 H         1 UNK         0.0600 
    144 H144       -1.4794  -20.8138  -46.7880 H         1 UNK         0.3000 
    145 H145        0.0874  -23.5150  -45.1117 H         1 UNK         0.0600 
    146 H146        2.1609  -22.2478  -45.7180 H         1 UNK         0.0600 
    147 H147        1.6009  -23.2511  -47.0449 H         1 UNK         0.0600 
    148 H148        1.3175  -21.5121  -47.0807 H         1 UNK         0.0600 
    149 H149        0.3506  -20.6667  -44.9055 H         1 UNK         0.3000 
    150 H150       -2.4010  -20.1337  -42.7018 H         1 UNK         0.0600 
    151 H151       -0.6734  -21.0785  -41.1912 H         1 UNK         0.0600 
    152 H152       -0.6061  -19.3228  -41.1885 H         1 UNK         0.0600 
    153 H153        0.5939  -20.2524  -42.0865 H         1 UNK         0.0600 
    154 H154       -0.4998  -18.2698  -43.3721 H         1 UNK         0.3000 
    155 H155       -1.5413  -17.2647  -46.6145 H         1 UNK         0.0600 
    156 H156       -3.2149  -16.2943  -45.0435 H         1 UNK         0.0600 
    157 H157       -1.9294  -15.1453  -45.3421 H         1 UNK         0.0600 
    158 H158       -1.9715  -16.0405  -43.8298 H         1 UNK         0.0600 
    159 H159        0.3635  -16.2009  -44.7826 H         1 UNK         0.3000 
    160 H160        3.1995  -18.0743  -45.9464 H         1 UNK         0.0600 
    161 H161        2.3540  -15.1319  -46.0910 H         1 UNK         0.0600 
    162 H162        2.8121  -16.1248  -47.4678 H         1 UNK         0.0600 
    163 H163        3.9955  -15.7537  -46.2225 H         1 UNK         0.0600 
    164 H164        2.7585  -16.0985  -43.8768 H         1 UNK         0.3000 
    165 H165        2.1093  -18.3645  -41.2489 H         1 UNK         0.0600 
    166 H166        4.1583  -17.4571  -40.1783 H         1 UNK         0.0600 
    167 H167        4.5907  -18.6533  -41.3890 H         1 UNK         0.0600 
    168 H168        4.7817  -16.9409  -41.7459 H         1 UNK         0.0600 
    169 H169        2.7652  -15.6063  -41.2012 H         1 UNK         0.3000 
    170 H170       -0.0856  -14.1763  -42.5195 H         1 UNK         0.0600 
    171 H171       -1.2320  -14.8666  -40.4144 H         1 UNK         0.0600 
    172 H172        0.2176  -14.5027  -39.4856 H         1 UNK         0.0600 
    173 H173       -0.6608  -13.2098  -40.3042 H         1 UNK         0.0600 
    174 H174        1.8995  -13.1784  -40.6927 H         1 UNK         0.3000 
    175 H175        3.4607  -11.6467  -41.6978 H         1 UNK         0.0600 
    176 H176        5.1049  -14.2272  -42.0988 H         1 UNK         0.0600 
    177 H177        5.6632  -12.7908  -41.2471 H         1 UNK         0.0600 
    178 H178        4.3485  -13.7389  -40.5861 H         1 UNK         0.0600 
    179 H179        4.0209  -12.4910  -44.3749 H         1 UNK         0.3000 
    180 H180        6.0632   -9.6592  -45.0576 H         1 UNK         0.0600 
    181 H181        6.8365  -12.6060  -45.4041 H         1 UNK         0.0600 
    182 H182        7.8197  -11.3793  -44.6144 H         1 UNK         0.0600 
    183 H183        7.4767  -11.2484  -46.3316 H         1 UNK         0.0600 
    184 H184        4.9923  -11.6793  -46.7635 H         1 UNK         0.3000 
    185 H185        2.6590   -9.6746  -48.0552 H         1 UNK         0.0600 
    186 H186        4.2513  -11.4803  -48.7789 H         1 UNK         0.0600 
    187 H187        3.3721  -12.6595  -47.7976 H         1 UNK         0.0600 
    188 H188        2.5971  -11.8966  -49.1774 H         1 UNK         0.0600 
    189 H189        1.4993  -11.4149  -45.9951 H         1 UNK         0.3000 
    190 H190       -3.6229  -20.7848  -45.7309 H         1 UNK         0.3000 
    191 H191       -6.3647  -21.4433  -45.6409 H         1 UNK         0.0600 
    192 H192       -5.2338  -19.7170  -44.2072 H         1 UNK         0.0600 
    193 H193       -6.1992  -20.8376  -43.2565 H         1 UNK         0.0600 
    194 H194       -4.4512  -21.0055  -43.2912 H         1 UNK         0.0600 
    195 H195       -3.5299  -23.2836  -44.4821 H         1 UNK         0.3000 
    196 H196       -5.0283  -25.5190  -43.4281 H         1 UNK         0.0600 
    197 H197       -2.7539  -26.5457  -43.2834 H         1 UNK         0.0600 
    198 H198       -2.7458  -24.9138  -42.6369 H         1 UNK         0.0600 
    199 H199       -2.0833  -25.2290  -44.2400 H         1 UNK         0.0600 
    200 H200       -4.5213  -24.5351  -46.6195 H         1 UNK         0.3000 
    201 H201       -4.7590  -25.3498  -48.6341 H         1 UNK         0.0600 
    202 H202       -6.8141  -26.4592  -47.7423 H         1 UNK         0.0600 
    203 H203       -5.8834  -27.9153  -47.3934 H         1 UNK         0.0600 
    204 H204       -6.0952  -27.3846  -49.0468 H         1 UNK         0.0600 
    205 H205       -2.3571  -26.2279  -46.7937 H         1 UNK         0.3000 
    206 H206       -1.2080  -28.5632  -47.9875 H         1 UNK         0.0600 
    207 H207       -0.6227  -27.7838  -45.7004 H         1 UNK         0.0600 
    208 H208        0.8169  -27.8435  -46.7061 H         1 UNK         0.0600 
    209 H209        0.0595  -26.2946  -46.3527 H         1 UNK         0.0600 
    210 H210       -0.9260  -25.0811  -48.6198 H         1 UNK         0.3000 
    211 H211        1.0729  -25.3386  -50.7340 H         1 UNK         0.0600 
    212 H212       -0.6691  -23.0110  -49.7995 H         1 UNK         0.0600 
    213 H213        0.6052  -22.8856  -51.0048 H         1 UNK         0.0600 
    214 H214        1.0066  -23.3144  -49.3511 H         1 UNK         0.0600 
    215 H215       -0.3794  -27.1262  -51.6305 H         1 UNK         0.3000 
    216 H216       -1.5380  -28.0017  -53.3226 H         1 UNK         0.0600 
    217 H217       -1.2215  -26.8955  -55.5255 H         1 UNK         0.0600 
    218 H218        0.2518  -26.8111  -54.5743 H         1 UNK         0.0600 
    219 H219       -0.7772  -25.3894  -54.7328 H         1 UNK         0.0600 
    220 H220       -3.3509  -27.2534  -51.5553 H         1 UNK         0.3000 
    221 H221       -5.4746  -26.8099  -51.1524 H         1 UNK         0.0600 
    222 H222       -5.9564  -27.0455  -54.1661 H         1 UNK         0.0600 
    223 H223       -5.8756  -28.3996  -53.0397 H         1 UNK         0.0600 
    224 H224       -7.1597  -27.2113  -52.8960 H         1 UNK         0.0600 
    225 H225       -3.7456  -24.6557  -51.3606 H         1 UNK         0.3000 
    226 H226       -3.6937  -22.5092  -50.9940 H         1 UNK         0.0600 
    227 H227       -6.0738  -22.5423  -50.1670 H         1 UNK         0.0600 
    228 H228       -5.6416  -21.0233  -50.9367 H         1 UNK         0.0600 
    229 H229       -6.6294  -22.1820  -51.8003 H         1 UNK         0.0600 
    230 H230       -4.0142  -23.9167  -53.9162 H         1 UNK         0.3000 
    231 H231       -3.5143  -23.4794  -56.0208 H         1 UNK         0.0600 
    232 H232       -1.7295  -21.3048  -54.8022 H         1 UNK         0.0600 
    233 H233       -1.4653  -22.1383  -56.3298 H         1 UNK         0.0600 
    234 H234       -1.3491  -23.0241  -54.8188 H         1 UNK         0.0600 
    235 H235       -5.7776  -21.7909  -54.9375 H         1 UNK         0.3000 
    236 H236       -7.1566  -20.1185  -55.3785 H         1 UNK         0.0600 
    237 H237       -7.2989  -21.2078  -57.6346 H         1 UNK         0.0600 
    238 H238       -7.5772  -19.4774  -57.7222 H         1 UNK         0.0600 
    239 H239       -6.0288  -20.1391  -58.2286 H         1 UNK         0.0600 
    240 H240       -4.5034  -19.4717  -54.2995 H         1 UNK         0.3000 
    241 H241       -3.2249  -17.8107  -53.7103 H         1 UNK         0.0600 
    242 H242       -1.8062  -18.0036  -57.3164 H         1 UNK         0.3800 
    243 H243       -3.0131  -19.0594  -56.6302 H         1 UNK         0.3800 
    244 H244       -4.9456  -15.6803  -55.0378 H         1 UNK         0.0800 
    245 H245       -5.4913  -16.4850  -53.6020 H         1 UNK         0.0800 
    246 H246       -4.4783  -14.7820  -50.8927 H         1 UNK         0.0800 
    247 H247       -4.6839  -16.4274  -51.4321 H         1 UNK         0.0800 
@<TRIPOS>BOND
     1    1    2 1    
     2    1  127 1    
     3    1  128 1    
     4    1  129 1    
     5    2    3 2    
     6    2    4 am   BACKBONE|DICT|INTERRES
     7    4    5 1    
     8    4  130 1    
     9    5    6 1    
    10    5   65 1    
    11    5  131 1    
    12    6    7 1    
    13    6  132 1    
    14    6  133 1    
    15    7    8 1    
    16    8    9 1    
    17    8  134 1    
    18    8  135 1    
    19    9   10 ar   
    20    9   14 ar   
    21   10   11 ar   
    22   10  136 1    
    23   11   12 ar   
    24   11  126 1    
    25   12   13 ar   
    26   12  137 1    
    27   13   14 ar   
    28   13   15 1    
    29   14  138 1    
    30   15   16 1    
    31   15  139 1    
    32   15  140 1    
    33   16   17 1    
    34   17   18 1    
    35   17  141 1    
    36   17  142 1    
    37   18   19 1    
    38   18   67 1    
    39   18  143 1    
    40   19   20 am   BACKBONE|DICT|INTERRES
    41   19  144 1    
    42   20   21 2    
    43   20   22 1    
    44   22   23 1    
    45   22   24 1    
    46   22  145 1    
    47   23  146 1    
    48   23  147 1    
    49   23  148 1    
    50   24   25 am   BACKBONE|DICT|INTERRES
    51   24  149 1    
    52   25   26 2    
    53   25   27 1    
    54   27   28 1    
    55   27   29 1    
    56   27  150 1    
    57   28  151 1    
    58   28  152 1    
    59   28  153 1    
    60   29   30 am   BACKBONE|DICT|INTERRES
    61   29  154 1    
    62   30   31 2    
    63   30   32 1    
    64   32   33 1    
    65   32   34 1    
    66   32  155 1    
    67   33  156 1    
    68   33  157 1    
    69   33  158 1    
    70   34   35 am   BACKBONE|DICT|INTERRES
    71   34  159 1    
    72   35   36 2    
    73   35   37 1    
    74   37   38 1    
    75   37   39 1    
    76   37  160 1    
    77   38  161 1    
    78   38  162 1    
    79   38  163 1    
    80   39   40 am   BACKBONE|DICT|INTERRES
    81   39  164 1    
    82   40   41 2    
    83   40   42 1    
    84   42   43 1    
    85   42   44 1    
    86   42  165 1    
    87   43  166 1    
    88   43  167 1    
    89   43  168 1    
    90   44   45 am   BACKBONE|DICT|INTERRES
    91   44  169 1    
    92   45   46 2    
    93   45   47 1    
    94   47   48 1    
    95   47   49 1    
    96   47  170 1    
    97   48  171 1    
    98   48  172 1    
    99   48  173 1    
   100   49   50 am   BACKBONE|DICT|INTERRES
   101   49  174 1    
   102   50   51 2    
   103   50   52 1    
   104   52   53 1    
   105   52   54 1    
   106   52  175 1    
   107   53  176 1    
   108   53  177 1    
   109   53  178 1    
   110   54   55 am   BACKBONE|DICT|INTERRES
   111   54  179 1    
   112   55   56 2    
   113   55   57 1    
   114   57   58 1    
   115   57   59 1    
   116   57  180 1    
   117   58  181 1    
   118   58  182 1    
   119   58  183 1    
   120   59   60 am   BACKBONE|DICT|INTERRES
   121   59  184 1    
   122   60   61 2    
   123   60   62 1    
   124   62   63 1    
   125   62   64 1    
   126   62  185 1    
   127   63  186 1    
   128   63  187 1    
   129   63  188 1    
   130   64   65 am   BACKBONE|DICT|INTERRES
   131   64  189 1    
   132   65   66 2    
   133   67   68 2    
   134   67   69 am   BACKBONE|DICT|INTERRES
   135   69   70 1    
   136   69  190 1    
   137   70   71 1    
   138   70   72 1    
   139   70  191 1    
   140   71  192 1    
   141   71  193 1    
   142   71  194 1    
   143   72   73 2    
   144   72   74 am   BACKBONE|DICT|INTERRES
   145   74   75 1    
   146   74  195 1    
   147   75   76 1    
   148   75   77 1    
   149   75  196 1    
   150   76  197 1    
   151   76  198 1    
   152   76  199 1    
   153   77   78 2    
   154   77   79 am   BACKBONE|DICT|INTERRES
   155   79   80 1    
   156   79  200 1    
   157   80   81 1    
   158   80   82 1    
   159   80  201 1    
   160   81  202 1    
   161   81  203 1    
   162   81  204 1    
   163   82   83 2    
   164   82   84 am   BACKBONE|DICT|INTERRES
   165   84   85 1    
   166   84  205 1    
   167   85   86 1    
   168   85   87 1    
   169   85  206 1    
   170   86  207 1    
   171   86  208 1    
   172   86  209 1    
   173   87   88 2    
   174   87   89 am   BACKBONE|DICT|INTERRES
   175   89   90 1    
   176   89  210 1    
   177   90   91 1    
   178   90   92 1    
   179   90  211 1    
   180   91  212 1    
   181   91  213 1    
   182   91  214 1    
   183   92   93 2    
   184   92   94 am   BACKBONE|DICT|INTERRES
   185   94   95 1    
   186   94  215 1    
   187   95   96 1    
   188   95   97 1    
   189   95  216 1    
   190   96  217 1    
   191   96  218 1    
   192   96  219 1    
   193   97   98 2    
   194   97   99 am   BACKBONE|DICT|INTERRES
   195   99  100 1    
   196   99  220 1    
   197  100  101 1    
   198  100  102 1    
   199  100  221 1    
   200  101  222 1    
   201  101  223 1    
   202  101  224 1    
   203  102  103 2    
   204  102  104 am   BACKBONE|DICT|INTERRES
   205  104  105 1    
   206  104  225 1    
   207  105  106 1    
   208  105  107 1    
   209  105  226 1    
   210  106  227 1    
   211  106  228 1    
   212  106  229 1    
   213  107  108 2    
   214  107  109 am   BACKBONE|DICT|INTERRES
   215  109  110 1    
   216  109  230 1    
   217  110  111 1    
   218  110  112 1    
   219  110  231 1    
   220  111  232 1    
   221  111  233 1    
   222  111  234 1    
   223  112  113 2    
   224  112  114 am   BACKBONE|DICT|INTERRES
   225  114  115 1    
   226  114  235 1    
   227  115  116 1    
   228  115  117 1    
   229  115  236 1    
   230  116  237 1    
   231  116  238 1    
   232  116  239 1    
   233  117  118 2    
   234  117  119 am   BACKBONE|DICT|INTERRES
   235  119  120 1    
   236  119  240 1    
   237  120  121 1    
   238  120  124 1    
   239  120  241 1    
   240  121  122 am   BACKBONE|DICT|INTERRES
   241  121  123 2    
   242  122  242 1    
   243  122  243 1    
   244  124  125 1    
   245  124  244 1    
   246  124  245 1    
   247  125  126 1    
   248  126  246 1    
   249  126  247 1    
@<TRIPOS>SUBSTRUCTURE
     1 UNK         1 GROUP             0       ****    0 ROOT    
