@<TRIPOS>MOLECULE
3R540
247   249    1
SMALL
USER_CHARGES


@<TRIPOS>ATOM
      1 CA         -5.2055  -12.3811  -44.1078 C.3       0 UNK        -0.1800 
      2 C          -3.8792  -12.9715  -44.5646 C.2       0 UNK         0.5000 
      3 O          -3.6754  -14.1776  -44.4412 O.2       0 UNK        -0.5000 
      4 N          -2.9815  -12.1208  -45.0822 N.am      1 UNK        -0.5000 
      5 CA         -1.6556  -12.4641  -45.6243 C.3       1 UNK         0.1400 
      6 C6         -1.7068  -13.3789  -46.8804 C.3       23 UNK        -0.0398 
      7 S7         -2.6437  -12.6097  -48.2441 S.3       23 UNK        -0.2404 
      8 C8         -4.0203  -13.7848  -48.4682 C.3       23 UNK        -0.0205 
      9 C9         -3.6062  -15.0595  -49.1958 C.ar      23 UNK        -0.0193 
     10 C10        -2.9330  -14.9874  -50.4202 C.ar      23 UNK        -0.1150 
     11 C11        -2.5703  -16.1515  -51.0982 C.ar      23 UNK        -0.0193 
     12 C12        -2.9014  -17.3911  -50.5528 C.ar      23 UNK        -0.1150 
     13 C13        -3.5875  -17.4933  -49.3409 C.ar      23 UNK        -0.0193 
     14 C14        -3.9336  -16.3133  -48.6650 C.ar      23 UNK        -0.1150 
     15 C15        -3.9222  -18.9005  -48.8334 C.3       23 UNK        -0.0205 
     16 S16        -4.6922  -19.0037  -47.1818 S.3       23 UNK        -0.2404 
     17 C17        -4.8727  -20.8112  -46.9851 C.3       23 UNK        -0.0398 
     18 CA         -3.6471  -21.4813  -46.3154 C.3       11 UNK         0.1400 
     19 N          -3.2633  -20.8236  -45.0537 N.am      11 UNK        -0.5000 
     20 C          -2.2034  -21.1424  -44.2985 C.2       10 UNK         0.5000 
     21 O          -1.4643  -22.0956  -44.5379 O.2       10 UNK        -0.5000 
     22 CA         -1.9201  -20.2423  -43.0910 C.3       10 UNK         0.1400 
     23 CB         -1.2308  -20.9973  -41.9400 C.3       10 UNK        -0.1800 
     24 N          -1.0567  -19.1667  -43.5504 N.am      10 UNK        -0.5000 
     25 C          -1.1567  -17.8829  -43.1918 C.2       9 UNK         0.5000 
     26 O          -1.9531  -17.4687  -42.3484 O.2       9 UNK        -0.5000 
     27 CA         -0.2215  -16.8863  -43.9020 C.3       9 UNK         0.1400 
     28 CB          1.0742  -16.6847  -43.1029 C.3       9 UNK        -0.1800 
     29 N           0.1151  -17.2754  -45.2726 N.am      9 UNK        -0.5000 
     30 C          -0.7610  -17.3186  -46.2861 C.2       8 UNK         0.5000 
     31 O          -1.9495  -17.0327  -46.1637 O.2       8 UNK        -0.5000 
     32 CA         -0.2288  -17.7742  -47.6544 C.3       8 UNK         0.1400 
     33 CB          0.4204  -16.6053  -48.4079 C.3       8 UNK        -0.1800 
     34 N           0.7482  -18.8510  -47.5085 N.am      8 UNK        -0.5000 
     35 C           0.4804  -20.1501  -47.6936 C.2       7 UNK         0.5000 
     36 O          -0.6096  -20.5763  -48.0704 O.2       7 UNK        -0.5000 
     37 CA          1.6193  -21.1545  -47.4213 C.3       7 UNK         0.1400 
     38 CB          2.3329  -21.5196  -48.7327 C.3       7 UNK        -0.1800 
     39 N           2.6206  -20.6829  -46.4621 N.am      7 UNK        -0.5000 
     40 C           2.3873  -20.4240  -45.1685 C.2       6 UNK         0.5000 
     41 O           1.2917  -20.5559  -44.6285 O.2       6 UNK        -0.5000 
     42 CA          3.5675  -19.8664  -44.3505 C.3       6 UNK         0.1400 
     43 CB          4.4197  -21.0167  -43.7937 C.3       6 UNK        -0.1800 
     44 N           4.4353  -18.9255  -45.0715 N.am      6 UNK        -0.5000 
     45 C           4.0329  -17.8387  -45.7455 C.2       5 UNK         0.5000 
     46 O           2.8500  -17.5603  -45.9561 O.2       5 UNK        -0.5000 
     47 CA          5.1442  -16.9372  -46.3169 C.3       5 UNK         0.1400 
     48 CB          5.6550  -17.5080  -47.6491 C.3       5 UNK        -0.1800 
     49 N           4.6854  -15.5649  -46.5427 N.am      5 UNK        -0.5000 
     50 C           4.2695  -14.7213  -45.5881 C.2       4 UNK         0.5000 
     51 O           4.3321  -14.9764  -44.3823 O.2       4 UNK        -0.5000 
     52 CA          3.7012  -13.3733  -46.0810 C.3       4 UNK         0.1400 
     53 CB          2.6311  -13.5656  -47.1720 C.3       4 UNK        -0.1800 
     54 N           3.1147  -12.5993  -44.9868 N.am      4 UNK        -0.5000 
     55 C           3.8008  -11.7879  -44.1695 C.2       3 UNK         0.5000 
     56 O           5.0101  -11.5785  -44.2825 O.2       3 UNK        -0.5000 
     57 CA          3.0200  -11.0569  -43.0563 C.3       3 UNK         0.1400 
     58 CB          2.9240   -9.5541  -43.3666 C.3       3 UNK        -0.1800 
     59 N           1.6657  -11.5738  -42.8555 N.am      3 UNK        -0.5000 
     60 C           1.3551  -12.6580  -42.1330 C.2       2 UNK         0.5000 
     61 O           2.1799  -13.3183  -41.5015 O.2       2 UNK        -0.5000 
     62 CA         -0.1294  -13.0801  -42.1148 C.3       2 UNK         0.1400 
     63 CB         -0.8161  -12.5777  -40.8360 C.3       2 UNK        -0.1800 
     64 N          -0.9071  -12.6331  -43.2763 N.am      2 UNK        -0.5000 
     65 C          -0.6761  -12.9898  -44.5488 C.2       1 UNK         0.5000 
     66 O           0.2915  -13.6717  -44.8819 O.2       1 UNK        -0.5000 
     67 C          -3.8665  -23.0084  -46.1931 C.2       11 UNK         0.5000 
     68 O          -3.7115  -23.7282  -47.1809 O.2       11 UNK        -0.5000 
     69 N          -4.1711  -23.4894  -44.9792 N.am      12 UNK        -0.5000 
     70 CA         -4.2388  -24.9067  -44.6206 C.3       12 UNK         0.1400 
     71 CB         -4.7465  -25.0333  -43.1771 C.3       12 UNK        -0.1800 
     72 C          -2.8989  -25.6548  -44.7874 C.2       12 UNK         0.5000 
     73 O          -2.9176  -26.8496  -45.0825 O.2       12 UNK        -0.5000 
     74 N          -1.7633  -24.9492  -44.6566 N.am      13 UNK        -0.5000 
     75 CA         -0.4201  -25.4887  -44.9005 C.3       13 UNK         0.1400 
     76 CB          0.6363  -24.5235  -44.3391 C.3       13 UNK        -0.1800 
     77 C          -0.1547  -25.7673  -46.3933 C.2       13 UNK         0.5000 
     78 O           0.6806  -26.6127  -46.7138 O.2       13 UNK        -0.5000 
     79 N          -0.8974  -25.0818  -47.2724 N.am      14 UNK        -0.5000 
     80 CA         -0.9286  -25.3021  -48.7172 C.3       14 UNK         0.1400 
     81 CB         -1.0305  -23.9370  -49.4148 C.3       14 UNK        -0.1800 
     82 C          -2.0909  -26.2293  -49.1312 C.2       14 UNK         0.5000 
     83 O          -2.4130  -26.2941  -50.3168 O.2       14 UNK        -0.5000 
     84 N          -2.7179  -26.9086  -48.1570 N.am      15 UNK        -0.5000 
     85 CA         -3.8602  -27.8182  -48.2963 C.3       15 UNK         0.1400 
     86 CB         -3.4745  -29.0660  -49.1187 C.3       15 UNK        -0.1800 
     87 C          -5.1381  -27.1227  -48.8128 C.2       15 UNK         0.5000 
     88 O          -5.9435  -27.7540  -49.4991 O.2       15 UNK        -0.5000 
     89 N          -5.3029  -25.8372  -48.4605 N.am      16 UNK        -0.5000 
     90 CA         -6.4203  -24.9588  -48.8205 C.3       16 UNK         0.1400 
     91 CB         -7.7394  -25.4477  -48.1866 C.3       16 UNK        -0.1800 
     92 C          -6.5227  -24.7078  -50.3398 C.2       16 UNK         0.5000 
     93 O          -7.6239  -24.6501  -50.8892 O.2       16 UNK        -0.5000 
     94 N          -5.3614  -24.5364  -50.9888 N.am      17 UNK        -0.5000 
     95 CA         -5.2252  -24.2344  -52.4184 C.3       17 UNK         0.1400 
     96 CB         -3.7611  -24.4532  -52.8325 C.3       17 UNK        -0.1800 
     97 C          -5.6916  -22.8173  -52.8174 C.2       17 UNK         0.5000 
     98 O          -5.8188  -22.5431  -54.0116 O.2       17 UNK        -0.5000 
     99 N          -5.9282  -21.9461  -51.8245 N.am      18 UNK        -0.5000 
    100 CA        -6.3280  -20.5431  -51.9562 C.3       18 UNK         0.1400 
    101 CB        -7.7420  -20.4257  -52.5697 C.3       18 UNK        -0.1800 
    102 C         -5.2422  -19.7277  -52.6865 C.2       18 UNK         0.5000 
    103 O         -4.0628  -19.8973  -52.3744 O.2       18 UNK        -0.5000 
    104 N         -5.6370  -18.8784  -53.6452 N.am      19 UNK        -0.5000 
    105 CA        -4.7640  -17.9770  -54.4056 C.3       19 UNK         0.1400 
    106 CB        -5.6215  -17.1606  -55.3837 C.3       19 UNK        -0.1800 
    107 C         -3.6058  -18.6681  -55.1560 C.2       19 UNK         0.5000 
    108 O         -2.5764  -18.0343  -55.3916 O.2       19 UNK        -0.5000 
    109 N         -3.7711  -19.9573  -55.4850 N.am      20 UNK        -0.5000 
    110 CA        -2.7486  -20.7936  -56.1136 C.3       20 UNK         0.1400 
    111 CB        -3.3870  -22.1098  -56.5800 C.3       20 UNK        -0.1800 
    112 C         -1.5301  -21.0706  -55.2096 C.2       20 UNK         0.5000 
    113 O         -0.4544  -21.3586  -55.7364 O.2       20 UNK        -0.5000 
    114 N         -1.6869  -20.9471  -53.8808 N.am      21 UNK        -0.5000 
    115 CA        -0.6102  -21.1348  -52.9013 C.3       21 UNK         0.1400 
    116 CB        -1.1988  -21.1481  -51.4844 C.3       21 UNK        -0.1800 
    117 C          0.5143  -20.0836  -53.0063 C.2       21 UNK         0.5000 
    118 O          1.6386  -20.3637  -52.5894 O.2       21 UNK        -0.5000 
    119 N          0.2036  -18.9156  -53.5843 N.am      22 UNK        -0.5000 
    120 CA         1.1764  -17.8663  -53.9292 C.3       22 UNK         0.1400 
    121 C          1.8959  -18.1036  -55.2921 C.2       22 UNK         0.5000 
    122 N          1.5928  -19.1534  -56.0486 N.am      22 UNK        -0.7600 
    123 O          2.7648  -17.3224  -55.6697 O.2       22 UNK        -0.5000 
    124 C124        0.5484  -16.4492  -53.8626 C.3       23 UNK        -0.0398 
    125 S125       -0.0366  -16.0259  -52.1857 S.3       23 UNK        -0.2404 
    126 C126       -1.8352  -16.0843  -52.4257 C.3       23 UNK        -0.0205 
    127 H127       -5.2484  -11.3038  -44.2698 H         1 UNK         0.0600 
    128 H128       -5.3550  -12.5716  -43.0451 H         1 UNK         0.0600 
    129 H129       -6.0279  -12.8399  -44.6566 H         1 UNK         0.0600 
    130 H130       -3.2268  -11.1429  -45.1518 H         1 UNK         0.3000 
    131 H131       -1.2217  -11.5153  -45.9432 H         1 UNK         0.0600 
    132 H132       -0.7023  -13.5734  -47.2593 H         1 UNK         0.0800 
    133 H133       -2.1287  -14.3543  -46.6351 H         1 UNK         0.0800 
    134 H134       -4.8027  -13.2964  -49.0502 H         1 UNK         0.0800 
    135 H135       -4.4584  -14.0127  -47.4951 H         1 UNK         0.0800 
    136 H136       -2.6854  -14.0239  -50.8430 H         1 UNK         0.1150 
    137 H137       -2.6235  -18.2854  -51.0852 H         1 UNK         0.1150 
    138 H138       -4.4582  -16.3586  -47.7223 H         1 UNK         0.1150 
    139 H139       -3.0075  -19.4948  -48.8219 H         1 UNK         0.0800 
    140 H140       -4.5864  -19.3744  -49.5551 H         1 UNK         0.0800 
    141 H141       -5.0665  -21.2549  -47.9635 H         1 UNK         0.0800 
    142 H142       -5.7707  -20.9879  -46.3904 H         1 UNK         0.0800 
    143 H143       -2.8009  -21.3592  -46.9916 H         1 UNK         0.0600 
    144 H144       -3.7981  -19.9999  -44.8165 H         1 UNK         0.3000 
    145 H145       -2.8722  -19.8475  -42.7301 H         1 UNK         0.0600 
    146 H146       -1.0829  -20.3475  -41.0775 H         1 UNK         0.0600 
    147 H147       -1.8341  -21.8446  -41.6122 H         1 UNK         0.0600 
    148 H148       -0.2545  -21.3828  -42.2379 H         1 UNK         0.0600 
    149 H149       -0.3419  -19.4459  -44.2168 H         1 UNK         0.3000 
    150 H150       -0.7497  -15.9328  -43.9460 H         1 UNK         0.0600 
    151 H151        1.6656  -17.5982  -43.0636 H         1 UNK         0.0600 
    152 H152        0.8619  -16.3881  -42.0753 H         1 UNK         0.0600 
    153 H153        1.6919  -15.9030  -43.5468 H         1 UNK         0.0600 
    154 H154        1.0952  -17.4681  -45.4635 H         1 UNK         0.3000 
    155 H155       -1.0787  -18.1157  -48.2454 H         1 UNK         0.0600 
    156 H156        1.2970  -16.2269  -47.8836 H         1 UNK         0.0600 
    157 H157       -0.2824  -15.7800  -48.5308 H         1 UNK         0.0600 
    158 H158        0.7369  -16.9139  -49.4037 H         1 UNK         0.0600 
    159 H159        1.6564  -18.5829  -47.1453 H         1 UNK         0.3000 
    160 H160        1.1623  -22.0587  -47.0130 H         1 UNK         0.0600 
    161 H161        2.8537  -20.6608  -49.1583 H         1 UNK         0.0600 
    162 H162        1.6271  -21.8730  -49.4844 H         1 UNK         0.0600 
    163 H163        3.0633  -22.3138  -48.5770 H         1 UNK         0.0600 
    164 H164        3.5507  -20.5232  -46.8196 H         1 UNK         0.3000 
    165 H165        3.1448  -19.3260  -43.5026 H         1 UNK         0.0600 
    166 H166        5.1844  -20.6474  -43.1101 H         1 UNK         0.0600 
    167 H167        4.9187  -21.5702  -44.5901 H         1 UNK         0.0600 
    168 H168        3.8044  -21.7253  -43.2372 H         1 UNK         0.0600 
    169 H169        5.4275  -19.0864  -44.9752 H         1 UNK         0.3000 
    170 H170        5.9691  -16.9060  -45.6023 H         1 UNK         0.0600 
    171 H171        6.0447  -18.5187  -47.5217 H         1 UNK         0.0600 
    172 H172        4.8620  -17.5543  -48.3970 H         1 UNK         0.0600 
    173 H173        6.4641  -16.9002  -48.0548 H         1 UNK         0.0600 
    174 H174        4.5823  -15.2877  -47.5071 H         1 UNK         0.3000 
    175 H175        4.5270  -12.8066  -46.5160 H         1 UNK         0.0600 
    176 H176        1.8456  -14.2445  -46.8428 H         1 UNK         0.0600 
    177 H177        2.1621  -12.6184  -47.4392 H         1 UNK         0.0600 
    178 H178        3.0585  -13.9783  -48.0860 H         1 UNK         0.0600 
    179 H179        2.1397  -12.7925  -44.7867 H         1 UNK         0.3000 
    180 H180        3.5859  -11.1759  -42.1299 H         1 UNK         0.0600 
    181 H181        2.3709   -9.3681  -44.2881 H         1 UNK         0.0600 
    182 H182        3.9150   -9.1138  -43.4843 H         1 UNK         0.0600 
    183 H183        2.4258   -9.0156  -42.5602 H         1 UNK         0.0600 
    184 H184        0.9203  -11.0905  -43.3345 H         1 UNK         0.3000 
    185 H185       -0.1551  -14.1707  -42.1054 H         1 UNK         0.0600 
    186 H186       -1.8376  -12.9517  -40.7633 H         1 UNK         0.0600 
    187 H187       -0.2838  -12.9175  -39.9465 H         1 UNK         0.0600 
    188 H188       -0.8524  -11.4882  -40.8008 H         1 UNK         0.0600 
    189 H189       -1.7172  -12.0619  -43.0848 H         1 UNK         0.3000 
    190 H190       -4.2757  -22.8296  -44.2228 H         1 UNK         0.3000 
    191 H191       -4.9649  -25.3831  -45.2827 H         1 UNK         0.0600 
    192 H192       -4.8346  -26.0805  -42.8841 H         1 UNK         0.0600 
    193 H193       -5.7325  -24.5821  -43.0642 H         1 UNK         0.0600 
    194 H194       -4.0716  -24.5499  -42.4695 H         1 UNK         0.0600 
    195 H195       -1.8101  -23.9507  -44.4665 H         1 UNK         0.3000 
    196 H196       -0.3333  -26.4361  -44.3645 H         1 UNK         0.0600 
    197 H197        0.6614  -23.5836  -44.8918 H         1 UNK         0.0600 
    198 H198        0.4453  -24.2904  -43.2915 H         1 UNK         0.0600 
    199 H199        1.6334  -24.9610  -44.3996 H         1 UNK         0.0600 
    200 H200       -1.5819  -24.4269  -46.9167 H         1 UNK         0.3000 
    201 H201       -0.0017  -25.7789  -49.0415 H         1 UNK         0.0600 
    202 H202       -1.9796  -23.4421  -49.2071 H         1 UNK         0.0600 
    203 H203       -0.9433  -24.0425  -50.4967 H         1 UNK         0.0600 
    204 H204       -0.2327  -23.2721  -49.0882 H         1 UNK         0.0600 
    205 H205       -2.3954  -26.7783  -47.2064 H         1 UNK         0.3000 
    206 H206       -4.0969  -28.1570  -47.2869 H         1 UNK         0.0600 
    207 H207       -2.5727  -29.5345  -48.7246 H         1 UNK         0.0600 
    208 H208       -4.2667  -29.8148  -49.0881 H         1 UNK         0.0600 
    209 H209       -3.2967  -28.8230  -50.1666 H         1 UNK         0.0600 
    210 H210       -4.5637  -25.3845  -47.9322 H         1 UNK         0.3000 
    211 H211       -6.1941  -23.9886  -48.3765 H         1 UNK         0.0600 
    212 H212       -8.5363  -24.7175  -48.3324 H         1 UNK         0.0600 
    213 H213       -7.6288  -25.5947  -47.1122 H         1 UNK         0.0600 
    214 H214       -8.0771  -26.3885  -48.6218 H         1 UNK         0.0600 
    215 H215       -4.5007  -24.6520  -50.4721 H         1 UNK         0.3000 
    216 H216       -5.8442  -24.9416  -52.9739 H         1 UNK         0.0600 
    217 H217       -3.0819  -23.8158  -52.2664 H         1 UNK         0.0600 
    218 H218       -3.6109  -24.2360  -53.8902 H         1 UNK         0.0600 
    219 H219       -3.4598  -25.4885  -52.6742 H         1 UNK         0.0600 
    220 H220       -5.7503  -22.2640  -50.8845 H         1 UNK         0.3000 
    221 H221       -6.3789  -20.1425  -50.9435 H         1 UNK         0.0600 
    222 H222       -8.4544  -21.0418  -52.0208 H         1 UNK         0.0600 
    223 H223       -7.7687  -20.7441  -53.6124 H         1 UNK         0.0600 
    224 H224       -8.1095  -19.3999  -52.5236 H         1 UNK         0.0600 
    225 H225       -6.6232  -18.8225  -53.8535 H         1 UNK         0.3000 
    226 H226       -4.3193  -17.2851  -53.6890 H         1 UNK         0.0600 
    227 H227       -6.1296  -17.8026  -56.1044 H         1 UNK         0.0600 
    228 H228       -6.3789  -16.5802  -54.8564 H         1 UNK         0.0600 
    229 H229       -5.0087  -16.4552  -55.9467 H         1 UNK         0.0600 
    230 H230       -4.6338  -20.4151  -55.2241 H         1 UNK         0.3000 
    231 H231       -2.3825  -20.2648  -56.9962 H         1 UNK         0.0600 
    232 H232       -3.7729  -22.6881  -55.7412 H         1 UNK         0.0600 
    233 H233       -2.6596  -22.7340  -57.1007 H         1 UNK         0.0600 
    234 H234       -4.2111  -21.9276  -57.2698 H         1 UNK         0.0600 
    235 H235       -2.5902  -20.6686  -53.5090 H         1 UNK         0.3000 
    236 H236       -0.1628  -22.1131  -53.0885 H         1 UNK         0.0600 
    237 H237       -2.0113  -21.8675  -51.3912 H         1 UNK         0.0600 
    238 H238       -0.4363  -21.4142  -50.7531 H         1 UNK         0.0600 
    239 H239       -1.5846  -20.1729  -51.1985 H         1 UNK         0.0600 
    240 H240       -0.7379  -18.7782  -53.9242 H         1 UNK         0.3000 
    241 H241        1.9735  -17.8903  -53.1836 H         1 UNK         0.0600 
    242 H242        2.0799  -19.2836  -56.9211 H         1 UNK         0.3800 
    243 H243        0.8957  -19.8319  -55.7648 H         1 UNK         0.3800 
    244 H244       -0.2668  -16.3566  -54.5824 H         1 UNK         0.0800 
    245 H245        1.2828  -15.6915  -54.1411 H         1 UNK         0.0800 
    246 H246       -2.0820  -16.9627  -53.0200 H         1 UNK         0.0800 
    247 H247       -2.1596  -15.2152  -52.9998 H         1 UNK         0.0800 
@<TRIPOS>BOND
     1    1    2 1    
     2    1  127 1    
     3    1  128 1    
     4    1  129 1    
     5    2    3 2    
     6    2    4 am   BACKBONE|DICT|INTERRES
     7    4    5 1    
     8    4  130 1    
     9    5    6 1    
    10    5   65 1    
    11    5  131 1    
    12    6    7 1    
    13    6  132 1    
    14    6  133 1    
    15    7    8 1    
    16    8    9 1    
    17    8  134 1    
    18    8  135 1    
    19    9   10 ar   
    20    9   14 ar   
    21   10   11 ar   
    22   10  136 1    
    23   11   12 ar   
    24   11  126 1    
    25   12   13 ar   
    26   12  137 1    
    27   13   14 ar   
    28   13   15 1    
    29   14  138 1    
    30   15   16 1    
    31   15  139 1    
    32   15  140 1    
    33   16   17 1    
    34   17   18 1    
    35   17  141 1    
    36   17  142 1    
    37   18   19 1    
    38   18   67 1    
    39   18  143 1    
    40   19   20 am   BACKBONE|DICT|INTERRES
    41   19  144 1    
    42   20   21 2    
    43   20   22 1    
    44   22   23 1    
    45   22   24 1    
    46   22  145 1    
    47   23  146 1    
    48   23  147 1    
    49   23  148 1    
    50   24   25 am   BACKBONE|DICT|INTERRES
    51   24  149 1    
    52   25   26 2    
    53   25   27 1    
    54   27   28 1    
    55   27   29 1    
    56   27  150 1    
    57   28  151 1    
    58   28  152 1    
    59   28  153 1    
    60   29   30 am   BACKBONE|DICT|INTERRES
    61   29  154 1    
    62   30   31 2    
    63   30   32 1    
    64   32   33 1    
    65   32   34 1    
    66   32  155 1    
    67   33  156 1    
    68   33  157 1    
    69   33  158 1    
    70   34   35 am   BACKBONE|DICT|INTERRES
    71   34  159 1    
    72   35   36 2    
    73   35   37 1    
    74   37   38 1    
    75   37   39 1    
    76   37  160 1    
    77   38  161 1    
    78   38  162 1    
    79   38  163 1    
    80   39   40 am   BACKBONE|DICT|INTERRES
    81   39  164 1    
    82   40   41 2    
    83   40   42 1    
    84   42   43 1    
    85   42   44 1    
    86   42  165 1    
    87   43  166 1    
    88   43  167 1    
    89   43  168 1    
    90   44   45 am   BACKBONE|DICT|INTERRES
    91   44  169 1    
    92   45   46 2    
    93   45   47 1    
    94   47   48 1    
    95   47   49 1    
    96   47  170 1    
    97   48  171 1    
    98   48  172 1    
    99   48  173 1    
   100   49   50 am   BACKBONE|DICT|INTERRES
   101   49  174 1    
   102   50   51 2    
   103   50   52 1    
   104   52   53 1    
   105   52   54 1    
   106   52  175 1    
   107   53  176 1    
   108   53  177 1    
   109   53  178 1    
   110   54   55 am   BACKBONE|DICT|INTERRES
   111   54  179 1    
   112   55   56 2    
   113   55   57 1    
   114   57   58 1    
   115   57   59 1    
   116   57  180 1    
   117   58  181 1    
   118   58  182 1    
   119   58  183 1    
   120   59   60 am   BACKBONE|DICT|INTERRES
   121   59  184 1    
   122   60   61 2    
   123   60   62 1    
   124   62   63 1    
   125   62   64 1    
   126   62  185 1    
   127   63  186 1    
   128   63  187 1    
   129   63  188 1    
   130   64   65 am   BACKBONE|DICT|INTERRES
   131   64  189 1    
   132   65   66 2    
   133   67   68 2    
   134   67   69 am   BACKBONE|DICT|INTERRES
   135   69   70 1    
   136   69  190 1    
   137   70   71 1    
   138   70   72 1    
   139   70  191 1    
   140   71  192 1    
   141   71  193 1    
   142   71  194 1    
   143   72   73 2    
   144   72   74 am   BACKBONE|DICT|INTERRES
   145   74   75 1    
   146   74  195 1    
   147   75   76 1    
   148   75   77 1    
   149   75  196 1    
   150   76  197 1    
   151   76  198 1    
   152   76  199 1    
   153   77   78 2    
   154   77   79 am   BACKBONE|DICT|INTERRES
   155   79   80 1    
   156   79  200 1    
   157   80   81 1    
   158   80   82 1    
   159   80  201 1    
   160   81  202 1    
   161   81  203 1    
   162   81  204 1    
   163   82   83 2    
   164   82   84 am   BACKBONE|DICT|INTERRES
   165   84   85 1    
   166   84  205 1    
   167   85   86 1    
   168   85   87 1    
   169   85  206 1    
   170   86  207 1    
   171   86  208 1    
   172   86  209 1    
   173   87   88 2    
   174   87   89 am   BACKBONE|DICT|INTERRES
   175   89   90 1    
   176   89  210 1    
   177   90   91 1    
   178   90   92 1    
   179   90  211 1    
   180   91  212 1    
   181   91  213 1    
   182   91  214 1    
   183   92   93 2    
   184   92   94 am   BACKBONE|DICT|INTERRES
   185   94   95 1    
   186   94  215 1    
   187   95   96 1    
   188   95   97 1    
   189   95  216 1    
   190   96  217 1    
   191   96  218 1    
   192   96  219 1    
   193   97   98 2    
   194   97   99 am   BACKBONE|DICT|INTERRES
   195   99  100 1    
   196   99  220 1    
   197  100  101 1    
   198  100  102 1    
   199  100  221 1    
   200  101  222 1    
   201  101  223 1    
   202  101  224 1    
   203  102  103 2    
   204  102  104 am   BACKBONE|DICT|INTERRES
   205  104  105 1    
   206  104  225 1    
   207  105  106 1    
   208  105  107 1    
   209  105  226 1    
   210  106  227 1    
   211  106  228 1    
   212  106  229 1    
   213  107  108 2    
   214  107  109 am   BACKBONE|DICT|INTERRES
   215  109  110 1    
   216  109  230 1    
   217  110  111 1    
   218  110  112 1    
   219  110  231 1    
   220  111  232 1    
   221  111  233 1    
   222  111  234 1    
   223  112  113 2    
   224  112  114 am   BACKBONE|DICT|INTERRES
   225  114  115 1    
   226  114  235 1    
   227  115  116 1    
   228  115  117 1    
   229  115  236 1    
   230  116  237 1    
   231  116  238 1    
   232  116  239 1    
   233  117  118 2    
   234  117  119 am   BACKBONE|DICT|INTERRES
   235  119  120 1    
   236  119  240 1    
   237  120  121 1    
   238  120  124 1    
   239  120  241 1    
   240  121  122 am   BACKBONE|DICT|INTERRES
   241  121  123 2    
   242  122  242 1    
   243  122  243 1    
   244  124  125 1    
   245  124  244 1    
   246  124  245 1    
   247  125  126 1    
   248  126  246 1    
   249  126  247 1    
@<TRIPOS>SUBSTRUCTURE
     1 UNK         1 GROUP             0       ****    0 ROOT    
