@<TRIPOS>MOLECULE
3R540
247   249    1
SMALL
USER_CHARGES


@<TRIPOS>ATOM
      1 CA          2.3148  -17.4857  -42.4507 C.3       0 UNK        -0.1800 
      2 C           0.9695  -17.7764  -43.1016 C.2       0 UNK         0.5000 
      3 O           0.1052  -18.3906  -42.4765 O.2       0 UNK        -0.5000 
      4 N           0.8024  -17.3442  -44.3560 N.am      1 UNK        -0.5000 
      5 CA         -0.4258  -17.4310  -45.1492 C.3       1 UNK         0.1400 
      6 C6         -0.1460  -16.9209  -46.5863 C.3       23 UNK        -0.0398 
      7 S7         -1.5572  -16.9552  -47.7389 S.3       23 UNK        -0.2404 
      8 C8         -0.7861  -16.2259  -49.2259 C.3       23 UNK        -0.0205 
      9 C9          0.2494  -17.1051  -49.9298 C.ar      23 UNK        -0.0193 
     10 C10         1.1512  -16.5087  -50.8146 C.ar      23 UNK        -0.1150 
     11 C11         2.0713  -17.2819  -51.5284 C.ar      23 UNK        -0.0193 
     12 C12         2.1047  -18.6658  -51.3358 C.ar      23 UNK        -0.1150 
     13 C13         1.2070  -19.2837  -50.4618 C.ar      23 UNK        -0.0193 
     14 C14         0.2856  -18.4946  -49.7667 C.ar      23 UNK        -0.1150 
     15 C15         1.1970  -20.8032  -50.3248 C.3       23 UNK        -0.0205 
     16 S16         1.6833  -21.3715  -48.6613 S.3       23 UNK        -0.2404 
     17 C17         0.0970  -21.3028  -47.7631 C.3       23 UNK        -0.0398 
     18 CA         -0.3271  -22.6700  -47.1856 C.3       11 UNK         0.1400 
     19 N           0.6189  -23.1817  -46.1897 N.am      11 UNK        -0.5000 
     20 C           0.6025  -24.4342  -45.7083 C.2       10 UNK         0.5000 
     21 O          -0.2095  -25.2868  -46.0623 O.2       10 UNK        -0.5000 
     22 CA          1.6194  -24.7831  -44.6039 C.3       10 UNK         0.1400 
     23 CB          2.9395  -25.2632  -45.2241 C.3       10 UNK        -0.1800 
     24 N           1.8933  -23.6682  -43.6987 N.am      10 UNK        -0.5000 
     25 C           0.9743  -22.9927  -42.9946 C.2       9 UNK         0.5000 
     26 O          -0.2143  -23.3103  -42.9460 O.2       9 UNK        -0.5000 
     27 CA          1.4449  -21.7126  -42.2785 C.3       9 UNK         0.1400 
     28 CB          1.5942  -21.9627  -40.7710 C.3       9 UNK        -0.1800 
     29 N           2.6978  -21.1486  -42.7974 N.am      9 UNK        -0.5000 
     30 C           2.9031  -20.7151  -44.0492 C.2       8 UNK         0.5000 
     31 O           2.0643  -20.7879  -44.9522 O.2       8 UNK        -0.5000 
     32 CA          4.2973  -20.1450  -44.3373 C.3       8 UNK         0.1400 
     33 CB          5.3374  -21.2727  -44.4580 C.3       8 UNK        -0.1800 
     34 N           4.2605  -19.3887  -45.5820 N.am      8 UNK        -0.5000 
     35 C           5.0066  -18.3157  -45.8639 C.2       7 UNK         0.5000 
     36 O           5.8269  -17.8314  -45.0809 O.2       7 UNK        -0.5000 
     37 CA          4.8472  -17.6869  -47.2655 C.3       7 UNK         0.1400 
     38 CB          3.7443  -18.3314  -48.1305 C.3       7 UNK        -0.1800 
     39 N           4.6682  -16.2330  -47.2264 N.am      7 UNK        -0.5000 
     40 C           3.7031  -15.5545  -46.5924 C.2       6 UNK         0.5000 
     41 O           2.8441  -16.0719  -45.8731 O.2       6 UNK        -0.5000 
     42 CA          3.6815  -14.0397  -46.8444 C.3       6 UNK         0.1400 
     43 CB          3.2104  -13.7302  -48.2783 C.3       6 UNK        -0.1800 
     44 N           2.7725  -13.4005  -45.9018 N.am      6 UNK        -0.5000 
     45 C           2.8778  -12.1617  -45.4164 C.2       5 UNK         0.5000 
     46 O           3.7972  -11.3917  -45.7018 O.2       5 UNK        -0.5000 
     47 CA          1.7310  -11.7016  -44.4905 C.3       5 UNK         0.1400 
     48 CB          2.0788  -10.4218  -43.7088 C.3       5 UNK        -0.1800 
     49 N           0.4985  -11.4700  -45.2479 N.am      5 UNK        -0.5000 
     50 C          -0.2954  -12.4311  -45.7345 C.2       4 UNK         0.5000 
     51 O          -0.0931  -13.6334  -45.5632 O.2       4 UNK        -0.5000 
     52 CA         -1.4857  -11.9794  -46.5875 C.3       4 UNK         0.1400 
     53 CB         -1.0175  -11.6177  -48.0108 C.3       4 UNK        -0.1800 
     54 N          -2.4660  -13.0605  -46.6452 N.am      4 UNK        -0.5000 
     55 C          -3.7441  -12.9272  -47.0158 C.2       3 UNK         0.5000 
     56 O          -4.2575  -11.8460  -47.3078 O.2       3 UNK        -0.5000 
     57 CA         -4.5983  -14.2049  -47.0956 C.3       3 UNK         0.1400 
     58 CB         -4.6114  -14.7427  -48.5342 C.3       3 UNK        -0.1800 
     59 N          -4.1506  -15.2685  -46.1943 N.am      3 UNK        -0.5000 
     60 C          -4.5097  -15.3640  -44.9062 C.2       2 UNK         0.5000 
     61 O          -5.1954  -14.5215  -44.3260 O.2       2 UNK        -0.5000 
     62 CA         -4.0546  -16.6217  -44.1383 C.3       2 UNK         0.1400 
     63 CB         -5.1575  -17.6921  -44.1591 C.3       2 UNK        -0.1800 
     64 N          -2.8219  -17.2057  -44.6672 N.am      2 UNK        -0.5000 
     65 C          -1.6025  -16.6905  -44.4656 C.2       1 UNK         0.5000 
     66 O          -1.4004  -15.6840  -43.7826 O.2       1 UNK        -0.5000 
     67 C          -1.7592  -22.5639  -46.6272 C.2       11 UNK         0.5000 
     68 O          -2.7153  -22.7872  -47.3711 O.2       11 UNK        -0.5000 
     69 N          -1.8867  -22.2218  -45.3386 N.am      12 UNK        -0.5000 
     70 CA         -3.1663  -22.1632  -44.6369 C.3       12 UNK         0.1400 
     71 CB         -3.0325  -21.2811  -43.3860 C.3       12 UNK        -0.1800 
     72 C          -3.6690  -23.5736  -44.2854 C.2       12 UNK         0.5000 
     73 O          -4.8516  -23.8565  -44.4733 O.2       12 UNK        -0.5000 
     74 N          -2.7550  -24.4430  -43.8296 N.am      13 UNK        -0.5000 
     75 CA         -3.0233  -25.8401  -43.4800 C.3       13 UNK         0.1400 
     76 CB         -1.7794  -26.4468  -42.8144 C.3       13 UNK        -0.1800 
     77 C          -3.4685  -26.6939  -44.6829 C.2       13 UNK         0.5000 
     78 O          -4.4040  -27.4840  -44.5531 O.2       13 UNK        -0.5000 
     79 N          -2.8148  -26.4994  -45.8369 N.am      14 UNK        -0.5000 
     80 CA         -3.1524  -27.1506  -47.1063 C.3       14 UNK         0.1400 
     81 CB         -1.9288  -27.0926  -48.0351 C.3       14 UNK        -0.1800 
     82 C          -4.3758  -26.5275  -47.8084 C.2       14 UNK         0.5000 
     83 O          -4.8636  -27.1033  -48.7814 O.2       14 UNK        -0.5000 
     84 N          -4.8246  -25.3576  -47.3286 N.am      15 UNK        -0.5000 
     85 CA         -5.8970  -24.5170  -47.8712 C.3       15 UNK         0.1400 
     86 CB         -7.2593  -25.2387  -47.8201 C.3       15 UNK        -0.1800 
     87 C          -5.5754  -23.9343  -49.2643 C.2       15 UNK         0.5000 
     88 O          -6.4884  -23.5663  -50.0038 O.2       15 UNK        -0.5000 
     89 N          -4.2792  -23.8049  -49.5806 N.am      16 UNK        -0.5000 
     90 CA         -3.7694  -23.1201  -50.7695 C.3       16 UNK         0.1400 
     91 CB         -2.2665  -23.4021  -50.9167 C.3       16 UNK        -0.1800 
     92 C          -4.0283  -21.6056  -50.7019 C.2       16 UNK         0.5000 
     93 O          -4.3108  -20.9896  -51.7281 O.2       16 UNK        -0.5000 
     94 N          -3.9895  -21.0552  -49.4788 N.am      17 UNK        -0.5000 
     95 CA         -4.2885  -19.6610  -49.1438 C.3       17 UNK         0.1400 
     96 CB         -4.0546  -19.4660  -47.6374 C.3       17 UNK        -0.1800 
     97 C          -5.7132  -19.2007  -49.5228 C.2       17 UNK         0.5000 
     98 O          -5.9384  -17.9994  -49.6594 O.2       17 UNK        -0.5000 
     99 N          -6.6485  -20.1488  -49.6817 N.am      18 UNK        -0.5000 
    100 CA        -8.0212  -19.8921  -50.1214 C.3       18 UNK         0.1400 
    101 CB        -8.9155  -21.0543  -49.6615 C.3       18 UNK        -0.1800 
    102 C         -8.1420  -19.6864  -51.6463 C.2       18 UNK         0.5000 
    103 O         -9.1659  -19.1724  -52.0998 O.2       18 UNK        -0.5000 
    104 N         -7.1181  -20.0946  -52.4072 N.am      19 UNK        -0.5000 
    105 CA        -7.0156  -19.9279  -53.8553 C.3       19 UNK         0.1400 
    106 CB        -6.5324  -21.2615  -54.4597 C.3       19 UNK        -0.1800 
    107 C         -6.0753  -18.7488  -54.1820 C.2       19 UNK         0.5000 
    108 O         -5.8870  -17.8585  -53.3497 O.2       19 UNK        -0.5000 
    109 N         -5.4916  -18.7551  -55.3902 N.am      20 UNK        -0.5000 
    110 CA        -4.4646  -17.7986  -55.8220 C.3       20 UNK         0.1400 
    111 CB        -4.2124  -17.9723  -57.3276 C.3       20 UNK        -0.1800 
    112 C         -3.1460  -17.9417  -55.0338 C.2       20 UNK         0.5000 
    113 O         -2.4332  -16.9542  -54.8552 O.2       20 UNK        -0.5000 
    114 N         -2.8709  -19.1680  -54.5652 N.am      21 UNK        -0.5000 
    115 CA        -1.8135  -19.5981  -53.6439 C.3       21 UNK         0.1400 
    116 CB        -1.9047  -18.8256  -52.3180 C.3       21 UNK        -0.1800 
    117 C         -0.3841  -19.5787  -54.2241 C.2       21 UNK         0.5000 
    118 O          0.3811  -20.5048  -53.9531 O.2       21 UNK        -0.5000 
    119 N         -0.0578  -18.5739  -55.0398 N.am      22 UNK        -0.5000 
    120 CA         1.1950  -18.4461  -55.7921 C.3       22 UNK         0.1400 
    121 C          1.0107  -17.5853  -57.0731 C.2       22 UNK         0.5000 
    122 N          2.0112  -17.5304  -57.9426 N.am      22 UNK        -0.7600 
    123 O         -0.0313  -16.9736  -57.3018 O.2       22 UNK        -0.5000 
    124 C124        2.3993  -18.0068  -54.9112 C.3       23 UNK        -0.0398 
    125 S125        2.2279  -16.3578  -54.1373 S.3       23 UNK        -0.2404 
    126 C126        3.0174  -16.6164  -52.5148 C.3       23 UNK        -0.0205 
    127 H127        2.2196  -16.6527  -41.7544 H         1 UNK         0.0600 
    128 H128        3.0720  -17.2279  -43.1923 H         1 UNK         0.0600 
    129 H129        2.6650  -18.3550  -41.8949 H         1 UNK         0.0600 
    130 H130        1.5657  -16.8459  -44.8106 H         1 UNK         0.3000 
    131 H131       -0.6863  -18.4899  -45.2099 H         1 UNK         0.0600 
    132 H132        0.6498  -17.5223  -47.0253 H         1 UNK         0.0800 
    133 H133        0.2390  -15.9030  -46.5589 H         1 UNK         0.0800 
    134 H134       -1.5760  -16.0014  -49.9433 H         1 UNK         0.0800 
    135 H135       -0.3366  -15.2700  -48.9515 H         1 UNK         0.0800 
    136 H136        1.1215  -15.4393  -50.9697 H         1 UNK         0.1150 
    137 H137        2.8150  -19.2668  -51.8847 H         1 UNK         0.1150 
    138 H138       -0.4340  -18.9671  -49.1225 H         1 UNK         0.1150 
    139 H139        0.2116  -21.1899  -50.5874 H         1 UNK         0.0800 
    140 H140        1.8865  -21.2461  -51.0448 H         1 UNK         0.0800 
    141 H141       -0.6813  -20.9561  -48.4425 H         1 UNK         0.0800 
    142 H142        0.1794  -20.5509  -46.9759 H         1 UNK         0.0800 
    143 H143       -0.3595  -23.3889  -48.0072 H         1 UNK         0.0600 
    144 H144        1.2949  -22.5158  -45.8306 H         1 UNK         0.3000 
    145 H145        1.2027  -25.5975  -44.0095 H         1 UNK         0.0600 
    146 H146        3.6409  -25.5905  -44.4564 H         1 UNK         0.0600 
    147 H147        2.7718  -26.1096  -45.8916 H         1 UNK         0.0600 
    148 H148        3.4207  -24.4759  -45.8063 H         1 UNK         0.0600 
    149 H149        2.8435  -23.3308  -43.6751 H         1 UNK         0.3000 
    150 H150        0.6610  -20.9684  -42.4248 H         1 UNK         0.0600 
    151 H151        2.3883  -22.6795  -40.5586 H         1 UNK         0.0600 
    152 H152        0.6707  -22.3596  -40.3470 H         1 UNK         0.0600 
    153 H153        1.8216  -21.0385  -40.2392 H         1 UNK         0.0600 
    154 H154        3.4515  -21.0713  -42.1296 H         1 UNK         0.3000 
    155 H155        4.5675  -19.4835  -43.5115 H         1 UNK         0.0600 
    156 H156        5.0897  -21.9616  -45.2668 H         1 UNK         0.0600 
    157 H157        5.4019  -21.8540  -43.5375 H         1 UNK         0.0600 
    158 H158        6.3319  -20.8717  -44.6548 H         1 UNK         0.0600 
    159 H159        3.5512  -19.6941  -46.2366 H         1 UNK         0.3000 
    160 H160        5.7965  -17.8582  -47.7747 H         1 UNK         0.0600 
    161 H161        2.7617  -18.2661  -47.6644 H         1 UNK         0.0600 
    162 H162        3.9564  -19.3833  -48.3230 H         1 UNK         0.0600 
    163 H163        3.6802  -17.8392  -49.1000 H         1 UNK         0.0600 
    164 H164        5.3449  -15.7068  -47.7604 H         1 UNK         0.3000 
    165 H165        4.6938  -13.6576  -46.6969 H         1 UNK         0.0600 
    166 H166        3.1961  -12.6565  -48.4666 H         1 UNK         0.0600 
    167 H167        3.8710  -14.1791  -49.0207 H         1 UNK         0.0600 
    168 H168        2.2051  -14.1139  -48.4591 H         1 UNK         0.0600 
    169 H169        1.9725  -13.9644  -45.6301 H         1 UNK         0.3000 
    170 H170        1.5546  -12.4965  -43.7624 H         1 UNK         0.0600 
    171 H171        2.9906  -10.5567  -43.1255 H         1 UNK         0.0600 
    172 H172        2.2357   -9.5709  -44.3730 H         1 UNK         0.0600 
    173 H173        1.2840  -10.1592  -43.0104 H         1 UNK         0.0600 
    174 H174        0.2869  -10.5068  -45.4647 H         1 UNK         0.3000 
    175 H175       -1.9396  -11.1073  -46.1121 H         1 UNK         0.0600 
    176 H176       -0.2658  -10.8278  -47.9904 H         1 UNK         0.0600 
    177 H177       -0.5757  -12.4778  -48.5159 H         1 UNK         0.0600 
    178 H178       -1.8431  -11.2579  -48.6247 H         1 UNK         0.0600 
    179 H179       -2.1092  -13.9631  -46.3570 H         1 UNK         0.3000 
    180 H180       -5.6234  -13.9307  -46.8364 H         1 UNK         0.0600 
    181 H181       -3.6135  -15.0204  -48.8724 H         1 UNK         0.0600 
    182 H182       -4.9943  -13.9933  -49.2281 H         1 UNK         0.0600 
    183 H183       -5.2521  -15.6196  -48.6199 H         1 UNK         0.0600 
    184 H184       -3.5636  -15.9870  -46.5940 H         1 UNK         0.3000 
    185 H185       -3.8851  -16.3319  -43.0989 H         1 UNK         0.0600 
    186 H186       -6.0826  -17.3059  -43.7291 H         1 UNK         0.0600 
    187 H187       -5.3827  -18.0229  -45.1734 H         1 UNK         0.0600 
    188 H188       -4.8707  -18.5670  -43.5754 H         1 UNK         0.0600 
    189 H189       -2.9209  -18.0329  -45.2357 H         1 UNK         0.3000 
    190 H190       -1.0543  -22.1088  -44.7773 H         1 UNK         0.3000 
    191 H191       -3.9054  -21.6990  -45.2933 H         1 UNK         0.0600 
    192 H192       -2.6984  -20.2762  -43.6452 H         1 UNK         0.0600 
    193 H193       -3.9917  -21.1832  -42.8763 H         1 UNK         0.0600 
    194 H194       -2.3224  -21.6936  -42.6692 H         1 UNK         0.0600 
    195 H195       -1.8102  -24.1073  -43.6636 H         1 UNK         0.3000 
    196 H196       -3.8353  -25.8464  -42.7498 H         1 UNK         0.0600 
    197 H197       -1.9744  -27.4664  -42.4800 H         1 UNK         0.0600 
    198 H198       -1.4758  -25.8691  -41.9411 H         1 UNK         0.0600 
    199 H199       -0.9350  -26.4838  -43.5022 H         1 UNK         0.0600 
    200 H200       -2.0052  -25.8838  -45.8499 H         1 UNK         0.3000 
    201 H201       -3.3835  -28.1999  -46.9120 H         1 UNK         0.0600 
    202 H202       -2.1198  -27.6187  -48.9712 H         1 UNK         0.0600 
    203 H203       -1.0596  -27.5606  -47.5726 H         1 UNK         0.0600 
    204 H204       -1.6630  -26.0645  -48.2852 H         1 UNK         0.0600 
    205 H205       -4.3578  -24.9816  -46.5142 H         1 UNK         0.3000 
    206 H206       -5.9611  -23.6575  -47.2025 H         1 UNK         0.0600 
    207 H207       -7.4576  -25.6347  -46.8241 H         1 UNK         0.0600 
    208 H208       -8.0729  -24.5544  -48.0637 H         1 UNK         0.0600 
    209 H209       -7.3085  -26.0664  -48.5279 H         1 UNK         0.0600 
    210 H210       -3.5989  -24.0447  -48.8709 H         1 UNK         0.3000 
    211 H211       -4.2871  -23.5148  -51.6462 H         1 UNK         0.0600 
    212 H212       -1.6990  -23.0212  -50.0675 H         1 UNK         0.0600 
    213 H213       -1.8674  -22.9295  -51.8152 H         1 UNK         0.0600 
    214 H214       -2.0720  -24.4718  -50.9973 H         1 UNK         0.0600 
    215 H215       -3.7323  -21.6577  -48.7039 H         1 UNK         0.3000 
    216 H216       -3.5839  -19.0287  -49.6871 H         1 UNK         0.0600 
    217 H217       -4.2402  -18.4313  -47.3478 H         1 UNK         0.0600 
    218 H218       -3.0269  -19.7030  -47.3622 H         1 UNK         0.0600 
    219 H219       -4.7168  -20.0972  -47.0439 H         1 UNK         0.0600 
    220 H220       -6.3844  -21.1179  -49.5728 H         1 UNK         0.3000 
    221 H221       -8.3793  -18.9807  -49.6379 H         1 UNK         0.0600 
    222 H222       -8.6433  -21.9900  -50.1504 H         1 UNK         0.0600 
    223 H223       -8.8481  -21.2051  -48.5839 H         1 UNK         0.0600 
    224 H224       -9.9621  -20.8568  -49.8967 H         1 UNK         0.0600 
    225 H225       -6.2766  -20.4306  -51.9517 H         1 UNK         0.3000 
    226 H226       -7.9927  -19.6941  -54.2822 H         1 UNK         0.0600 
    227 H227       -6.5714  -21.2469  -55.5492 H         1 UNK         0.0600 
    228 H228       -5.5081  -21.4922  -54.1640 H         1 UNK         0.0600 
    229 H229       -7.1632  -22.0888  -54.1335 H         1 UNK         0.0600 
    230 H230       -5.7128  -19.5009  -56.0339 H         1 UNK         0.3000 
    231 H231       -4.8445  -16.7891  -55.6515 H         1 UNK         0.0600 
    232 H232       -3.8518  -18.9742  -57.5635 H         1 UNK         0.0600 
    233 H233       -3.4623  -17.2631  -57.6810 H         1 UNK         0.0600 
    234 H234       -5.1213  -17.7967  -57.9033 H         1 UNK         0.0600 
    235 H235       -3.5266  -19.8954  -54.8094 H         1 UNK         0.3000 
    236 H236       -2.0470  -20.6410  -53.4236 H         1 UNK         0.0600 
    237 H237       -2.9392  -18.6283  -52.0368 H         1 UNK         0.0600 
    238 H238       -1.4670  -19.4164  -51.5169 H         1 UNK         0.0600 
    239 H239       -1.3830  -17.8688  -52.3639 H         1 UNK         0.0600 
    240 H240       -0.7442  -17.8440  -55.2137 H         1 UNK         0.3000 
    241 H241        1.4215  -19.4447  -56.1709 H         1 UNK         0.0600 
    242 H242        1.8995  -16.9766  -58.7780 H         1 UNK         0.3800 
    243 H243        2.8745  -18.0298  -57.7955 H         1 UNK         0.3800 
    244 H244        3.3199  -18.0097  -55.4959 H         1 UNK         0.0800 
    245 H245        2.5566  -18.7538  -54.1350 H         1 UNK         0.0800 
    246 H246        3.9296  -17.2031  -52.6335 H         1 UNK         0.0800 
    247 H247        3.3298  -15.6489  -52.1189 H         1 UNK         0.0800 
@<TRIPOS>BOND
     1    1    2 1    
     2    1  127 1    
     3    1  128 1    
     4    1  129 1    
     5    2    3 2    
     6    2    4 am   BACKBONE|DICT|INTERRES
     7    4    5 1    
     8    4  130 1    
     9    5    6 1    
    10    5   65 1    
    11    5  131 1    
    12    6    7 1    
    13    6  132 1    
    14    6  133 1    
    15    7    8 1    
    16    8    9 1    
    17    8  134 1    
    18    8  135 1    
    19    9   10 ar   
    20    9   14 ar   
    21   10   11 ar   
    22   10  136 1    
    23   11   12 ar   
    24   11  126 1    
    25   12   13 ar   
    26   12  137 1    
    27   13   14 ar   
    28   13   15 1    
    29   14  138 1    
    30   15   16 1    
    31   15  139 1    
    32   15  140 1    
    33   16   17 1    
    34   17   18 1    
    35   17  141 1    
    36   17  142 1    
    37   18   19 1    
    38   18   67 1    
    39   18  143 1    
    40   19   20 am   BACKBONE|DICT|INTERRES
    41   19  144 1    
    42   20   21 2    
    43   20   22 1    
    44   22   23 1    
    45   22   24 1    
    46   22  145 1    
    47   23  146 1    
    48   23  147 1    
    49   23  148 1    
    50   24   25 am   BACKBONE|DICT|INTERRES
    51   24  149 1    
    52   25   26 2    
    53   25   27 1    
    54   27   28 1    
    55   27   29 1    
    56   27  150 1    
    57   28  151 1    
    58   28  152 1    
    59   28  153 1    
    60   29   30 am   BACKBONE|DICT|INTERRES
    61   29  154 1    
    62   30   31 2    
    63   30   32 1    
    64   32   33 1    
    65   32   34 1    
    66   32  155 1    
    67   33  156 1    
    68   33  157 1    
    69   33  158 1    
    70   34   35 am   BACKBONE|DICT|INTERRES
    71   34  159 1    
    72   35   36 2    
    73   35   37 1    
    74   37   38 1    
    75   37   39 1    
    76   37  160 1    
    77   38  161 1    
    78   38  162 1    
    79   38  163 1    
    80   39   40 am   BACKBONE|DICT|INTERRES
    81   39  164 1    
    82   40   41 2    
    83   40   42 1    
    84   42   43 1    
    85   42   44 1    
    86   42  165 1    
    87   43  166 1    
    88   43  167 1    
    89   43  168 1    
    90   44   45 am   BACKBONE|DICT|INTERRES
    91   44  169 1    
    92   45   46 2    
    93   45   47 1    
    94   47   48 1    
    95   47   49 1    
    96   47  170 1    
    97   48  171 1    
    98   48  172 1    
    99   48  173 1    
   100   49   50 am   BACKBONE|DICT|INTERRES
   101   49  174 1    
   102   50   51 2    
   103   50   52 1    
   104   52   53 1    
   105   52   54 1    
   106   52  175 1    
   107   53  176 1    
   108   53  177 1    
   109   53  178 1    
   110   54   55 am   BACKBONE|DICT|INTERRES
   111   54  179 1    
   112   55   56 2    
   113   55   57 1    
   114   57   58 1    
   115   57   59 1    
   116   57  180 1    
   117   58  181 1    
   118   58  182 1    
   119   58  183 1    
   120   59   60 am   BACKBONE|DICT|INTERRES
   121   59  184 1    
   122   60   61 2    
   123   60   62 1    
   124   62   63 1    
   125   62   64 1    
   126   62  185 1    
   127   63  186 1    
   128   63  187 1    
   129   63  188 1    
   130   64   65 am   BACKBONE|DICT|INTERRES
   131   64  189 1    
   132   65   66 2    
   133   67   68 2    
   134   67   69 am   BACKBONE|DICT|INTERRES
   135   69   70 1    
   136   69  190 1    
   137   70   71 1    
   138   70   72 1    
   139   70  191 1    
   140   71  192 1    
   141   71  193 1    
   142   71  194 1    
   143   72   73 2    
   144   72   74 am   BACKBONE|DICT|INTERRES
   145   74   75 1    
   146   74  195 1    
   147   75   76 1    
   148   75   77 1    
   149   75  196 1    
   150   76  197 1    
   151   76  198 1    
   152   76  199 1    
   153   77   78 2    
   154   77   79 am   BACKBONE|DICT|INTERRES
   155   79   80 1    
   156   79  200 1    
   157   80   81 1    
   158   80   82 1    
   159   80  201 1    
   160   81  202 1    
   161   81  203 1    
   162   81  204 1    
   163   82   83 2    
   164   82   84 am   BACKBONE|DICT|INTERRES
   165   84   85 1    
   166   84  205 1    
   167   85   86 1    
   168   85   87 1    
   169   85  206 1    
   170   86  207 1    
   171   86  208 1    
   172   86  209 1    
   173   87   88 2    
   174   87   89 am   BACKBONE|DICT|INTERRES
   175   89   90 1    
   176   89  210 1    
   177   90   91 1    
   178   90   92 1    
   179   90  211 1    
   180   91  212 1    
   181   91  213 1    
   182   91  214 1    
   183   92   93 2    
   184   92   94 am   BACKBONE|DICT|INTERRES
   185   94   95 1    
   186   94  215 1    
   187   95   96 1    
   188   95   97 1    
   189   95  216 1    
   190   96  217 1    
   191   96  218 1    
   192   96  219 1    
   193   97   98 2    
   194   97   99 am   BACKBONE|DICT|INTERRES
   195   99  100 1    
   196   99  220 1    
   197  100  101 1    
   198  100  102 1    
   199  100  221 1    
   200  101  222 1    
   201  101  223 1    
   202  101  224 1    
   203  102  103 2    
   204  102  104 am   BACKBONE|DICT|INTERRES
   205  104  105 1    
   206  104  225 1    
   207  105  106 1    
   208  105  107 1    
   209  105  226 1    
   210  106  227 1    
   211  106  228 1    
   212  106  229 1    
   213  107  108 2    
   214  107  109 am   BACKBONE|DICT|INTERRES
   215  109  110 1    
   216  109  230 1    
   217  110  111 1    
   218  110  112 1    
   219  110  231 1    
   220  111  232 1    
   221  111  233 1    
   222  111  234 1    
   223  112  113 2    
   224  112  114 am   BACKBONE|DICT|INTERRES
   225  114  115 1    
   226  114  235 1    
   227  115  116 1    
   228  115  117 1    
   229  115  236 1    
   230  116  237 1    
   231  116  238 1    
   232  116  239 1    
   233  117  118 2    
   234  117  119 am   BACKBONE|DICT|INTERRES
   235  119  120 1    
   236  119  240 1    
   237  120  121 1    
   238  120  124 1    
   239  120  241 1    
   240  121  122 am   BACKBONE|DICT|INTERRES
   241  121  123 2    
   242  122  242 1    
   243  122  243 1    
   244  124  125 1    
   245  124  244 1    
   246  124  245 1    
   247  125  126 1    
   248  126  246 1    
   249  126  247 1    
@<TRIPOS>SUBSTRUCTURE
     1 UNK         1 GROUP             0       ****    0 ROOT    
