@<TRIPOS>MOLECULE
3R540
247   249    1
SMALL
USER_CHARGES


@<TRIPOS>ATOM
      1 CA          1.6902  -20.3026  -52.4604 C.3       0 UNK        -0.1800 
      2 C           2.2279  -19.1020  -51.6977 C.2       0 UNK         0.5000 
      3 O           2.9417  -19.2668  -50.7093 O.2       0 UNK        -0.5000 
      4 N           1.9027  -17.8863  -52.1550 N.am      1 UNK        -0.5000 
      5 CA          2.2429  -16.6073  -51.5109 C.3       1 UNK         0.1400 
      6 C6          1.4897  -15.4233  -52.1634 C.3       23 UNK        -0.0398 
      7 S7         -0.2793  -15.4644  -51.7209 S.3       23 UNK        -0.2404 
      8 C8         -0.2624  -14.3038  -50.3223 C.3       23 UNK        -0.0205 
      9 C9         -1.4583  -14.4945  -49.4060 C.ar      23 UNK        -0.0193 
     10 C10        -2.5706  -13.6544  -49.5023 C.ar      23 UNK        -0.1150 
     11 C11        -3.6347  -13.7782  -48.6027 C.ar      23 UNK        -0.0193 
     12 C12        -3.5771  -14.7554  -47.6027 C.ar      23 UNK        -0.1150 
     13 C13        -2.4803  -15.6166  -47.5147 C.ar      23 UNK        -0.0193 
     14 C14        -1.4258  -15.4829  -48.4200 C.ar      23 UNK        -0.1150 
     15 C15        -2.4120  -16.6655  -46.4201 C.3       23 UNK        -0.0205 
     16 S16        -3.2411  -18.2077  -46.9045 S.3       23 UNK        -0.2404 
     17 C17        -2.8585  -19.2268  -45.4432 C.3       23 UNK        -0.0398 
     18 CA         -1.6551  -20.1772  -45.6734 C.3       11 UNK         0.1400 
     19 N          -0.8669  -20.3432  -44.4495 N.am      11 UNK        -0.5000 
     20 C           0.2794  -21.0287  -44.3438 C.2       10 UNK         0.5000 
     21 O           0.8505  -21.5680  -45.2899 O.2       10 UNK        -0.5000 
     22 CA          0.8552  -21.1774  -42.9268 C.3       10 UNK         0.1400 
     23 CB          1.6524  -19.9273  -42.5280 C.3       10 UNK        -0.1800 
     24 N          -0.1949  -21.4356  -41.9400 N.am      10 UNK        -0.5000 
     25 C          -0.8930  -22.5783  -41.8658 C.2       9 UNK         0.5000 
     26 O          -0.6980  -23.5463  -42.5990 O.2       9 UNK        -0.5000 
     27 CA         -2.0333  -22.6321  -40.8335 C.3       9 UNK         0.1400 
     28 CB         -1.4842  -22.9397  -39.4325 C.3       9 UNK        -0.1800 
     29 N          -2.8115  -21.3944  -40.7907 N.am      9 UNK        -0.5000 
     30 C          -3.5529  -20.9261  -41.8048 C.2       8 UNK         0.5000 
     31 O          -3.6918  -21.5090  -42.8796 O.2       8 UNK        -0.5000 
     32 CA         -4.2020  -19.5443  -41.6022 C.3       8 UNK         0.1400 
     33 CB         -5.5741  -19.6861  -40.9273 C.3       8 UNK        -0.1800 
     34 N          -3.3720  -18.6130  -40.8300 N.am      8 UNK        -0.5000 
     35 C          -2.1480  -18.2076  -41.1926 C.2       7 UNK         0.5000 
     36 O          -1.5589  -18.6287  -42.1899 O.2       7 UNK        -0.5000 
     37 CA         -1.4420  -17.2063  -40.2615 C.3       7 UNK         0.1400 
     38 CB         -0.3823  -17.9259  -39.4129 C.3       7 UNK        -0.1800 
     39 N          -0.7974  -16.1391  -41.0242 N.am      7 UNK        -0.5000 
     40 C          -1.4499  -15.1997  -41.7225 C.2       6 UNK         0.5000 
     41 O          -2.6746  -15.0661  -41.7030 O.2       6 UNK        -0.5000 
     42 CA         -0.6029  -14.2373  -42.5829 C.3       6 UNK         0.1400 
     43 CB         -0.4599  -12.8774  -41.8816 C.3       6 UNK        -0.1800 
     44 N           0.7346  -14.7308  -42.9327 N.am      6 UNK        -0.5000 
     45 C           0.9785  -15.8006  -43.6996 C.2       5 UNK         0.5000 
     46 O           0.0953  -16.5378  -44.1426 O.2       5 UNK        -0.5000 
     47 CA          2.4519  -16.0969  -44.0233 C.3       5 UNK         0.1400 
     48 CB          3.2454  -16.4844  -42.7634 C.3       5 UNK        -0.1800 
     49 N           2.4825  -17.2017  -44.9740 N.am      5 UNK        -0.5000 
     50 C           3.2112  -17.2632  -46.0902 C.2       4 UNK         0.5000 
     51 O           4.0656  -16.4316  -46.4064 O.2       4 UNK        -0.5000 
     52 CA          2.8563  -18.4322  -47.0293 C.3       4 UNK         0.1400 
     53 CB          1.5355  -18.1326  -47.7562 C.3       4 UNK        -0.1800 
     54 N           3.8871  -18.7273  -48.0264 N.am      4 UNK        -0.5000 
     55 C           5.1134  -19.1938  -47.7538 C.2       3 UNK         0.5000 
     56 O           5.5180  -19.4186  -46.6120 O.2       3 UNK        -0.5000 
     57 CA          6.0455  -19.4878  -48.9439 C.3       3 UNK         0.1400 
     58 CB          5.9724  -20.9765  -49.3214 C.3       3 UNK        -0.1800 
     59 N           5.7246  -18.6903  -50.1304 N.am      3 UNK        -0.5000 
     60 C           6.5283  -17.7650  -50.6754 C.2       2 UNK         0.5000 
     61 O           7.6246  -17.4521  -50.2089 O.2       2 UNK        -0.5000 
     62 CA          6.0480  -17.0769  -51.9723 C.3       2 UNK         0.1400 
     63 CB          6.6693  -17.7595  -53.2007 C.3       2 UNK        -0.1800 
     64 N           4.5928  -17.0751  -52.1205 N.am      2 UNK        -0.5000 
     65 C           3.7579  -16.3219  -51.3929 C.2       1 UNK         0.5000 
     66 O           4.1426  -15.4475  -50.6161 O.2       1 UNK        -0.5000 
     67 C          -2.1042  -21.5311  -46.2660 C.2       11 UNK         0.5000 
     68 O          -2.0198  -21.7292  -47.4798 O.2       11 UNK        -0.5000 
     69 N          -2.5457  -22.4459  -45.3919 N.am      12 UNK        -0.5000 
     70 CA         -2.9104  -23.8177  -45.7330 C.3       12 UNK         0.1400 
     71 CB         -3.6953  -24.4450  -44.5714 C.3       12 UNK        -0.1800 
     72 C          -1.6896  -24.6769  -46.1036 C.2       12 UNK         0.5000 
     73 O          -1.7252  -25.3524  -47.1314 O.2       12 UNK        -0.5000 
     74 N          -0.6284  -24.6256  -45.2842 N.am      13 UNK        -0.5000 
     75 CA          0.6046  -25.4008  -45.4639 C.3       13 UNK         0.1400 
     76 CB          1.5140  -25.2212  -44.2394 C.3       13 UNK        -0.1800 
     77 C           1.3686  -25.0547  -46.7545 C.2       13 UNK         0.5000 
     78 O           1.8846  -25.9560  -47.4162 O.2       13 UNK        -0.5000 
     79 N           1.3991  -23.7629  -47.1050 N.am      14 UNK        -0.5000 
     80 CA          1.9755  -23.2523  -48.3498 C.3       14 UNK         0.1400 
     81 CB          2.2518  -21.7554  -48.1758 C.3       14 UNK        -0.1800 
     82 C           1.0776  -23.4827  -49.5813 C.2       14 UNK         0.5000 
     83 O           1.5397  -23.2794  -50.7033 O.2       14 UNK        -0.5000 
     84 N          -0.1832  -23.8778  -49.3502 N.am      15 UNK        -0.5000 
     85 CA         -1.2528  -24.0987  -50.3266 C.3       15 UNK         0.1400 
     86 CB         -0.8686  -25.1827  -51.3555 C.3       15 UNK        -0.1800 
     87 C          -1.7702  -22.8054  -50.9880 C.2       15 UNK         0.5000 
     88 O          -2.4716  -22.8847  -51.9956 O.2       15 UNK        -0.5000 
     89 N          -1.4844  -21.6408  -50.3881 N.am      16 UNK        -0.5000 
     90 CA         -2.0086  -20.3384  -50.8051 C.3       16 UNK         0.1400 
     91 CB         -1.2979  -19.2200  -50.0286 C.3       16 UNK        -0.1800 
     92 C          -3.5312  -20.2487  -50.6143 C.2       16 UNK         0.5000 
     93 O          -4.2277  -19.7408  -51.4939 O.2       16 UNK        -0.5000 
     94 N          -4.0214  -20.7978  -49.4941 N.am      17 UNK        -0.5000 
     95 CA         -5.4473  -20.9106  -49.1890 C.3       17 UNK         0.1400 
     96 CB         -5.6267  -21.3097  -47.7167 C.3       17 UNK        -0.1800 
     97 C          -6.1658  -21.9127  -50.1112 C.2       17 UNK         0.5000 
     98 O          -7.3013  -21.6607  -50.5128 O.2       17 UNK        -0.5000 
     99 N          -5.4820  -23.0163  -50.4472 N.am      18 UNK        -0.5000 
    100 CA        -5.9817  -24.0722  -51.3307 C.3       18 UNK         0.1400 
    101 CB        -5.0944  -25.3183  -51.1911 C.3       18 UNK        -0.1800 
    102 C         -6.0662  -23.6181  -52.7992 C.2       18 UNK         0.5000 
    103 O         -7.0498  -23.9210  -53.4752 O.2       18 UNK        -0.5000 
    104 N         -5.0510  -22.8704  -53.2533 N.am      19 UNK        -0.5000 
    105 CA        -4.9950  -22.2436  -54.5758 C.3       19 UNK         0.1400 
    106 CB        -3.5430  -21.8270  -54.8613 C.3       19 UNK        -0.1800 
    107 C         -5.9292  -21.0248  -54.7150 C.2       19 UNK         0.5000 
    108 O         -6.1756  -20.5853  -55.8388 O.2       19 UNK        -0.5000 
    109 N         -6.4046  -20.4936  -53.5781 N.am      20 UNK        -0.5000 
    110 CA        -7.1955  -19.2702  -53.4219 C.3       20 UNK         0.1400 
    111 CB        -8.5792  -19.4074  -54.0898 C.3       20 UNK        -0.1800 
    112 C         -6.4185  -18.0165  -53.8739 C.2       20 UNK         0.5000 
    113 O         -6.9973  -17.0957  -54.4543 O.2       20 UNK        -0.5000 
    114 N         -5.1121  -17.9937  -53.5712 N.am      21 UNK        -0.5000 
    115 CA        -4.1720  -16.9224  -53.9152 C.3       21 UNK         0.1400 
    116 CB        -2.7465  -17.3956  -53.5951 C.3       21 UNK        -0.1800 
    117 C         -4.4826  -15.5861  -53.2102 C.2       21 UNK         0.5000 
    118 O         -4.0901  -14.5281  -53.7029 O.2       21 UNK        -0.5000 
    119 N         -5.2185  -15.6654  -52.0953 N.am      22 UNK        -0.5000 
    120 CA        -5.8250  -14.5350  -51.3819 C.3       22 UNK         0.1400 
    121 C         -6.9989  -13.8473  -52.1480 C.2       22 UNK         0.5000 
    122 N         -7.5696  -14.4476  -53.1878 N.am      22 UNK        -0.7600 
    123 O         -7.3896  -12.7342  -51.8087 O.2       22 UNK        -0.5000 
    124 C124       -6.2420  -14.9863  -49.9564 C.3       23 UNK        -0.0398 
    125 S125       -6.4473  -13.6587  -48.7172 S.3       23 UNK        -0.2404 
    126 C126       -4.8220  -12.8262  -48.6984 C.3       23 UNK        -0.0205 
    127 H127        0.9812  -20.8495  -51.8399 H         1 UNK         0.0600 
    128 H128        2.5047  -20.9782  -52.7211 H         1 UNK         0.0600 
    129 H129        1.1823  -20.0072  -53.3785 H         1 UNK         0.0600 
    130 H130        1.3163  -17.8119  -52.9738 H         1 UNK         0.3000 
    131 H131        1.8995  -16.6845  -50.4791 H         1 UNK         0.0600 
    132 H132        1.9028  -14.4607  -51.8550 H         1 UNK         0.0800 
    133 H133        1.5877  -15.4539  -53.2496 H         1 UNK         0.0800 
    134 H134        0.6505  -14.4410  -49.7402 H         1 UNK         0.0800 
    135 H135       -0.2304  -13.2823  -50.7042 H         1 UNK         0.0800 
    136 H136       -2.5957  -12.8897  -50.2660 H         1 UNK         0.1150 
    137 H137       -4.3894  -14.8495  -46.8957 H         1 UNK         0.1150 
    138 H138       -0.5693  -16.1367  -48.3463 H         1 UNK         0.1150 
    139 H139       -1.3702  -16.8868  -46.1902 H         1 UNK         0.0800 
    140 H140       -2.8564  -16.2771  -45.5022 H         1 UNK         0.0800 
    141 H141       -3.7557  -19.7713  -45.1431 H         1 UNK         0.0800 
    142 H142       -2.6526  -18.5491  -44.6137 H         1 UNK         0.0800 
    143 H143       -0.9798  -19.7200  -46.3990 H         1 UNK         0.0600 
    144 H144       -1.2221  -19.8815  -43.6162 H         1 UNK         0.3000 
    145 H145        1.5394  -22.0282  -42.9284 H         1 UNK         0.0600 
    146 H146        2.0832  -20.0340  -41.5325 H         1 UNK         0.0600 
    147 H147        2.4768  -19.7560  -43.2214 H         1 UNK         0.0600 
    148 H148        1.0309  -19.0317  -42.5307 H         1 UNK         0.0600 
    149 H149       -0.4634  -20.6619  -41.3503 H         1 UNK         0.3000 
    150 H150       -2.7053  -23.4428  -41.1231 H         1 UNK         0.0600 
    151 H151       -0.8270  -22.1472  -39.0723 H         1 UNK         0.0600 
    152 H152       -0.9101  -23.8672  -39.4340 H         1 UNK         0.0600 
    153 H153       -2.2920  -23.0604  -38.7105 H         1 UNK         0.0600 
    154 H154       -2.7532  -20.8457  -39.9458 H         1 UNK         0.3000 
    155 H155       -4.3535  -19.1071  -42.5912 H         1 UNK         0.0600 
    156 H156       -5.4872  -20.0862  -39.9164 H         1 UNK         0.0600 
    157 H157       -6.2194  -20.3597  -41.4929 H         1 UNK         0.0600 
    158 H158       -6.0850  -18.7250  -40.8661 H         1 UNK         0.0600 
    159 H159       -3.7869  -18.2313  -39.9921 H         1 UNK         0.3000 
    160 H160       -2.1785  -16.7557  -39.5929 H         1 UNK         0.0600 
    161 H161        0.3945  -18.3756  -40.0328 H         1 UNK         0.0600 
    162 H162       -0.8310  -18.7229  -38.8187 H         1 UNK         0.0600 
    163 H163        0.1005  -17.2375  -38.7190 H         1 UNK         0.0600 
    164 H164        0.2040  -16.1955  -41.1268 H         1 UNK         0.3000 
    165 H165       -1.1496  -14.0822  -43.5156 H         1 UNK         0.0600 
    166 H166        0.0478  -12.1544  -42.5204 H         1 UNK         0.0600 
    167 H167       -1.4366  -12.4590  -41.6344 H         1 UNK         0.0600 
    168 H168        0.1052  -12.9623  -40.9526 H         1 UNK         0.0600 
    169 H169        1.5130  -14.1805  -42.5992 H         1 UNK         0.3000 
    170 H170        2.8858  -15.1991  -44.4686 H         1 UNK         0.0600 
    171 H171        2.7849  -17.3169  -42.2321 H         1 UNK         0.0600 
    172 H172        4.2656  -16.7739  -43.0162 H         1 UNK         0.0600 
    173 H173        3.3118  -15.6485  -42.0665 H         1 UNK         0.0600 
    174 H174        1.7170  -17.8516  -44.8528 H         1 UNK         0.3000 
    175 H175        2.7215  -19.3278  -46.4191 H         1 UNK         0.0600 
    176 H176        1.5885  -17.1887  -48.2969 H         1 UNK         0.0600 
    177 H177        1.2847  -18.9152  -48.4698 H         1 UNK         0.0600 
    178 H178        0.7062  -18.0581  -47.0526 H         1 UNK         0.0600 
    179 H179        3.6083  -18.6428  -48.9971 H         1 UNK         0.3000 
    180 H180        7.0625  -19.2796  -48.6054 H         1 UNK         0.0600 
    181 H181        4.9906  -21.2451  -49.7123 H         1 UNK         0.0600 
    182 H182        6.1695  -21.6129  -48.4577 H         1 UNK         0.0600 
    183 H183        6.7122  -21.2238  -50.0827 H         1 UNK         0.0600 
    184 H184        4.8216  -18.8730  -50.5572 H         1 UNK         0.3000 
    185 H185        6.3952  -16.0418  -51.9459 H         1 UNK         0.0600 
    186 H186        7.7585  -17.7546  -53.1412 H         1 UNK         0.0600 
    187 H187        6.3501  -18.7989  -53.2880 H         1 UNK         0.0600 
    188 H188        6.3933  -17.2440  -54.1208 H         1 UNK         0.0600 
    189 H189        4.1953  -17.7711  -52.7342 H         1 UNK         0.3000 
    190 H190       -2.6521  -22.1789  -44.4180 H         1 UNK         0.3000 
    191 H191       -3.5676  -23.7888  -46.6039 H         1 UNK         0.0600 
    192 H192       -4.6063  -23.8828  -44.3653 H         1 UNK         0.0600 
    193 H193       -3.9899  -25.4687  -44.8056 H         1 UNK         0.0600 
    194 H194       -3.1073  -24.4728  -43.6536 H         1 UNK         0.0600 
    195 H195       -0.6882  -24.0713  -44.4340 H         1 UNK         0.3000 
    196 H196        0.3235  -26.4542  -45.5232 H         1 UNK         0.0600 
    197 H197        2.4355  -25.7945  -44.3476 H         1 UNK         0.0600 
    198 H198        1.0231  -25.5665  -43.3296 H         1 UNK         0.0600 
    199 H199        1.7912  -24.1765  -44.0965 H         1 UNK         0.0600 
    200 H200        1.0044  -23.0702  -46.4729 H         1 UNK         0.3000 
    201 H201        2.9257  -23.7575  -48.5347 H         1 UNK         0.0600 
    202 H202        2.6825  -21.3270  -49.0799 H         1 UNK         0.0600 
    203 H203        2.9557  -21.5793  -47.3628 H         1 UNK         0.0600 
    204 H204        1.3357  -21.2069  -47.9562 H         1 UNK         0.0600 
    205 H205       -0.4514  -24.0401  -48.3875 H         1 UNK         0.3000 
    206 H206       -2.0944  -24.4866  -49.7516 H         1 UNK         0.0600 
    207 H207       -0.5098  -26.0853  -50.8610 H         1 UNK         0.0600 
    208 H208       -1.7256  -25.4683  -51.9656 H         1 UNK         0.0600 
    209 H209       -0.0906  -24.8400  -52.0378 H         1 UNK         0.0600 
    210 H210       -0.9920  -21.6724  -49.5057 H         1 UNK         0.3000 
    211 H211       -1.7973  -20.2071  -51.8685 H         1 UNK         0.0600 
    212 H212       -1.3902  -19.3545  -48.9512 H         1 UNK         0.0600 
    213 H213       -1.7118  -18.2407  -50.2736 H         1 UNK         0.0600 
    214 H214       -0.2379  -19.1898  -50.2680 H         1 UNK         0.0600 
    215 H215       -3.3669  -21.1763  -48.8161 H         1 UNK         0.3000 
    216 H216       -5.9057  -19.9302  -49.3357 H         1 UNK         0.0600 
    217 H217       -6.6837  -21.3863  -47.4590 H         1 UNK         0.0600 
    218 H218       -5.1854  -20.5698  -47.0504 H         1 UNK         0.0600 
    219 H219       -5.1658  -22.2733  -47.5008 H         1 UNK         0.0600 
    220 H220       -4.5452  -23.1245  -50.0918 H         1 UNK         0.3000 
    221 H221       -6.9900  -24.3374  -51.0053 H         1 UNK         0.0600 
    222 H222       -4.0715  -25.1231  -51.5109 H         1 UNK         0.0600 
    223 H223       -5.0637  -25.6694  -50.1595 H         1 UNK         0.0600 
    224 H224       -5.4763  -26.1374  -51.8019 H         1 UNK         0.0600 
    225 H225       -4.2363  -22.7325  -52.6604 H         1 UNK         0.3000 
    226 H226       -5.2965  -22.9801  -55.3233 H         1 UNK         0.0600 
    227 H227       -3.4482  -21.3833  -55.8531 H         1 UNK         0.0600 
    228 H228       -3.1876  -21.0926  -54.1369 H         1 UNK         0.0600 
    229 H229       -2.8718  -22.6853  -54.8241 H         1 UNK         0.0600 
    230 H230       -6.1106  -20.9278  -52.7141 H         1 UNK         0.3000 
    231 H231       -7.3598  -19.1539  -52.3497 H         1 UNK         0.0600 
    232 H232       -8.5049  -19.4558  -55.1764 H         1 UNK         0.0600 
    233 H233       -9.2156  -18.5563  -53.8451 H         1 UNK         0.0600 
    234 H234       -9.0934  -20.3055  -53.7475 H         1 UNK         0.0600 
    235 H235       -4.7383  -18.7582  -53.0133 H         1 UNK         0.3000 
    236 H236       -4.2436  -16.7507  -54.9911 H         1 UNK         0.0600 
    237 H237       -2.5159  -18.3335  -54.1007 H         1 UNK         0.0600 
    238 H238       -2.0115  -16.6602  -53.9237 H         1 UNK         0.0600 
    239 H239       -2.6058  -17.5472  -52.5245 H         1 UNK         0.0600 
    240 H240       -5.4791  -16.5865  -51.7774 H         1 UNK         0.3000 
    241 H241       -5.0421  -13.7822  -51.2924 H         1 UNK         0.0600 
    242 H242       -7.2588  -15.3537  -53.5216 H         1 UNK         0.3800 
    243 H243       -8.3187  -13.9776  -53.6709 H         1 UNK         0.3800 
    244 H244       -5.4986  -15.6759  -49.5534 H         1 UNK         0.0800 
    245 H245       -7.1693  -15.5602  -49.9976 H         1 UNK         0.0800 
    246 H246       -4.7910  -12.1477  -47.8451 H         1 UNK         0.0800 
    247 H247       -4.7437  -12.1956  -49.5851 H         1 UNK         0.0800 
@<TRIPOS>BOND
     1    1    2 1    
     2    1  127 1    
     3    1  128 1    
     4    1  129 1    
     5    2    3 2    
     6    2    4 am   BACKBONE|DICT|INTERRES
     7    4    5 1    
     8    4  130 1    
     9    5    6 1    
    10    5   65 1    
    11    5  131 1    
    12    6    7 1    
    13    6  132 1    
    14    6  133 1    
    15    7    8 1    
    16    8    9 1    
    17    8  134 1    
    18    8  135 1    
    19    9   10 ar   
    20    9   14 ar   
    21   10   11 ar   
    22   10  136 1    
    23   11   12 ar   
    24   11  126 1    
    25   12   13 ar   
    26   12  137 1    
    27   13   14 ar   
    28   13   15 1    
    29   14  138 1    
    30   15   16 1    
    31   15  139 1    
    32   15  140 1    
    33   16   17 1    
    34   17   18 1    
    35   17  141 1    
    36   17  142 1    
    37   18   19 1    
    38   18   67 1    
    39   18  143 1    
    40   19   20 am   BACKBONE|DICT|INTERRES
    41   19  144 1    
    42   20   21 2    
    43   20   22 1    
    44   22   23 1    
    45   22   24 1    
    46   22  145 1    
    47   23  146 1    
    48   23  147 1    
    49   23  148 1    
    50   24   25 am   BACKBONE|DICT|INTERRES
    51   24  149 1    
    52   25   26 2    
    53   25   27 1    
    54   27   28 1    
    55   27   29 1    
    56   27  150 1    
    57   28  151 1    
    58   28  152 1    
    59   28  153 1    
    60   29   30 am   BACKBONE|DICT|INTERRES
    61   29  154 1    
    62   30   31 2    
    63   30   32 1    
    64   32   33 1    
    65   32   34 1    
    66   32  155 1    
    67   33  156 1    
    68   33  157 1    
    69   33  158 1    
    70   34   35 am   BACKBONE|DICT|INTERRES
    71   34  159 1    
    72   35   36 2    
    73   35   37 1    
    74   37   38 1    
    75   37   39 1    
    76   37  160 1    
    77   38  161 1    
    78   38  162 1    
    79   38  163 1    
    80   39   40 am   BACKBONE|DICT|INTERRES
    81   39  164 1    
    82   40   41 2    
    83   40   42 1    
    84   42   43 1    
    85   42   44 1    
    86   42  165 1    
    87   43  166 1    
    88   43  167 1    
    89   43  168 1    
    90   44   45 am   BACKBONE|DICT|INTERRES
    91   44  169 1    
    92   45   46 2    
    93   45   47 1    
    94   47   48 1    
    95   47   49 1    
    96   47  170 1    
    97   48  171 1    
    98   48  172 1    
    99   48  173 1    
   100   49   50 am   BACKBONE|DICT|INTERRES
   101   49  174 1    
   102   50   51 2    
   103   50   52 1    
   104   52   53 1    
   105   52   54 1    
   106   52  175 1    
   107   53  176 1    
   108   53  177 1    
   109   53  178 1    
   110   54   55 am   BACKBONE|DICT|INTERRES
   111   54  179 1    
   112   55   56 2    
   113   55   57 1    
   114   57   58 1    
   115   57   59 1    
   116   57  180 1    
   117   58  181 1    
   118   58  182 1    
   119   58  183 1    
   120   59   60 am   BACKBONE|DICT|INTERRES
   121   59  184 1    
   122   60   61 2    
   123   60   62 1    
   124   62   63 1    
   125   62   64 1    
   126   62  185 1    
   127   63  186 1    
   128   63  187 1    
   129   63  188 1    
   130   64   65 am   BACKBONE|DICT|INTERRES
   131   64  189 1    
   132   65   66 2    
   133   67   68 2    
   134   67   69 am   BACKBONE|DICT|INTERRES
   135   69   70 1    
   136   69  190 1    
   137   70   71 1    
   138   70   72 1    
   139   70  191 1    
   140   71  192 1    
   141   71  193 1    
   142   71  194 1    
   143   72   73 2    
   144   72   74 am   BACKBONE|DICT|INTERRES
   145   74   75 1    
   146   74  195 1    
   147   75   76 1    
   148   75   77 1    
   149   75  196 1    
   150   76  197 1    
   151   76  198 1    
   152   76  199 1    
   153   77   78 2    
   154   77   79 am   BACKBONE|DICT|INTERRES
   155   79   80 1    
   156   79  200 1    
   157   80   81 1    
   158   80   82 1    
   159   80  201 1    
   160   81  202 1    
   161   81  203 1    
   162   81  204 1    
   163   82   83 2    
   164   82   84 am   BACKBONE|DICT|INTERRES
   165   84   85 1    
   166   84  205 1    
   167   85   86 1    
   168   85   87 1    
   169   85  206 1    
   170   86  207 1    
   171   86  208 1    
   172   86  209 1    
   173   87   88 2    
   174   87   89 am   BACKBONE|DICT|INTERRES
   175   89   90 1    
   176   89  210 1    
   177   90   91 1    
   178   90   92 1    
   179   90  211 1    
   180   91  212 1    
   181   91  213 1    
   182   91  214 1    
   183   92   93 2    
   184   92   94 am   BACKBONE|DICT|INTERRES
   185   94   95 1    
   186   94  215 1    
   187   95   96 1    
   188   95   97 1    
   189   95  216 1    
   190   96  217 1    
   191   96  218 1    
   192   96  219 1    
   193   97   98 2    
   194   97   99 am   BACKBONE|DICT|INTERRES
   195   99  100 1    
   196   99  220 1    
   197  100  101 1    
   198  100  102 1    
   199  100  221 1    
   200  101  222 1    
   201  101  223 1    
   202  101  224 1    
   203  102  103 2    
   204  102  104 am   BACKBONE|DICT|INTERRES
   205  104  105 1    
   206  104  225 1    
   207  105  106 1    
   208  105  107 1    
   209  105  226 1    
   210  106  227 1    
   211  106  228 1    
   212  106  229 1    
   213  107  108 2    
   214  107  109 am   BACKBONE|DICT|INTERRES
   215  109  110 1    
   216  109  230 1    
   217  110  111 1    
   218  110  112 1    
   219  110  231 1    
   220  111  232 1    
   221  111  233 1    
   222  111  234 1    
   223  112  113 2    
   224  112  114 am   BACKBONE|DICT|INTERRES
   225  114  115 1    
   226  114  235 1    
   227  115  116 1    
   228  115  117 1    
   229  115  236 1    
   230  116  237 1    
   231  116  238 1    
   232  116  239 1    
   233  117  118 2    
   234  117  119 am   BACKBONE|DICT|INTERRES
   235  119  120 1    
   236  119  240 1    
   237  120  121 1    
   238  120  124 1    
   239  120  241 1    
   240  121  122 am   BACKBONE|DICT|INTERRES
   241  121  123 2    
   242  122  242 1    
   243  122  243 1    
   244  124  125 1    
   245  124  244 1    
   246  124  245 1    
   247  125  126 1    
   248  126  246 1    
   249  126  247 1    
@<TRIPOS>SUBSTRUCTURE
     1 UNK         1 GROUP             0       ****    0 ROOT    
