@<TRIPOS>MOLECULE
3R540
247   249    1
SMALL
USER_CHARGES


@<TRIPOS>ATOM
      1 CA         -1.8284  -13.3870  -47.1737 C.3       0 UNK        -0.1800 
      2 C          -0.7087  -12.8174  -48.0298 C.2       0 UNK         0.5000 
      3 O          -0.9706  -12.0041  -48.9167 O.2       0 UNK        -0.5000 
      4 N           0.5396  -13.2196  -47.7615 N.am      1 UNK        -0.5000 
      5 CA          1.7405  -12.7226  -48.4409 C.3       1 UNK         0.1400 
      6 C6          2.8532  -13.7988  -48.5054 C.3       23 UNK        -0.0398 
      7 S7          2.4492  -15.1026  -49.7135 S.3       23 UNK        -0.2404 
      8 C8          1.8258  -16.4134  -48.6211 C.3       23 UNK        -0.0205 
      9 C9          1.0882  -17.4803  -49.4127 C.ar      23 UNK        -0.0193 
     10 C10        -0.1974  -17.2230  -49.9000 C.ar      23 UNK        -0.1150 
     11 C11        -0.8942  -18.2027  -50.6119 C.ar      23 UNK        -0.0193 
     12 C12        -0.2878  -19.4363  -50.8509 C.ar      23 UNK        -0.1150 
     13 C13         0.9905  -19.7125  -50.3622 C.ar      23 UNK        -0.0193 
     14 C14         1.6764  -18.7282  -49.6434 C.ar      23 UNK        -0.1150 
     15 C15         1.6144  -21.0838  -50.5932 C.3       23 UNK        -0.0205 
     16 S16         0.5752  -22.4409  -49.9535 S.3       23 UNK        -0.2404 
     17 C17         0.2846  -21.8678  -48.2473 C.3       23 UNK        -0.0398 
     18 CA         -0.1166  -22.9922  -47.2687 C.3       11 UNK         0.1400 
     19 N           0.0861  -22.5733  -45.8790 N.am      11 UNK        -0.5000 
     20 C          -0.0201  -23.3709  -44.8082 C.2       10 UNK         0.5000 
     21 O          -0.3000  -24.5666  -44.8731 O.2       10 UNK        -0.5000 
     22 CA          0.1665  -22.7123  -43.4310 C.3       10 UNK         0.1400 
     23 CB          1.6522  -22.4490  -43.1441 C.3       10 UNK        -0.1800 
     24 N          -0.5919  -21.4678  -43.3101 N.am      10 UNK        -0.5000 
     25 C          -1.9304  -21.3944  -43.3327 C.2       9 UNK         0.5000 
     26 O          -2.6668  -22.3803  -43.3828 O.2       9 UNK        -0.5000 
     27 CA         -2.5496  -19.9834  -43.3453 C.3       9 UNK         0.1400 
     28 CB         -2.6131  -19.4005  -41.9261 C.3       9 UNK        -0.1800 
     29 N          -1.8392  -19.0541  -44.2269 N.am      9 UNK        -0.5000 
     30 C          -1.7170  -19.2085  -45.5534 C.2       8 UNK         0.5000 
     31 O          -2.2093  -20.1432  -46.1810 O.2       8 UNK        -0.5000 
     32 CA         -0.8549  -18.1776  -46.2988 C.3       8 UNK         0.1400 
     33 CB         -1.6400  -16.8827  -46.5447 C.3       8 UNK        -0.1800 
     34 N           0.3910  -17.8823  -45.5910 N.am      8 UNK        -0.5000 
     35 C           1.3668  -18.7789  -45.3858 C.2       7 UNK         0.5000 
     36 O           1.3427  -19.9308  -45.8170 O.2       7 UNK        -0.5000 
     37 CA          2.5374  -18.3311  -44.4957 C.3       7 UNK         0.1400 
     38 CB          3.5467  -17.4935  -45.2942 C.3       7 UNK        -0.1800 
     39 N           2.0790  -17.5763  -43.3293 N.am      7 UNK        -0.5000 
     40 C           1.3601  -18.1026  -42.3265 C.2       6 UNK         0.5000 
     41 O           1.0466  -19.2904  -42.2607 O.2       6 UNK        -0.5000 
     42 CA          0.8724  -17.1308  -41.2366 C.3       6 UNK         0.1400 
     43 CB          1.9321  -16.9802  -40.1355 C.3       6 UNK        -0.1800 
     44 N           0.5315  -15.8086  -41.7638 N.am      6 UNK        -0.5000 
     45 C          -0.4581  -15.5615  -42.6351 C.2       5 UNK         0.5000 
     46 O          -1.2146  -16.4290  -43.0704 O.2       5 UNK        -0.5000 
     47 CA         -0.5878  -14.1116  -43.1384 C.3       5 UNK         0.1400 
     48 CB         -1.5418  -13.3077  -42.2442 C.3       5 UNK        -0.1800 
     49 N           0.7077  -13.4327  -43.1988 N.am      5 UNK        -0.5000 
     50 C           1.6785  -13.7153  -44.0756 C.2       4 UNK         0.5000 
     51 O           1.5326  -14.4802  -45.0333 O.2       4 UNK        -0.5000 
     52 CA          3.0304  -13.0285  -43.8050 C.3       4 UNK         0.1400 
     53 CB          4.1900  -13.6175  -44.6246 C.3       4 UNK        -0.1800 
     54 N           2.9464  -11.5873  -44.0341 N.am      4 UNK        -0.5000 
     55 C           2.4888  -10.6994  -43.1386 C.2       3 UNK         0.5000 
     56 O           2.0752  -11.0211  -42.0231 O.2       3 UNK        -0.5000 
     57 CA          2.4834   -9.2109  -43.5413 C.3       3 UNK         0.1400 
     58 CB          3.7299   -8.5027  -42.9892 C.3       3 UNK        -0.1800 
     59 N           2.4209   -9.0014  -44.9876 N.am      3 UNK        -0.5000 
     60 C           1.3378   -9.2267  -45.7414 C.2       2 UNK         0.5000 
     61 O           0.2515   -9.5863  -45.2846 O.2       2 UNK        -0.5000 
     62 CA          1.4888   -9.0593  -47.2667 C.3       2 UNK         0.1400 
     63 CB          2.7622   -8.3011  -47.7069 C.3       2 UNK        -0.1800 
     64 N           1.3968  -10.3608  -47.9313 N.am      2 UNK        -0.5000 
     65 C           2.1909  -11.4249  -47.7430 C.2       1 UNK         0.5000 
     66 O           3.1894  -11.4175  -47.0207 O.2       1 UNK        -0.5000 
     67 C          -1.5535  -23.4950  -47.5286 C.2       11 UNK         0.5000 
     68 O          -1.7290  -24.4948  -48.2267 O.2       11 UNK        -0.5000 
     69 N          -2.5548  -22.8299  -46.9351 N.am      12 UNK        -0.5000 
     70 CA         -3.9664  -23.2176  -46.9765 C.3       12 UNK         0.1400 
     71 CB         -4.8226  -22.1440  -46.2900 C.3       12 UNK        -0.1800 
     72 C          -4.2357  -24.6064  -46.3702 C.2       12 UNK         0.5000 
     73 O          -5.0902  -25.3306  -46.8801 O.2       12 UNK        -0.5000 
     74 N          -3.4892  -24.9621  -45.3179 N.am      13 UNK        -0.5000 
     75 CA         -3.5467  -26.2744  -44.6823 C.3       13 UNK         0.1400 
     76 CB         -3.0757  -26.1521  -43.2241 C.3       13 UNK        -0.1800 
     77 C          -2.7142  -27.3214  -45.4442 C.2       13 UNK         0.5000 
     78 O          -3.2132  -28.4140  -45.7158 O.2       13 UNK        -0.5000 
     79 N          -1.4543  -26.9835  -45.7476 N.am      14 UNK        -0.5000 
     80 CA         -0.4504  -27.9208  -46.2512 C.3       14 UNK         0.1400 
     81 CB          0.9493  -27.3676  -45.9402 C.3       14 UNK        -0.1800 
     82 C          -0.5669  -28.2348  -47.7518 C.2       14 UNK         0.5000 
     83 O          -0.2823  -29.3667  -48.1465 O.2       14 UNK        -0.5000 
     84 N          -0.9381  -27.2366  -48.5621 N.am      15 UNK        -0.5000 
     85 CA         -0.8850  -27.2963  -50.0258 C.3       15 UNK         0.1400 
     86 CB          0.3154  -26.4591  -50.5040 C.3       15 UNK        -0.1800 
     87 C          -2.1926  -26.8248  -50.6838 C.2       15 UNK         0.5000 
     88 O          -2.2013  -26.5742  -51.8901 O.2       15 UNK        -0.5000 
     89 N          -3.2659  -26.6757  -49.8916 N.am      16 UNK        -0.5000 
     90 CA         -4.5898  -26.1794  -50.2934 C.3       16 UNK         0.1400 
     91 CB         -5.3013  -27.2103  -51.1946 C.3       16 UNK        -0.1800 
     92 C          -4.5438  -24.7658  -50.9191 C.2       16 UNK         0.5000 
     93 O          -5.3259  -24.4654  -51.8213 O.2       16 UNK        -0.5000 
     94 N          -3.5985  -23.9428  -50.4390 N.am      17 UNK        -0.5000 
     95 CA         -3.2617  -22.5858  -50.8863 C.3       17 UNK         0.1400 
     96 CB         -4.4700  -21.6325  -50.7786 C.3       17 UNK        -0.1800 
     97 C          -2.5883  -22.5317  -52.2736 C.2       17 UNK         0.5000 
     98 O          -2.4458  -21.4416  -52.8268 O.2       17 UNK        -0.5000 
     99 N          -2.1680  -23.6901  -52.8072 N.am      18 UNK        -0.5000 
    100 CA        -1.4337  -23.9304  -54.0582 C.3       18 UNK         0.1400 
    101 CB        -0.0534  -23.2466  -54.0193 C.3       18 UNK        -0.1800 
    102 C         -2.1870  -23.5860  -55.3628 C.2       18 UNK         0.5000 
    103 O         -1.9909  -24.2724  -56.3668 O.2       18 UNK        -0.5000 
    104 N         -3.0297  -22.5523  -55.3382 N.am      19 UNK        -0.5000 
    105 CA        -3.8415  -22.0450  -56.4366 C.3       19 UNK         0.1400 
    106 CB        -2.9767  -21.1368  -57.3338 C.3       19 UNK        -0.1800 
    107 C         -5.0515  -21.2934  -55.8537 C.2       19 UNK         0.5000 
    108 O         -5.2236  -21.2454  -54.6325 O.2       19 UNK        -0.5000 
    109 N         -5.8714  -20.7049  -56.7332 N.am      20 UNK        -0.5000 
    110 CA        -7.0131  -19.8564  -56.3852 C.3       20 UNK         0.1400 
    111 CB        -7.9720  -19.8017  -57.5884 C.3       20 UNK        -0.1800 
    112 C         -6.5481  -18.4552  -55.9319 C.2       20 UNK         0.5000 
    113 O         -6.7149  -17.4757  -56.6616 O.2       20 UNK        -0.5000 
    114 N         -5.9405  -18.3968  -54.7446 N.am      21 UNK        -0.5000 
    115 CA        -5.4046  -17.2016  -54.1037 C.3       21 UNK         0.1400 
    116 CB        -3.9227  -17.0475  -54.4899 C.3       21 UNK        -0.1800 
    117 C         -5.5718  -17.3248  -52.5811 C.2       21 UNK         0.5000 
    118 O         -5.8376  -18.4229  -52.0873 O.2       21 UNK        -0.5000 
    119 N         -5.4166  -16.1901  -51.8843 N.am      22 UNK        -0.5000 
    120 CA        -5.4344  -15.9522  -50.4213 C.3       22 UNK         0.1400 
    121 C         -6.6310  -16.4932  -49.5752 C.2       22 UNK         0.5000 
    122 N         -7.4525  -17.4059  -50.0690 N.am      22 UNK        -0.7600 
    123 O         -6.8413  -16.0354  -48.4550 O.2       22 UNK        -0.5000 
    124 C124       -4.0605  -16.2069  -49.7366 C.3       23 UNK        -0.0398 
    125 S125       -3.5033  -17.9467  -49.7456 S.3       23 UNK        -0.2404 
    126 C126       -2.3033  -17.9422  -51.1156 C.3       23 UNK        -0.0205 
    127 H127       -1.4365  -13.9892  -46.3571 H         1 UNK         0.0600 
    128 H128       -2.4850  -14.0118  -47.7788 H         1 UNK         0.0600 
    129 H129       -2.4214  -12.5799  -46.7434 H         1 UNK         0.0600 
    130 H130        0.7127  -13.8306  -46.9718 H         1 UNK         0.3000 
    131 H131        1.4932  -12.4510  -49.4699 H         1 UNK         0.0600 
    132 H132        3.8009  -13.3561  -48.8173 H         1 UNK         0.0800 
    133 H133        3.0291  -14.2449  -47.5267 H         1 UNK         0.0800 
    134 H134        2.6625  -16.8491  -48.0749 H         1 UNK         0.0800 
    135 H135        1.1561  -15.9887  -47.8738 H         1 UNK         0.0800 
    136 H136       -0.6596  -16.2635  -49.7156 H         1 UNK         0.1150 
    137 H137       -0.8187  -20.1981  -51.3997 H         1 UNK         0.1150 
    138 H138        2.6649  -18.9344  -49.2577 H         1 UNK         0.1150 
    139 H139        1.7680  -21.2300  -51.6631 H         1 UNK         0.0800 
    140 H140        2.5989  -21.1448  -50.1268 H         1 UNK         0.0800 
    141 H141       -0.4564  -21.0661  -48.2518 H         1 UNK         0.0800 
    142 H142        1.2171  -21.4147  -47.9100 H         1 UNK         0.0800 
    143 H143        0.5534  -23.8385  -47.4355 H         1 UNK         0.0600 
    144 H144        0.3468  -21.6010  -45.7386 H         1 UNK         0.3000 
    145 H145       -0.2059  -23.4083  -42.6764 H         1 UNK         0.0600 
    146 H146        1.7943  -22.0604  -42.1356 H         1 UNK         0.0600 
    147 H147        2.2344  -23.3678  -43.2242 H         1 UNK         0.0600 
    148 H148        2.0778  -21.7273  -43.8417 H         1 UNK         0.0600 
    149 H149       -0.0533  -20.6135  -43.2024 H         1 UNK         0.3000 
    150 H150       -3.5711  -20.0746  -43.7200 H         1 UNK         0.0600 
    151 H151       -3.1882  -20.0491  -41.2642 H         1 UNK         0.0600 
    152 H152       -3.0932  -18.4217  -41.9221 H         1 UNK         0.0600 
    153 H153       -1.6197  -19.2878  -41.4924 H         1 UNK         0.0600 
    154 H154       -1.4418  -18.2254  -43.7942 H         1 UNK         0.3000 
    155 H155       -0.5997  -18.6075  -47.2696 H         1 UNK         0.0600 
    156 H156       -1.8488  -16.3483  -45.6189 H         1 UNK         0.0600 
    157 H157       -1.0929  -16.2147  -47.2070 H         1 UNK         0.0600 
    158 H158       -2.5982  -17.0935  -47.0192 H         1 UNK         0.0600 
    159 H159        0.4776  -16.9659  -45.1756 H         1 UNK         0.3000 
    160 H160        3.0478  -19.2289  -44.1402 H         1 UNK         0.0600 
    161 H161        3.1048  -16.5672  -45.6611 H         1 UNK         0.0600 
    162 H162        3.9138  -18.0477  -46.1590 H         1 UNK         0.0600 
    163 H163        4.4126  -17.2349  -44.6848 H         1 UNK         0.0600 
    164 H164        2.2733  -16.5869  -43.3200 H         1 UNK         0.3000 
    165 H165       -0.0279  -17.5564  -40.7891 H         1 UNK         0.0600 
    166 H166        1.5673  -16.3560  -39.3196 H         1 UNK         0.0600 
    167 H167        2.1919  -17.9502  -39.7093 H         1 UNK         0.0600 
    168 H168        2.8507  -16.5325  -40.5170 H         1 UNK         0.0600 
    169 H169        1.0978  -15.0350  -41.4495 H         1 UNK         0.3000 
    170 H170       -1.0098  -14.1466  -44.1426 H         1 UNK         0.0600 
    171 H171       -2.5233  -13.7814  -42.1959 H         1 UNK         0.0600 
    172 H172       -1.1656  -13.2246  -41.2238 H         1 UNK         0.0600 
    173 H173       -1.6869  -12.2990  -42.6317 H         1 UNK         0.0600 
    174 H174        0.9008  -12.7391  -42.4848 H         1 UNK         0.3000 
    175 H175        3.2725  -13.2073  -42.7551 H         1 UNK         0.0600 
    176 H176        5.1390  -13.1628  -44.3405 H         1 UNK         0.0600 
    177 H177        4.0584  -13.4626  -45.6924 H         1 UNK         0.0600 
    178 H178        4.2834  -14.6900  -44.4552 H         1 UNK         0.0600 
    179 H179        3.1980  -11.2688  -44.9642 H         1 UNK         0.3000 
    180 H180        1.6023   -8.7513  -43.0884 H         1 UNK         0.0600 
    181 H181        4.6470   -8.9103  -43.4164 H         1 UNK         0.0600 
    182 H182        3.7948   -8.6137  -41.9059 H         1 UNK         0.0600 
    183 H183        3.7045   -7.4341  -43.2038 H         1 UNK         0.0600 
    184 H184        3.2797   -8.7336  -45.4463 H         1 UNK         0.3000 
    185 H185        0.6278   -8.4771  -47.5983 H         1 UNK         0.0600 
    186 H186        2.8075   -7.3128  -47.2476 H         1 UNK         0.0600 
    187 H187        3.6788   -8.8310  -47.4467 H         1 UNK         0.0600 
    188 H188        2.7679   -8.1513  -48.7865 H         1 UNK         0.0600 
    189 H189        0.5574  -10.5102  -48.4800 H         1 UNK         0.3000 
    190 H190       -2.3425  -21.9651  -46.4416 H         1 UNK         0.3000 
    191 H191       -4.2734  -23.2553  -48.0194 H         1 UNK         0.0600 
    192 H192       -4.7121  -21.1783  -46.7836 H         1 UNK         0.0600 
    193 H193       -5.8807  -22.4063  -46.3252 H         1 UNK         0.0600 
    194 H194       -4.5503  -22.0186  -45.2425 H         1 UNK         0.0600 
    195 H195       -2.8099  -24.3048  -44.9569 H         1 UNK         0.3000 
    196 H196       -4.5836  -26.6171  -44.6667 H         1 UNK         0.0600 
    197 H197       -3.1200  -27.1168  -42.7172 H         1 UNK         0.0600 
    198 H198       -3.7068  -25.4609  -42.6651 H         1 UNK         0.0600 
    199 H199       -2.0488  -25.7918  -43.1560 H         1 UNK         0.0600 
    200 H200       -1.1119  -26.0639  -45.4737 H         1 UNK         0.3000 
    201 H201       -0.5612  -28.8629  -45.7099 H         1 UNK         0.0600 
    202 H202        1.0807  -27.2056  -44.8701 H         1 UNK         0.0600 
    203 H203        1.1273  -26.4177  -46.4462 H         1 UNK         0.0600 
    204 H204        1.7263  -28.0621  -46.2620 H         1 UNK         0.0600 
    205 H205       -1.1702  -26.3279  -48.1692 H         1 UNK         0.3000 
    206 H206       -0.7380  -28.3236  -50.3638 H         1 UNK         0.0600 
    207 H207        1.2457  -26.8141  -50.0607 H         1 UNK         0.0600 
    208 H208        0.4332  -26.5124  -51.5870 H         1 UNK         0.0600 
    209 H209        0.1974  -25.4088  -50.2373 H         1 UNK         0.0600 
    210 H210       -3.1550  -26.8907  -48.9107 H         1 UNK         0.3000 
    211 H211       -5.1772  -26.0871  -49.3804 H         1 UNK         0.0600 
    212 H212       -4.8080  -27.3127  -52.1616 H         1 UNK         0.0600 
    213 H213       -6.3345  -26.9175  -51.3843 H         1 UNK         0.0600 
    214 H214       -5.3259  -28.1935  -50.7247 H         1 UNK         0.0600 
    215 H215       -2.9861  -24.3120  -49.7163 H         1 UNK         0.3000 
    216 H216       -2.5097  -22.2237  -50.1847 H         1 UNK         0.0600 
    217 H217       -4.1692  -20.6017  -50.9653 H         1 UNK         0.0600 
    218 H218       -4.9159  -21.6611  -49.7850 H         1 UNK         0.0600 
    219 H219       -5.2453  -21.8701  -51.5070 H         1 UNK         0.0600 
    220 H220       -2.3697  -24.5374  -52.2876 H         1 UNK         0.3000 
    221 H221       -1.2603  -25.0073  -54.0838 H         1 UNK         0.0600 
    222 H222       -0.1374  -22.1596  -54.0004 H         1 UNK         0.0600 
    223 H223        0.5132  -23.5537  -53.1399 H         1 UNK         0.0600 
    224 H224        0.5374  -23.5120  -54.8967 H         1 UNK         0.0600 
    225 H225       -3.1380  -22.0447  -54.4618 H         1 UNK         0.3000 
    226 H226       -4.2212  -22.8856  -57.0206 H         1 UNK         0.0600 
    227 H227       -2.1037  -21.6686  -57.7123 H         1 UNK         0.0600 
    228 H228       -3.5334  -20.7834  -58.2020 H         1 UNK         0.0600 
    229 H229       -2.6222  -20.2605  -56.7892 H         1 UNK         0.0600 
    230 H230       -5.6550  -20.7706  -57.7171 H         1 UNK         0.3000 
    231 H231       -7.5538  -20.3110  -55.5521 H         1 UNK         0.0600 
    232 H232       -7.4892  -19.3846  -58.4731 H         1 UNK         0.0600 
    233 H233       -8.8424  -19.1831  -57.3657 H         1 UNK         0.0600 
    234 H234       -8.3389  -20.7957  -57.8446 H         1 UNK         0.0600 
    235 H235       -5.8366  -19.2508  -54.2035 H         1 UNK         0.3000 
    236 H236       -5.9633  -16.3234  -54.4342 H         1 UNK         0.0600 
    237 H237       -3.8069  -16.9342  -55.5679 H         1 UNK         0.0600 
    238 H238       -3.4793  -16.1676  -54.0227 H         1 UNK         0.0600 
    239 H239       -3.3378  -17.9154  -54.1820 H         1 UNK         0.0600 
    240 H240       -5.2435  -15.3536  -52.4227 H         1 UNK         0.3000 
    241 H241       -5.5803  -14.8725  -50.3660 H         1 UNK         0.0600 
    242 H242       -7.1806  -17.8779  -50.9266 H         1 UNK         0.3800 
    243 H243       -8.2290  -17.7412  -49.5221 H         1 UNK         0.3800 
    244 H244       -3.2988  -15.5774  -50.1971 H         1 UNK         0.0800 
    245 H245       -4.0966  -15.8798  -48.6963 H         1 UNK         0.0800 
    246 H246       -2.3285  -17.0012  -51.6653 H         1 UNK         0.0800 
    247 H247       -2.6007  -18.7122  -51.8295 H         1 UNK         0.0800 
@<TRIPOS>BOND
     1    1    2 1    
     2    1  127 1    
     3    1  128 1    
     4    1  129 1    
     5    2    3 2    
     6    2    4 am   BACKBONE|DICT|INTERRES
     7    4    5 1    
     8    4  130 1    
     9    5    6 1    
    10    5   65 1    
    11    5  131 1    
    12    6    7 1    
    13    6  132 1    
    14    6  133 1    
    15    7    8 1    
    16    8    9 1    
    17    8  134 1    
    18    8  135 1    
    19    9   10 ar   
    20    9   14 ar   
    21   10   11 ar   
    22   10  136 1    
    23   11   12 ar   
    24   11  126 1    
    25   12   13 ar   
    26   12  137 1    
    27   13   14 ar   
    28   13   15 1    
    29   14  138 1    
    30   15   16 1    
    31   15  139 1    
    32   15  140 1    
    33   16   17 1    
    34   17   18 1    
    35   17  141 1    
    36   17  142 1    
    37   18   19 1    
    38   18   67 1    
    39   18  143 1    
    40   19   20 am   BACKBONE|DICT|INTERRES
    41   19  144 1    
    42   20   21 2    
    43   20   22 1    
    44   22   23 1    
    45   22   24 1    
    46   22  145 1    
    47   23  146 1    
    48   23  147 1    
    49   23  148 1    
    50   24   25 am   BACKBONE|DICT|INTERRES
    51   24  149 1    
    52   25   26 2    
    53   25   27 1    
    54   27   28 1    
    55   27   29 1    
    56   27  150 1    
    57   28  151 1    
    58   28  152 1    
    59   28  153 1    
    60   29   30 am   BACKBONE|DICT|INTERRES
    61   29  154 1    
    62   30   31 2    
    63   30   32 1    
    64   32   33 1    
    65   32   34 1    
    66   32  155 1    
    67   33  156 1    
    68   33  157 1    
    69   33  158 1    
    70   34   35 am   BACKBONE|DICT|INTERRES
    71   34  159 1    
    72   35   36 2    
    73   35   37 1    
    74   37   38 1    
    75   37   39 1    
    76   37  160 1    
    77   38  161 1    
    78   38  162 1    
    79   38  163 1    
    80   39   40 am   BACKBONE|DICT|INTERRES
    81   39  164 1    
    82   40   41 2    
    83   40   42 1    
    84   42   43 1    
    85   42   44 1    
    86   42  165 1    
    87   43  166 1    
    88   43  167 1    
    89   43  168 1    
    90   44   45 am   BACKBONE|DICT|INTERRES
    91   44  169 1    
    92   45   46 2    
    93   45   47 1    
    94   47   48 1    
    95   47   49 1    
    96   47  170 1    
    97   48  171 1    
    98   48  172 1    
    99   48  173 1    
   100   49   50 am   BACKBONE|DICT|INTERRES
   101   49  174 1    
   102   50   51 2    
   103   50   52 1    
   104   52   53 1    
   105   52   54 1    
   106   52  175 1    
   107   53  176 1    
   108   53  177 1    
   109   53  178 1    
   110   54   55 am   BACKBONE|DICT|INTERRES
   111   54  179 1    
   112   55   56 2    
   113   55   57 1    
   114   57   58 1    
   115   57   59 1    
   116   57  180 1    
   117   58  181 1    
   118   58  182 1    
   119   58  183 1    
   120   59   60 am   BACKBONE|DICT|INTERRES
   121   59  184 1    
   122   60   61 2    
   123   60   62 1    
   124   62   63 1    
   125   62   64 1    
   126   62  185 1    
   127   63  186 1    
   128   63  187 1    
   129   63  188 1    
   130   64   65 am   BACKBONE|DICT|INTERRES
   131   64  189 1    
   132   65   66 2    
   133   67   68 2    
   134   67   69 am   BACKBONE|DICT|INTERRES
   135   69   70 1    
   136   69  190 1    
   137   70   71 1    
   138   70   72 1    
   139   70  191 1    
   140   71  192 1    
   141   71  193 1    
   142   71  194 1    
   143   72   73 2    
   144   72   74 am   BACKBONE|DICT|INTERRES
   145   74   75 1    
   146   74  195 1    
   147   75   76 1    
   148   75   77 1    
   149   75  196 1    
   150   76  197 1    
   151   76  198 1    
   152   76  199 1    
   153   77   78 2    
   154   77   79 am   BACKBONE|DICT|INTERRES
   155   79   80 1    
   156   79  200 1    
   157   80   81 1    
   158   80   82 1    
   159   80  201 1    
   160   81  202 1    
   161   81  203 1    
   162   81  204 1    
   163   82   83 2    
   164   82   84 am   BACKBONE|DICT|INTERRES
   165   84   85 1    
   166   84  205 1    
   167   85   86 1    
   168   85   87 1    
   169   85  206 1    
   170   86  207 1    
   171   86  208 1    
   172   86  209 1    
   173   87   88 2    
   174   87   89 am   BACKBONE|DICT|INTERRES
   175   89   90 1    
   176   89  210 1    
   177   90   91 1    
   178   90   92 1    
   179   90  211 1    
   180   91  212 1    
   181   91  213 1    
   182   91  214 1    
   183   92   93 2    
   184   92   94 am   BACKBONE|DICT|INTERRES
   185   94   95 1    
   186   94  215 1    
   187   95   96 1    
   188   95   97 1    
   189   95  216 1    
   190   96  217 1    
   191   96  218 1    
   192   96  219 1    
   193   97   98 2    
   194   97   99 am   BACKBONE|DICT|INTERRES
   195   99  100 1    
   196   99  220 1    
   197  100  101 1    
   198  100  102 1    
   199  100  221 1    
   200  101  222 1    
   201  101  223 1    
   202  101  224 1    
   203  102  103 2    
   204  102  104 am   BACKBONE|DICT|INTERRES
   205  104  105 1    
   206  104  225 1    
   207  105  106 1    
   208  105  107 1    
   209  105  226 1    
   210  106  227 1    
   211  106  228 1    
   212  106  229 1    
   213  107  108 2    
   214  107  109 am   BACKBONE|DICT|INTERRES
   215  109  110 1    
   216  109  230 1    
   217  110  111 1    
   218  110  112 1    
   219  110  231 1    
   220  111  232 1    
   221  111  233 1    
   222  111  234 1    
   223  112  113 2    
   224  112  114 am   BACKBONE|DICT|INTERRES
   225  114  115 1    
   226  114  235 1    
   227  115  116 1    
   228  115  117 1    
   229  115  236 1    
   230  116  237 1    
   231  116  238 1    
   232  116  239 1    
   233  117  118 2    
   234  117  119 am   BACKBONE|DICT|INTERRES
   235  119  120 1    
   236  119  240 1    
   237  120  121 1    
   238  120  124 1    
   239  120  241 1    
   240  121  122 am   BACKBONE|DICT|INTERRES
   241  121  123 2    
   242  122  242 1    
   243  122  243 1    
   244  124  125 1    
   245  124  244 1    
   246  124  245 1    
   247  125  126 1    
   248  126  246 1    
   249  126  247 1    
@<TRIPOS>SUBSTRUCTURE
     1 UNK         1 GROUP             0       ****    0 ROOT    
