@<TRIPOS>MOLECULE
3R540
247   249    1
SMALL
USER_CHARGES


@<TRIPOS>ATOM
      1 CA         -3.0339  -14.6776  -48.3782 C.3       0 UNK        -0.1800 
      2 C          -2.0733  -13.9533  -47.4477 C.2       0 UNK         0.5000 
      3 O          -2.5093  -13.2093  -46.5699 O.2       0 UNK        -0.5000 
      4 N          -0.7653  -14.1839  -47.6222 N.am      1 UNK        -0.5000 
      5 CA          0.3390  -13.5431  -46.8885 C.3       1 UNK         0.1400 
      6 C6          1.7295  -13.9394  -47.4426 C.3       23 UNK        -0.0398 
      7 S7          1.8718  -13.8228  -49.2595 S.3       23 UNK        -0.2404 
      8 C8          2.0969  -15.5733  -49.7159 C.3       23 UNK        -0.0205 
      9 C9          0.8016  -16.3665  -49.6160 C.ar      23 UNK        -0.0193 
     10 C10        -0.0602  -16.4364  -50.7127 C.ar      23 UNK        -0.1150 
     11 C11        -1.2351  -17.1910  -50.6483 C.ar      23 UNK        -0.0193 
     12 C12        -1.5593  -17.8564  -49.4619 C.ar      23 UNK        -0.1150 
     13 C13        -0.7172  -17.7811  -48.3480 C.ar      23 UNK        -0.0193 
     14 C14         0.4679  -17.0417  -48.4381 C.ar      23 UNK        -0.1150 
     15 C15        -1.1200  -18.4735  -47.0499 C.3       23 UNK        -0.0205 
     16 S16         0.2599  -19.3523  -46.2507 S.3       23 UNK        -0.2404 
     17 C17        -0.6131  -20.2686  -44.9370 C.3       23 UNK        -0.0398 
     18 CA         -1.1104  -21.6505  -45.4225 C.3       11 UNK         0.1400 
     19 N          -0.0485  -22.4687  -46.0221 N.am      11 UNK        -0.5000 
     20 C          -0.2538  -23.5026  -46.8524 C.2       10 UNK         0.5000 
     21 O          -1.3752  -23.9280  -47.1290 O.2       10 UNK        -0.5000 
     22 CA          0.9849  -24.1964  -47.4535 C.3       10 UNK         0.1400 
     23 CB          1.2243  -23.7017  -48.8881 C.3       10 UNK        -0.1800 
     24 N           2.2075  -23.9913  -46.6757 N.am      10 UNK        -0.5000 
     25 C           2.4383  -24.4858  -45.4512 C.2       9 UNK         0.5000 
     26 O           1.6541  -25.2238  -44.8540 O.2       9 UNK        -0.5000 
     27 CA          3.7457  -24.0379  -44.7628 C.3       9 UNK         0.1400 
     28 CB          4.8656  -25.0569  -45.0215 C.3       9 UNK        -0.1800 
     29 N           4.2045  -22.7023  -45.1709 N.am      9 UNK        -0.5000 
     30 C           3.5019  -21.5747  -44.9981 C.2       8 UNK         0.5000 
     31 O           2.3843  -21.5522  -44.4764 O.2       8 UNK        -0.5000 
     32 CA          4.1215  -20.2774  -45.5467 C.3       8 UNK         0.1400 
     33 CB          4.0840  -20.2759  -47.0845 C.3       8 UNK        -0.1800 
     34 N           3.3406  -19.1396  -45.0711 N.am      8 UNK        -0.5000 
     35 C           3.7064  -18.2844  -44.1143 C.2       7 UNK         0.5000 
     36 O           4.8243  -18.2595  -43.5930 O.2       7 UNK        -0.5000 
     37 CA          2.5993  -17.3352  -43.6181 C.3       7 UNK         0.1400 
     38 CB          1.8714  -17.9632  -42.4184 C.3       7 UNK        -0.1800 
     39 N           3.1100  -16.0239  -43.2230 N.am      7 UNK        -0.5000 
     40 C           3.6582  -15.1271  -44.0532 C.2       6 UNK         0.5000 
     41 O           3.7831  -15.3089  -45.2648 O.2       6 UNK        -0.5000 
     42 CA          4.0893  -13.7934  -43.4158 C.3       6 UNK         0.1400 
     43 CB          4.4504  -12.7173  -44.4559 C.3       6 UNK        -0.1800 
     44 N           3.0089  -13.2828  -42.5737 N.am      6 UNK        -0.5000 
     45 C           3.0327  -13.1958  -41.2378 C.2       5 UNK         0.5000 
     46 O           3.9946  -13.5500  -40.5545 O.2       5 UNK        -0.5000 
     47 CA          1.7588  -12.6608  -40.5473 C.3       5 UNK         0.1400 
     48 CB          2.0526  -11.9516  -39.2086 C.3       5 UNK        -0.1800 
     49 N           0.9206  -11.8277  -41.4173 N.am      5 UNK        -0.5000 
     50 C           1.2165  -10.6294  -41.9484 C.2       4 UNK         0.5000 
     51 O           2.2667  -10.0257  -41.7266 O.2       4 UNK        -0.5000 
     52 CA          0.1767  -10.0046  -42.9044 C.3       4 UNK         0.1400 
     53 CB          0.8340   -9.5498  -44.2195 C.3       4 UNK        -0.1800 
     54 N          -0.9011  -10.9419  -43.2246 N.am      4 UNK        -0.5000 
     55 C          -2.0973  -10.9917  -42.6225 C.2       3 UNK         0.5000 
     56 O          -2.4688  -10.1828  -41.7721 O.2       3 UNK        -0.5000 
     57 CA         -3.0247  -12.1627  -43.0106 C.3       3 UNK         0.1400 
     58 CB         -4.0693  -11.7027  -44.0383 C.3       3 UNK        -0.1800 
     59 N          -2.2978  -13.3215  -43.5410 N.am      3 UNK        -0.5000 
     60 C          -1.4919  -14.1074  -42.8087 C.2       2 UNK         0.5000 
     61 O          -1.3224  -13.9598  -41.5989 O.2       2 UNK        -0.5000 
     62 CA         -0.6802  -15.1909  -43.5473 C.3       2 UNK         0.1400 
     63 CB         -1.3974  -16.5470  -43.4883 C.3       2 UNK        -0.1800 
     64 N          -0.3948  -14.8632  -44.9433 N.am      2 UNK        -0.5000 
     65 C           0.2972  -13.7953  -45.3646 C.2       1 UNK         0.5000 
     66 O           0.8527  -13.0077  -44.5974 O.2       1 UNK        -0.5000 
     67 C          -1.9072  -22.3868  -44.3236 C.2       11 UNK         0.5000 
     68 O          -2.9312  -21.8699  -43.8767 O.2       11 UNK        -0.5000 
     69 N          -1.4821  -23.6057  -43.9579 N.am      12 UNK        -0.5000 
     70 CA         -2.2667  -24.5690  -43.1817 C.3       12 UNK         0.1400 
     71 CB         -1.3825  -25.7830  -42.8600 C.3       12 UNK        -0.1800 
     72 C          -3.5591  -25.0152  -43.9033 C.2       12 UNK         0.5000 
     73 O          -4.5143  -25.4166  -43.2380 O.2       12 UNK        -0.5000 
     74 N          -3.5766  -24.9067  -45.2387 N.am      13 UNK        -0.5000 
     75 CA         -4.7381  -25.1019  -46.0975 C.3       13 UNK         0.1400 
     76 CB         -4.6868  -26.5091  -46.7195 C.3       13 UNK        -0.1800 
     77 C          -4.7476  -23.9735  -47.1422 C.2       13 UNK         0.5000 
     78 O          -4.7227  -24.2412  -48.3440 O.2       13 UNK        -0.5000 
     79 N          -4.7473  -22.7206  -46.6586 N.am      14 UNK        -0.5000 
     80 CA         -4.5949  -21.4944  -47.4517 C.3       14 UNK         0.1400 
     81 CB         -4.6979  -20.2663  -46.5331 C.3       14 UNK        -0.1800 
     82 C          -5.5765  -21.3514  -48.6283 C.2       14 UNK         0.5000 
     83 O          -5.1714  -20.8842  -49.6909 O.2       14 UNK        -0.5000 
     84 N          -6.8315  -21.7788  -48.4341 N.am      15 UNK        -0.5000 
     85 CA         -7.8694  -21.7677  -49.4671 C.3       15 UNK         0.1400 
     86 CB         -9.2311  -22.0765  -48.8270 C.3       15 UNK        -0.1800 
     87 C          -7.5731  -22.7470  -50.6180 C.2       15 UNK         0.5000 
     88 O          -7.7664  -22.3954  -51.7819 O.2       15 UNK        -0.5000 
     89 N          -7.0758  -23.9434  -50.2743 N.am      16 UNK        -0.5000 
     90 CA         -6.6544  -24.9644  -51.2330 C.3       16 UNK         0.1400 
     91 CB         -6.4941  -26.3154  -50.5201 C.3       16 UNK        -0.1800 
     92 C          -5.3559  -24.5634  -51.9508 C.2       16 UNK         0.5000 
     93 O          -5.2402  -24.7776  -53.1569 O.2       16 UNK        -0.5000 
     94 N          -4.4247  -23.9465  -51.2090 N.am      17 UNK        -0.5000 
     95 CA         -3.1874  -23.3773  -51.7386 C.3       17 UNK         0.1400 
     96 CB         -2.3000  -22.8810  -50.5869 C.3       17 UNK        -0.1800 
     97 C          -3.4593  -22.2523  -52.7506 C.2       17 UNK         0.5000 
     98 O          -2.8944  -22.2791  -53.8431 O.2       17 UNK        -0.5000 
     99 N          -4.3432  -21.3102  -52.3902 N.am      18 UNK        -0.5000 
    100 CA        -4.7775  -20.1992  -53.2402 C.3       18 UNK         0.1400 
    101 CB        -5.6863  -19.2586  -52.4342 C.3       18 UNK        -0.1800 
    102 C         -5.4907  -20.6629  -54.5218 C.2       18 UNK         0.5000 
    103 O         -5.2744  -20.0735  -55.5811 O.2       18 UNK        -0.5000 
    104 N         -6.3042  -21.7229  -54.4086 N.am      19 UNK        -0.5000 
    105 CA        -6.9635  -22.3786  -55.5377 C.3       19 UNK         0.1400 
    106 CB        -8.0187  -23.3656  -55.0160 C.3       19 UNK        -0.1800 
    107 C         -5.9700  -23.0857  -56.4797 C.2       19 UNK         0.5000 
    108 O         -6.1983  -23.1007  -57.6900 O.2       19 UNK        -0.5000 
    109 N         -4.8894  -23.6462  -55.9170 N.am      20 UNK        -0.5000 
    110 CA        -3.8025  -24.2785  -56.6597 C.3       20 UNK         0.1400 
    111 CB        -2.9604  -25.1627  -55.7248 C.3       20 UNK        -0.1800 
    112 C         -2.9394  -23.2461  -57.4071 C.2       20 UNK         0.5000 
    113 O         -2.8701  -23.3142  -58.6351 O.2       20 UNK        -0.5000 
    114 N         -2.3248  -22.3075  -56.6693 N.am      21 UNK        -0.5000 
    115 CA        -1.4911  -21.2211  -57.2047 C.3       21 UNK         0.1400 
    116 CB        -0.3014  -21.7605  -58.0332 C.3       21 UNK        -0.1800 
    117 C         -0.9297  -20.3020  -56.1072 C.2       21 UNK         0.5000 
    118 O         -0.7789  -19.1068  -56.3567 O.2       21 UNK        -0.5000 
    119 N         -0.5560  -20.8894  -54.9622 N.am      22 UNK        -0.5000 
    120 CA         0.1456  -20.3264  -53.7862 C.3       22 UNK         0.1400 
    121 C          1.5128  -19.6091  -54.0181 C.2       22 UNK         0.5000 
    122 N          1.8551  -19.1810  -55.2243 N.am      22 UNK        -0.7600 
    123 O          2.2991  -19.4775  -53.0844 O.2       22 UNK        -0.5000 
    124 C124       -0.7715  -19.5508  -52.7995 C.3       23 UNK        -0.0398 
    125 S125       -1.3273  -17.9012  -53.3511 S.3       23 UNK        -0.2404 
    126 C126       -2.1622  -17.2810  -51.8538 C.3       23 UNK        -0.0205 
    127 H127       -3.4208  -15.5751  -47.8960 H         1 UNK         0.0600 
    128 H128       -2.5440  -14.9678  -49.3073 H         1 UNK         0.0600 
    129 H129       -3.8755  -14.0325  -48.6304 H         1 UNK         0.0600 
    130 H130       -0.4736  -14.8075  -48.3638 H         1 UNK         0.3000 
    131 H131        0.2205  -12.4668  -47.0284 H         1 UNK         0.0600 
    132 H132        2.4964  -13.2917  -47.0160 H         1 UNK         0.0800 
    133 H133        1.9949  -14.9482  -47.1286 H         1 UNK         0.0800 
    134 H134        2.4739  -15.6202  -50.7387 H         1 UNK         0.0800 
    135 H135        2.8706  -16.0243  -49.0923 H         1 UNK         0.0800 
    136 H136        0.1916  -15.9166  -51.6267 H         1 UNK         0.1150 
    137 H137       -2.4754  -18.4280  -49.4036 H         1 UNK         0.1150 
    138 H138        1.1304  -16.9910  -47.5865 H         1 UNK         0.1150 
    139 H139       -1.5250  -17.7304  -46.3630 H         1 UNK         0.0800 
    140 H140       -1.9192  -19.1897  -47.2438 H         1 UNK         0.0800 
    141 H141       -1.4460  -19.6615  -44.5778 H         1 UNK         0.0800 
    142 H142        0.0630  -20.3849  -44.0896 H         1 UNK         0.0800 
    143 H143       -1.8310  -21.4586  -46.2182 H         1 UNK         0.0600 
    144 H144        0.8987  -22.1996  -45.7819 H         1 UNK         0.3000 
    145 H145        0.7786  -25.2682  -47.4873 H         1 UNK         0.0600 
    146 H146        2.0731  -24.2102  -49.3457 H         1 UNK         0.0600 
    147 H147        0.3557  -23.8966  -49.5174 H         1 UNK         0.0600 
    148 H148        1.4181  -22.6284  -48.9174 H         1 UNK         0.0600 
    149 H149        2.9098  -23.3948  -47.0869 H         1 UNK         0.3000 
    150 H150        3.5524  -24.0078  -43.6885 H         1 UNK         0.0600 
    151 H151        5.1250  -25.1103  -46.0795 H         1 UNK         0.0600 
    152 H152        4.5644  -26.0569  -44.7063 H         1 UNK         0.0600 
    153 H153        5.7681  -24.8014  -44.4659 H         1 UNK         0.0600 
    154 H154        5.1118  -22.6541  -45.6120 H         1 UNK         0.3000 
    155 H155        5.1575  -20.2106  -45.2085 H         1 UNK         0.0600 
    156 H156        3.0686  -20.3980  -47.4649 H         1 UNK         0.0600 
    157 H157        4.6901  -21.0829  -47.4974 H         1 UNK         0.0600 
    158 H158        4.4774  -19.3411  -47.4845 H         1 UNK         0.0600 
    159 H159        2.3769  -19.1346  -45.3810 H         1 UNK         0.3000 
    160 H160        1.8778  -17.1814  -44.4239 H         1 UNK         0.0600 
    161 H161        2.5542  -18.1465  -41.5878 H         1 UNK         0.0600 
    162 H162        1.4257  -18.9206  -42.6900 H         1 UNK         0.0600 
    163 H163        1.0689  -17.3244  -42.0522 H         1 UNK         0.0600 
    164 H164        3.0829  -15.8071  -42.2380 H         1 UNK         0.3000 
    165 H165        4.9829  -14.0002  -42.8239 H         1 UNK         0.0600 
    166 H166        5.2500  -13.0564  -45.1154 H         1 UNK         0.0600 
    167 H167        3.5941  -12.4551  -45.0771 H         1 UNK         0.0600 
    168 H168        4.7963  -11.8054  -43.9689 H         1 UNK         0.0600 
    169 H169        2.1657  -13.0128  -43.0709 H         1 UNK         0.3000 
    170 H170        1.1590  -13.5426  -40.3186 H         1 UNK         0.0600 
    171 H171        2.5212  -12.6343  -38.4990 H         1 UNK         0.0600 
    172 H172        2.7260  -11.1038  -39.3360 H         1 UNK         0.0600 
    173 H173        1.1355  -11.5863  -38.7463 H         1 UNK         0.0600 
    174 H174        0.0259  -12.2367  -41.6556 H         1 UNK         0.3000 
    175 H175       -0.2304   -9.1220  -42.4073 H         1 UNK         0.0600 
    176 H176        0.0983   -9.1213  -44.9003 H         1 UNK         0.0600 
    177 H177        1.5886   -8.7839  -44.0369 H         1 UNK         0.0600 
    178 H178        1.3255  -10.3761  -44.7338 H         1 UNK         0.0600 
    179 H179       -0.6600  -11.6688  -43.8871 H         1 UNK         0.3000 
    180 H180       -3.5525  -12.4784  -42.1083 H         1 UNK         0.0600 
    181 H181       -3.6001  -11.3348  -44.9514 H         1 UNK         0.0600 
    182 H182       -4.6811  -10.8939  -43.6367 H         1 UNK         0.0600 
    183 H183       -4.7423  -12.5159  -44.3104 H         1 UNK         0.0600 
    184 H184       -2.3647  -13.4717  -44.5430 H         1 UNK         0.3000 
    185 H185        0.2761  -15.2812  -43.0299 H         1 UNK         0.0600 
    186 H186       -1.6084  -16.8339  -42.4572 H         1 UNK         0.0600 
    187 H187       -2.3469  -16.5249  -44.0247 H         1 UNK         0.0600 
    188 H188       -0.7825  -17.3344  -43.9227 H         1 UNK         0.0600 
    189 H189       -0.8361  -15.4392  -45.6438 H         1 UNK         0.3000 
    190 H190       -0.6220  -23.9500  -44.3625 H         1 UNK         0.3000 
    191 H191       -2.5577  -24.0924  -42.2435 H         1 UNK         0.0600 
    192 H192       -0.4985  -25.4886  -42.2939 H         1 UNK         0.0600 
    193 H193       -1.9248  -26.5143  -42.2592 H         1 UNK         0.0600 
    194 H194       -1.0459  -26.2863  -43.7674 H         1 UNK         0.0600 
    195 H195       -2.7490  -24.5622  -45.7164 H         1 UNK         0.3000 
    196 H196       -5.6598  -25.0093  -45.5195 H         1 UNK         0.0600 
    197 H197       -5.5613  -26.6915  -47.3446 H         1 UNK         0.0600 
    198 H198       -4.6731  -27.2796  -45.9486 H         1 UNK         0.0600 
    199 H199       -3.8003  -26.6414  -47.3411 H         1 UNK         0.0600 
    200 H200       -4.7582  -22.5999  -45.6552 H         1 UNK         0.3000 
    201 H201       -3.5901  -21.5153  -47.8764 H         1 UNK         0.0600 
    202 H202       -4.5869  -19.3417  -47.1015 H         1 UNK         0.0600 
    203 H203       -5.6624  -20.2248  -46.0259 H         1 UNK         0.0600 
    204 H204       -3.9210  -20.2665  -45.7705 H         1 UNK         0.0600 
    205 H205       -7.0823  -22.1524  -47.5307 H         1 UNK         0.3000 
    206 H206       -7.9137  -20.7624  -49.8917 H         1 UNK         0.0600 
    207 H207       -9.4855  -21.3381  -48.0666 H         1 UNK         0.0600 
    208 H208      -10.0257  -22.0591  -49.5742 H         1 UNK         0.0600 
    209 H209       -9.2434  -23.0608  -48.3574 H         1 UNK         0.0600 
    210 H210       -6.8653  -24.1221  -49.3027 H         1 UNK         0.3000 
    211 H211       -7.4371  -25.0706  -51.9872 H         1 UNK         0.0600 
    212 H212       -5.6980  -26.2894  -49.7762 H         1 UNK         0.0600 
    213 H213       -6.2468  -27.1022  -51.2338 H         1 UNK         0.0600 
    214 H214       -7.4155  -26.6097  -50.0176 H         1 UNK         0.0600 
    215 H215       -4.5800  -23.8652  -50.2075 H         1 UNK         0.3000 
    216 H216       -2.6534  -24.1750  -52.2587 H         1 UNK         0.0600 
    217 H217       -1.3328  -22.5421  -50.9597 H         1 UNK         0.0600 
    218 H218       -2.1138  -23.6747  -49.8632 H         1 UNK         0.0600 
    219 H219       -2.7534  -22.0461  -50.0544 H         1 UNK         0.0600 
    220 H220       -4.7322  -21.3335  -51.4503 H         1 UNK         0.3000 
    221 H221       -3.8884  -19.6430  -53.5419 H         1 UNK         0.0600 
    222 H222       -6.5901  -19.7671  -52.0964 H         1 UNK         0.0600 
    223 H223       -5.1767  -18.8707  -51.5529 H         1 UNK         0.0600 
    224 H224       -5.9942  -18.4022  -53.0352 H         1 UNK         0.0600 
    225 H225       -6.4741  -22.1151  -53.4897 H         1 UNK         0.3000 
    226 H226       -7.4788  -21.6101  -56.1175 H         1 UNK         0.0600 
    227 H227       -8.5449  -23.8466  -55.8414 H         1 UNK         0.0600 
    228 H228       -7.5705  -24.1528  -54.4098 H         1 UNK         0.0600 
    229 H229       -8.7659  -22.8579  -54.4059 H         1 UNK         0.0600 
    230 H230       -4.8025  -23.6321  -54.9075 H         1 UNK         0.3000 
    231 H231       -4.2495  -24.9368  -57.4079 H         1 UNK         0.0600 
    232 H232       -2.4909  -24.5917  -54.9252 H         1 UNK         0.0600 
    233 H233       -2.1652  -25.6641  -56.2776 H         1 UNK         0.0600 
    234 H234       -3.5727  -25.9371  -55.2623 H         1 UNK         0.0600 
    235 H235       -2.5140  -22.2795  -55.6683 H         1 UNK         0.3000 
    236 H236       -2.1212  -20.6067  -57.8508 H         1 UNK         0.0600 
    237 H237        0.3954  -20.9616  -58.2918 H         1 UNK         0.0600 
    238 H238        0.2597  -22.5162  -57.4825 H         1 UNK         0.0600 
    239 H239       -0.6220  -22.2008  -58.9762 H         1 UNK         0.0600 
    240 H240       -0.7268  -21.8819  -54.8929 H         1 UNK         0.3000 
    241 H241        0.4356  -21.2289  -53.2462 H         1 UNK         0.0600 
    242 H242        1.1518  -19.1753  -55.9534 H         1 UNK         0.3800 
    243 H243        2.7450  -18.7311  -55.3678 H         1 UNK         0.3800 
    244 H244       -0.2482  -19.4350  -51.8492 H         1 UNK         0.0800 
    245 H245       -1.6528  -20.1425  -52.5674 H         1 UNK         0.0800 
    246 H246       -2.5692  -16.2905  -52.0604 H         1 UNK         0.0800 
    247 H247       -3.0138  -17.9259  -51.6377 H         1 UNK         0.0800 
@<TRIPOS>BOND
     1    1    2 1    
     2    1  127 1    
     3    1  128 1    
     4    1  129 1    
     5    2    3 2    
     6    2    4 am   BACKBONE|DICT|INTERRES
     7    4    5 1    
     8    4  130 1    
     9    5    6 1    
    10    5   65 1    
    11    5  131 1    
    12    6    7 1    
    13    6  132 1    
    14    6  133 1    
    15    7    8 1    
    16    8    9 1    
    17    8  134 1    
    18    8  135 1    
    19    9   10 ar   
    20    9   14 ar   
    21   10   11 ar   
    22   10  136 1    
    23   11   12 ar   
    24   11  126 1    
    25   12   13 ar   
    26   12  137 1    
    27   13   14 ar   
    28   13   15 1    
    29   14  138 1    
    30   15   16 1    
    31   15  139 1    
    32   15  140 1    
    33   16   17 1    
    34   17   18 1    
    35   17  141 1    
    36   17  142 1    
    37   18   19 1    
    38   18   67 1    
    39   18  143 1    
    40   19   20 am   BACKBONE|DICT|INTERRES
    41   19  144 1    
    42   20   21 2    
    43   20   22 1    
    44   22   23 1    
    45   22   24 1    
    46   22  145 1    
    47   23  146 1    
    48   23  147 1    
    49   23  148 1    
    50   24   25 am   BACKBONE|DICT|INTERRES
    51   24  149 1    
    52   25   26 2    
    53   25   27 1    
    54   27   28 1    
    55   27   29 1    
    56   27  150 1    
    57   28  151 1    
    58   28  152 1    
    59   28  153 1    
    60   29   30 am   BACKBONE|DICT|INTERRES
    61   29  154 1    
    62   30   31 2    
    63   30   32 1    
    64   32   33 1    
    65   32   34 1    
    66   32  155 1    
    67   33  156 1    
    68   33  157 1    
    69   33  158 1    
    70   34   35 am   BACKBONE|DICT|INTERRES
    71   34  159 1    
    72   35   36 2    
    73   35   37 1    
    74   37   38 1    
    75   37   39 1    
    76   37  160 1    
    77   38  161 1    
    78   38  162 1    
    79   38  163 1    
    80   39   40 am   BACKBONE|DICT|INTERRES
    81   39  164 1    
    82   40   41 2    
    83   40   42 1    
    84   42   43 1    
    85   42   44 1    
    86   42  165 1    
    87   43  166 1    
    88   43  167 1    
    89   43  168 1    
    90   44   45 am   BACKBONE|DICT|INTERRES
    91   44  169 1    
    92   45   46 2    
    93   45   47 1    
    94   47   48 1    
    95   47   49 1    
    96   47  170 1    
    97   48  171 1    
    98   48  172 1    
    99   48  173 1    
   100   49   50 am   BACKBONE|DICT|INTERRES
   101   49  174 1    
   102   50   51 2    
   103   50   52 1    
   104   52   53 1    
   105   52   54 1    
   106   52  175 1    
   107   53  176 1    
   108   53  177 1    
   109   53  178 1    
   110   54   55 am   BACKBONE|DICT|INTERRES
   111   54  179 1    
   112   55   56 2    
   113   55   57 1    
   114   57   58 1    
   115   57   59 1    
   116   57  180 1    
   117   58  181 1    
   118   58  182 1    
   119   58  183 1    
   120   59   60 am   BACKBONE|DICT|INTERRES
   121   59  184 1    
   122   60   61 2    
   123   60   62 1    
   124   62   63 1    
   125   62   64 1    
   126   62  185 1    
   127   63  186 1    
   128   63  187 1    
   129   63  188 1    
   130   64   65 am   BACKBONE|DICT|INTERRES
   131   64  189 1    
   132   65   66 2    
   133   67   68 2    
   134   67   69 am   BACKBONE|DICT|INTERRES
   135   69   70 1    
   136   69  190 1    
   137   70   71 1    
   138   70   72 1    
   139   70  191 1    
   140   71  192 1    
   141   71  193 1    
   142   71  194 1    
   143   72   73 2    
   144   72   74 am   BACKBONE|DICT|INTERRES
   145   74   75 1    
   146   74  195 1    
   147   75   76 1    
   148   75   77 1    
   149   75  196 1    
   150   76  197 1    
   151   76  198 1    
   152   76  199 1    
   153   77   78 2    
   154   77   79 am   BACKBONE|DICT|INTERRES
   155   79   80 1    
   156   79  200 1    
   157   80   81 1    
   158   80   82 1    
   159   80  201 1    
   160   81  202 1    
   161   81  203 1    
   162   81  204 1    
   163   82   83 2    
   164   82   84 am   BACKBONE|DICT|INTERRES
   165   84   85 1    
   166   84  205 1    
   167   85   86 1    
   168   85   87 1    
   169   85  206 1    
   170   86  207 1    
   171   86  208 1    
   172   86  209 1    
   173   87   88 2    
   174   87   89 am   BACKBONE|DICT|INTERRES
   175   89   90 1    
   176   89  210 1    
   177   90   91 1    
   178   90   92 1    
   179   90  211 1    
   180   91  212 1    
   181   91  213 1    
   182   91  214 1    
   183   92   93 2    
   184   92   94 am   BACKBONE|DICT|INTERRES
   185   94   95 1    
   186   94  215 1    
   187   95   96 1    
   188   95   97 1    
   189   95  216 1    
   190   96  217 1    
   191   96  218 1    
   192   96  219 1    
   193   97   98 2    
   194   97   99 am   BACKBONE|DICT|INTERRES
   195   99  100 1    
   196   99  220 1    
   197  100  101 1    
   198  100  102 1    
   199  100  221 1    
   200  101  222 1    
   201  101  223 1    
   202  101  224 1    
   203  102  103 2    
   204  102  104 am   BACKBONE|DICT|INTERRES
   205  104  105 1    
   206  104  225 1    
   207  105  106 1    
   208  105  107 1    
   209  105  226 1    
   210  106  227 1    
   211  106  228 1    
   212  106  229 1    
   213  107  108 2    
   214  107  109 am   BACKBONE|DICT|INTERRES
   215  109  110 1    
   216  109  230 1    
   217  110  111 1    
   218  110  112 1    
   219  110  231 1    
   220  111  232 1    
   221  111  233 1    
   222  111  234 1    
   223  112  113 2    
   224  112  114 am   BACKBONE|DICT|INTERRES
   225  114  115 1    
   226  114  235 1    
   227  115  116 1    
   228  115  117 1    
   229  115  236 1    
   230  116  237 1    
   231  116  238 1    
   232  116  239 1    
   233  117  118 2    
   234  117  119 am   BACKBONE|DICT|INTERRES
   235  119  120 1    
   236  119  240 1    
   237  120  121 1    
   238  120  124 1    
   239  120  241 1    
   240  121  122 am   BACKBONE|DICT|INTERRES
   241  121  123 2    
   242  122  242 1    
   243  122  243 1    
   244  124  125 1    
   245  124  244 1    
   246  124  245 1    
   247  125  126 1    
   248  126  246 1    
   249  126  247 1    
@<TRIPOS>SUBSTRUCTURE
     1 UNK         1 GROUP             0       ****    0 ROOT    
