@<TRIPOS>MOLECULE
3R540
247   249    1
SMALL
USER_CHARGES


@<TRIPOS>ATOM
      1 CA         -4.5508  -15.3841  -50.6994 C.3       0 UNK        -0.1800 
      2 C          -3.5023  -15.1275  -49.6255 C.2       0 UNK         0.5000 
      3 O          -3.3893  -15.9231  -48.6948 O.2       0 UNK        -0.5000 
      4 N          -2.7531  -14.0230  -49.7693 N.am      1 UNK        -0.5000 
      5 CA         -1.7033  -13.5024  -48.8800 C.3       1 UNK         0.1400 
      6 C6         -0.2722  -14.0339  -49.2004 C.3       23 UNK        -0.0398 
      7 S7          0.0247  -15.8144  -48.9194 S.3       23 UNK        -0.2404 
      8 C8         -0.0473  -16.4733  -50.6104 C.3       23 UNK        -0.0205 
      9 C9         -0.3700  -17.9548  -50.5701 C.ar      23 UNK        -0.0193 
     10 C10        -1.6994  -18.3748  -50.6351 C.ar      23 UNK        -0.1150 
     11 C11        -2.0216  -19.7284  -50.5510 C.ar      23 UNK        -0.0193 
     12 C12        -0.9987  -20.6662  -50.3969 C.ar      23 UNK        -0.1150 
     13 C13         0.3389  -20.2633  -50.3276 C.ar      23 UNK        -0.0193 
     14 C14         0.6475  -18.9023  -50.4310 C.ar      23 UNK        -0.1150 
     15 C15         1.4317  -21.3152  -50.1678 C.3       23 UNK        -0.0205 
     16 S16         2.7369  -20.8875  -48.9645 S.3       23 UNK        -0.2404 
     17 C17         1.8132  -20.5251  -47.4322 C.3       23 UNK        -0.0398 
     18 CA          1.1211  -21.7658  -46.8028 C.3       11 UNK         0.1400 
     19 N           1.3925  -21.8970  -45.3654 N.am      11 UNK        -0.5000 
     20 C           1.0547  -22.9592  -44.6207 C.2       10 UNK         0.5000 
     21 O           0.3300  -23.8718  -45.0156 O.2       10 UNK        -0.5000 
     22 CA          1.6430  -23.0278  -43.2069 C.3       10 UNK         0.1400 
     23 CB          3.1816  -23.0063  -43.2327 C.3       10 UNK        -0.1800 
     24 N           1.1441  -21.9377  -42.3717 N.am      10 UNK        -0.5000 
     25 C           0.1663  -22.0885  -41.4682 C.2       9 UNK         0.5000 
     26 O          -0.4562  -23.1371  -41.2986 O.2       9 UNK        -0.5000 
     27 CA         -0.1521  -20.8854  -40.5672 C.3       9 UNK         0.1400 
     28 CB          0.8877  -20.7748  -39.4413 C.3       9 UNK        -0.1800 
     29 N          -0.2371  -19.6160  -41.2865 N.am      9 UNK        -0.5000 
     30 C          -1.2476  -19.2747  -42.0976 C.2       8 UNK         0.5000 
     31 O          -2.1798  -20.0264  -42.3825 O.2       8 UNK        -0.5000 
     32 CA         -1.2201  -17.8460  -42.6751 C.3       8 UNK         0.1400 
     33 CB         -1.6411  -16.8203  -41.6110 C.3       8 UNK        -0.1800 
     34 N           0.0900  -17.4770  -43.2035 N.am      8 UNK        -0.5000 
     35 C           0.6607  -18.0410  -44.2758 C.2       7 UNK         0.5000 
     36 O           0.1249  -18.9020  -44.9720 O.2       7 UNK        -0.5000 
     37 CA          2.0977  -17.5992  -44.5939 C.3       7 UNK         0.1400 
     38 CB          2.1087  -16.2775  -45.3769 C.3       7 UNK        -0.1800 
     39 N           2.9122  -17.4792  -43.3843 N.am      7 UNK        -0.5000 
     40 C           3.2541  -18.5157  -42.6045 C.2       6 UNK         0.5000 
     41 O           2.9398  -19.6824  -42.8427 O.2       6 UNK        -0.5000 
     42 CA          4.0420  -18.1873  -41.3237 C.3       6 UNK         0.1400 
     43 CB          5.5412  -18.0563  -41.6295 C.3       6 UNK        -0.1800 
     44 N           3.5694  -16.9660  -40.6687 N.am      6 UNK        -0.5000 
     45 C           2.3622  -16.8335  -40.1007 C.2       5 UNK         0.5000 
     46 O           1.5281  -17.7346  -40.0525 O.2       5 UNK        -0.5000 
     47 CA          2.0047  -15.4450  -39.5429 C.3       5 UNK         0.1400 
     48 CB          2.5566  -15.2729  -38.1200 C.3       5 UNK        -0.1800 
     49 N           2.4787  -14.3472  -40.3888 N.am      5 UNK        -0.5000 
     50 C           2.0892  -14.1455  -41.6536 C.2       4 UNK         0.5000 
     51 O           1.3123  -14.8887  -42.2610 O.2       4 UNK        -0.5000 
     52 CA          2.7173  -12.9463  -42.3776 C.3       4 UNK         0.1400 
     53 CB          3.9625  -13.3906  -43.1609 C.3       4 UNK        -0.1800 
     54 N           1.7464  -12.3825  -43.3083 N.am      4 UNK        -0.5000 
     55 C           0.8754  -11.4108  -43.0086 C.2       3 UNK         0.5000 
     56 O           0.8875  -10.7750  -41.9537 O.2       3 UNK        -0.5000 
     57 CA         -0.2062  -11.1184  -44.0642 C.3       3 UNK         0.1400 
     58 CB          0.2951  -10.0863  -45.0860 C.3       3 UNK        -0.1800 
     59 N          -0.6238  -12.3306  -44.7708 N.am      3 UNK        -0.5000 
     60 C          -1.4079  -13.2857  -44.2495 C.2       2 UNK         0.5000 
     61 O          -1.9060  -13.2126  -43.1253 O.2       2 UNK        -0.5000 
     62 CA         -1.6606  -14.5331  -45.1250 C.3       2 UNK         0.1400 
     63 CB         -3.0452  -15.1694  -44.8810 C.3       2 UNK        -0.1800 
     64 N          -1.4356  -14.3153  -46.5603 N.am      2 UNK        -0.5000 
     65 C          -2.1115  -13.5013  -47.3854 C.2       1 UNK         0.5000 
     66 O          -3.0174  -12.7498  -47.0193 O.2       1 UNK        -0.5000 
     67 C          -0.3846  -21.7980  -47.1233 C.2       11 UNK         0.5000 
     68 O          -0.8247  -22.6399  -47.9081 O.2       11 UNK        -0.5000 
     69 N          -1.1497  -20.9066  -46.4811 N.am      12 UNK        -0.5000 
     70 CA         -2.5912  -20.7629  -46.6800 C.3       12 UNK         0.1400 
     71 CB         -3.0779  -19.4832  -45.9859 C.3       12 UNK        -0.1800 
     72 C          -3.3982  -21.9897  -46.2152 C.2       12 UNK         0.5000 
     73 O          -4.4536  -22.2660  -46.7852 O.2       12 UNK        -0.5000 
     74 N          -2.8780  -22.7153  -45.2153 N.am      13 UNK        -0.5000 
     75 CA         -3.4398  -23.9750  -44.7308 C.3       13 UNK         0.1400 
     76 CB         -2.8717  -24.2879  -43.3394 C.3       13 UNK        -0.1800 
     77 C          -3.1754  -25.1372  -45.7054 C.2       13 UNK         0.5000 
     78 O          -4.0720  -25.9496  -45.9358 O.2       13 UNK        -0.5000 
     79 N          -1.9594  -25.1899  -46.2683 N.am      14 UNK        -0.5000 
     80 CA         -1.5471  -26.1748  -47.2698 C.3       14 UNK         0.1400 
     81 CB         -0.0180  -26.1355  -47.4205 C.3       14 UNK        -0.1800 
     82 C          -2.2231  -25.9633  -48.6371 C.2       14 UNK         0.5000 
     83 O          -2.4584  -26.9409  -49.3479 O.2       14 UNK        -0.5000 
     84 N          -2.5062  -24.6955  -48.9761 N.am      15 UNK        -0.5000 
     85 CA         -3.1080  -24.2181  -50.2272 C.3       15 UNK         0.1400 
     86 CB         -4.5435  -24.7590  -50.3957 C.3       15 UNK        -0.1800 
     87 C          -2.2138  -24.4729  -51.4599 C.2       15 UNK         0.5000 
     88 O          -2.7201  -24.6611  -52.5666 O.2       15 UNK        -0.5000 
     89 N          -0.8917  -24.4850  -51.2364 N.am      16 UNK        -0.5000 
     90 CA          0.1190  -24.9278  -52.1982 C.3       16 UNK         0.1400 
     91 CB          1.4586  -25.1048  -51.4661 C.3       16 UNK        -0.1800 
     92 C           0.2892  -24.0197  -53.4310 C.2       16 UNK         0.5000 
     93 O           0.7233  -24.5114  -54.4736 O.2       16 UNK        -0.5000 
     94 N          -0.0359  -22.7247  -53.3027 N.am      17 UNK        -0.5000 
     95 CA          0.0567  -21.7572  -54.3988 C.3       17 UNK         0.1400 
     96 CB          0.0055  -20.3251  -53.8451 C.3       17 UNK        -0.1800 
     97 C          -1.0408  -21.9581  -55.4566 C.2       17 UNK         0.5000 
     98 O          -0.7533  -21.8591  -56.6501 O.2       17 UNK        -0.5000 
     99 N          -2.2726  -22.2190  -54.9914 N.am      18 UNK        -0.5000 
    100 CA        -3.5322  -22.3896  -55.7295 C.3       18 UNK         0.1400 
    101 CB        -3.4781  -23.6175  -56.6570 C.3       18 UNK        -0.1800 
    102 C         -3.9924  -21.1273  -56.4875 C.2       18 UNK         0.5000 
    103 O         -5.0956  -20.6354  -56.2437 O.2       18 UNK        -0.5000 
    104 N         -3.1202  -20.5986  -57.3555 N.am      19 UNK        -0.5000 
    105 CA        -3.3027  -19.4065  -58.1896 C.3       19 UNK         0.1400 
    106 CB        -2.1198  -19.3065  -59.1647 C.3       19 UNK        -0.1800 
    107 C         -3.4612  -18.0934  -57.3963 C.2       19 UNK         0.5000 
    108 O         -3.9213  -17.0985  -57.9568 O.2       19 UNK        -0.5000 
    109 N         -3.1213  -18.1226  -56.1005 N.am      20 UNK        -0.5000 
    110 CA        -3.3857  -17.0649  -55.1233 C.3       20 UNK         0.1400 
    111 CB        -2.4972  -17.3090  -53.8924 C.3       20 UNK        -0.1800 
    112 C         -4.8743  -16.9592  -54.7151 C.2       20 UNK         0.5000 
    113 O         -5.2098  -16.0746  -53.9283 O.2       20 UNK        -0.5000 
    114 N         -5.7268  -17.8524  -55.2447 N.am      21 UNK        -0.5000 
    115 CA        -7.1534  -18.0234  -54.9603 C.3       21 UNK         0.1400 
    116 CB        -7.9629  -16.7384  -55.2380 C.3       21 UNK        -0.1800 
    117 C         -7.3591  -18.6015  -53.5503 C.2       21 UNK         0.5000 
    118 O         -8.0751  -18.0259  -52.7289 O.2       21 UNK        -0.5000 
    119 N         -6.6948  -19.7372  -53.3028 N.am      22 UNK        -0.5000 
    120 CA        -6.7050  -20.4619  -52.0218 C.3       22 UNK         0.1400 
    121 C         -8.0586  -21.1414  -51.6553 C.2       22 UNK         0.5000 
    122 N         -9.0016  -21.2948  -52.5771 N.am      22 UNK        -0.7600 
    123 O         -8.2561  -21.5356  -50.5097 O.2       22 UNK        -0.5000 
    124 C124       -5.5520  -21.4940  -51.9333 C.3       23 UNK        -0.0398 
    125 S125       -3.9010  -20.7923  -52.2632 S.3       23 UNK        -0.2404 
    126 C126       -3.4723  -20.1731  -50.6105 C.3       23 UNK        -0.0205 
    127 H127       -4.4424  -16.3885  -51.1083 H         1 UNK         0.0600 
    128 H128       -4.4702  -14.6759  -51.5244 H         1 UNK         0.0600 
    129 H129       -5.5508  -15.2987  -50.2746 H         1 UNK         0.0600 
    130 H130       -2.9507  -13.4276  -50.5610 H         1 UNK         0.3000 
    131 H131       -1.6653  -12.4408  -49.1300 H         1 UNK         0.0600 
    132 H132       -0.0285  -13.8001  -50.2375 H         1 UNK         0.0800 
    133 H133        0.4625  -13.4819  -48.6121 H         1 UNK         0.0800 
    134 H134       -0.8084  -15.9444  -51.1860 H         1 UNK         0.0800 
    135 H135        0.9046  -16.3009  -51.1146 H         1 UNK         0.0800 
    136 H136       -2.4866  -17.6444  -50.7385 H         1 UNK         0.1150 
    137 H137       -1.2494  -21.7128  -50.3230 H         1 UNK         0.1150 
    138 H138        1.6768  -18.5767  -50.3806 H         1 UNK         0.1150 
    139 H139        0.9993  -22.2715  -49.8739 H         1 UNK         0.0800 
    140 H140        1.8984  -21.4771  -51.1401 H         1 UNK         0.0800 
    141 H141        1.1232  -19.6969  -47.6081 H         1 UNK         0.0800 
    142 H142        2.5554  -20.1255  -46.7419 H         1 UNK         0.0800 
    143 H143        1.5499  -22.6624  -47.2560 H         1 UNK         0.0600 
    144 H144        1.9464  -21.1688  -44.9383 H         1 UNK         0.3000 
    145 H145        1.3521  -23.9915  -42.7832 H         1 UNK         0.0600 
    146 H146        3.5905  -23.1089  -42.2275 H         1 UNK         0.0600 
    147 H147        3.5794  -22.0858  -43.6591 H         1 UNK         0.0600 
    148 H148        3.5706  -23.8343  -43.8267 H         1 UNK         0.0600 
    149 H149        1.6173  -21.0424  -42.4580 H         1 UNK         0.3000 
    150 H150       -1.1229  -21.0719  -40.1027 H         1 UNK         0.0600 
    151 H151        0.9657  -21.7102  -38.8857 H         1 UNK         0.0600 
    152 H152        0.6144  -19.9968  -38.7283 H         1 UNK         0.0600 
    153 H153        1.8790  -20.5396  -39.8308 H         1 UNK         0.0600 
    154 H154        0.4672  -18.9199  -41.0552 H         1 UNK         0.3000 
    155 H155       -1.9380  -17.7982  -43.4960 H         1 UNK         0.0600 
    156 H156       -2.6536  -17.0185  -41.2579 H         1 UNK         0.0600 
    157 H157       -1.6256  -15.8059  -42.0088 H         1 UNK         0.0600 
    158 H158       -0.9805  -16.8417  -40.7439 H         1 UNK         0.0600 
    159 H159        0.5975  -16.7519  -42.7067 H         1 UNK         0.3000 
    160 H160        2.5511  -18.3650  -45.2242 H         1 UNK         0.0600 
    161 H161        1.6668  -15.4602  -44.8081 H         1 UNK         0.0600 
    162 H162        1.5417  -16.3744  -46.3031 H         1 UNK         0.0600 
    163 H163        3.1239  -15.9888  -45.6489 H         1 UNK         0.0600 
    164 H164        3.1624  -16.5473  -43.0909 H         1 UNK         0.3000 
    165 H165        3.9068  -19.0193  -40.6293 H         1 UNK         0.0600 
    166 H166        6.1174  -17.9030  -40.7169 H         1 UNK         0.0600 
    167 H167        5.9224  -18.9610  -42.1050 H         1 UNK         0.0600 
    168 H168        5.7459  -17.2211  -42.3006 H         1 UNK         0.0600 
    169 H169        4.1942  -16.1735  -40.6671 H         1 UNK         0.3000 
    170 H170        0.9154  -15.3812  -39.4958 H         1 UNK         0.0600 
    171 H171        3.6470  -15.2935  -38.1039 H         1 UNK         0.0600 
    172 H172        2.2316  -14.3288  -37.6824 H         1 UNK         0.0600 
    173 H173        2.2033  -16.0712  -37.4657 H         1 UNK         0.0600 
    174 H174        3.1285  -13.7006  -39.9649 H         1 UNK         0.3000 
    175 H175        3.0151  -12.1943  -41.6437 H         1 UNK         0.0600 
    176 H176        3.7247  -14.1486  -43.9075 H         1 UNK         0.0600 
    177 H177        4.4217  -12.5475  -43.6773 H         1 UNK         0.0600 
    178 H178        4.7162  -13.8109  -42.4939 H         1 UNK         0.0600 
    179 H179        1.6161  -12.8860  -44.1721 H         1 UNK         0.3000 
    180 H180       -1.0730  -10.6972  -43.5503 H         1 UNK         0.0600 
    181 H181       -0.4846   -9.8326  -45.8044 H         1 UNK         0.0600 
    182 H182        1.1585  -10.4536  -45.6422 H         1 UNK         0.0600 
    183 H183        0.5931   -9.1612  -44.5907 H         1 UNK         0.0600 
    184 H184       -0.2749  -12.4579  -45.7085 H         1 UNK         0.3000 
    185 H185       -0.9124  -15.2624  -44.8138 H         1 UNK         0.0600 
    186 H186       -3.1738  -16.0696  -45.4826 H         1 UNK         0.0600 
    187 H187       -3.1726  -15.4577  -43.8378 H         1 UNK         0.0600 
    188 H188       -3.8555  -14.4834  -45.1281 H         1 UNK         0.0600 
    189 H189       -0.7459  -14.9200  -46.9897 H         1 UNK         0.3000 
    190 H190       -0.7050  -20.2359  -45.8551 H         1 UNK         0.3000 
    191 H191       -2.7610  -20.6459  -47.7501 H         1 UNK         0.0600 
    192 H192       -2.9374  -19.5372  -44.9072 H         1 UNK         0.0600 
    193 H193       -4.1396  -19.3171  -46.1719 H         1 UNK         0.0600 
    194 H194       -2.5423  -18.6066  -46.3523 H         1 UNK         0.0600 
    195 H195       -1.9968  -22.4233  -44.8182 H         1 UNK         0.3000 
    196 H196       -4.5211  -23.8562  -44.6339 H         1 UNK         0.0600 
    197 H197       -3.0800  -23.4808  -42.6366 H         1 UNK         0.0600 
    198 H198       -1.7917  -24.4352  -43.3675 H         1 UNK         0.0600 
    199 H199       -3.3153  -25.1974  -42.9327 H         1 UNK         0.0600 
    200 H200       -1.2540  -24.5173  -45.9815 H         1 UNK         0.3000 
    201 H201       -1.8287  -27.1663  -46.9094 H         1 UNK         0.0600 
    202 H202        0.4759  -26.3645  -46.4760 H         1 UNK         0.0600 
    203 H203        0.3304  -25.1557  -47.7491 H         1 UNK         0.0600 
    204 H204        0.3232  -26.8688  -48.1523 H         1 UNK         0.0600 
    205 H205       -2.1787  -23.9683  -48.3459 H         1 UNK         0.3000 
    206 H206       -3.1793  -23.1373  -50.1297 H         1 UNK         0.0600 
    207 H207       -5.1601  -24.5084  -49.5323 H         1 UNK         0.0600 
    208 H208       -5.0262  -24.3324  -51.2745 H         1 UNK         0.0600 
    209 H209       -4.5601  -25.8419  -50.5177 H         1 UNK         0.0600 
    210 H210       -0.5755  -24.3218  -50.2915 H         1 UNK         0.3000 
    211 H211       -0.1917  -25.9080  -52.5661 H         1 UNK         0.0600 
    212 H212        1.8347  -24.1609  -51.0725 H         1 UNK         0.0600 
    213 H213        2.2198  -25.5029  -52.1383 H         1 UNK         0.0600 
    214 H214        1.3660  -25.8036  -50.6343 H         1 UNK         0.0600 
    215 H215       -0.3898  -22.3938  -52.4189 H         1 UNK         0.3000 
    216 H216        1.0216  -21.8879  -54.8936 H         1 UNK         0.0600 
    217 H217        0.0610  -19.5918  -54.6506 H         1 UNK         0.0600 
    218 H218        0.8451  -20.1312  -53.1786 H         1 UNK         0.0600 
    219 H219       -0.9156  -20.1341  -53.2945 H         1 UNK         0.0600 
    220 H220       -2.3729  -22.2820  -53.9877 H         1 UNK         0.3000 
    221 H221       -4.2906  -22.5915  -54.9714 H         1 UNK         0.0600 
    222 H222       -2.7371  -23.5042  -57.4486 H         1 UNK         0.0600 
    223 H223       -3.2320  -24.5194  -56.0961 H         1 UNK         0.0600 
    224 H224       -4.4434  -23.7855  -57.1359 H         1 UNK         0.0600 
    225 H225       -2.2120  -21.0544  -57.4154 H         1 UNK         0.3000 
    226 H226       -4.2174  -19.5450  -58.7692 H         1 UNK         0.0600 
    227 H227       -2.0506  -20.1949  -59.7928 H         1 UNK         0.0600 
    228 H228       -2.2286  -18.4482  -59.8291 H         1 UNK         0.0600 
    229 H229       -1.1727  -19.1957  -58.6351 H         1 UNK         0.0600 
    230 H230       -2.7517  -18.9870  -55.7348 H         1 UNK         0.3000 
    231 H231       -3.1028  -16.1075  -55.5651 H         1 UNK         0.0600 
    232 H232       -2.6216  -16.5172  -53.1528 H         1 UNK         0.0600 
    233 H233       -1.4413  -17.3344  -54.1620 H         1 UNK         0.0600 
    234 H234       -2.7413  -18.2529  -53.4054 H         1 UNK         0.0600 
    235 H235       -5.3308  -18.5714  -55.8385 H         1 UNK         0.3000 
    236 H236       -7.5098  -18.7829  -55.6579 H         1 UNK         0.0600 
    237 H237       -7.7314  -15.9424  -54.5303 H         1 UNK         0.0600 
    238 H238       -7.7712  -16.3615  -56.2426 H         1 UNK         0.0600 
    239 H239       -9.0330  -16.9342  -55.1627 H         1 UNK         0.0600 
    240 H240       -6.1171  -20.1304  -54.0330 H         1 UNK         0.3000 
    241 H241       -6.5316  -19.7177  -51.2422 H         1 UNK         0.0600 
    242 H242       -9.8741  -21.7327  -52.3256 H         1 UNK         0.3800 
    243 H243       -8.8551  -20.9767  -53.5213 H         1 UNK         0.3800 
    244 H244       -5.7163  -22.2996  -52.6509 H         1 UNK         0.0800 
    245 H245       -5.5390  -21.9653  -50.9492 H         1 UNK         0.0800 
    246 H246       -4.1342  -19.3435  -50.3567 H         1 UNK         0.0800 
    247 H247       -3.6519  -20.9440  -49.8628 H         1 UNK         0.0800 
@<TRIPOS>BOND
     1    1    2 1    
     2    1  127 1    
     3    1  128 1    
     4    1  129 1    
     5    2    3 2    
     6    2    4 am   BACKBONE|DICT|INTERRES
     7    4    5 1    
     8    4  130 1    
     9    5    6 1    
    10    5   65 1    
    11    5  131 1    
    12    6    7 1    
    13    6  132 1    
    14    6  133 1    
    15    7    8 1    
    16    8    9 1    
    17    8  134 1    
    18    8  135 1    
    19    9   10 ar   
    20    9   14 ar   
    21   10   11 ar   
    22   10  136 1    
    23   11   12 ar   
    24   11  126 1    
    25   12   13 ar   
    26   12  137 1    
    27   13   14 ar   
    28   13   15 1    
    29   14  138 1    
    30   15   16 1    
    31   15  139 1    
    32   15  140 1    
    33   16   17 1    
    34   17   18 1    
    35   17  141 1    
    36   17  142 1    
    37   18   19 1    
    38   18   67 1    
    39   18  143 1    
    40   19   20 am   BACKBONE|DICT|INTERRES
    41   19  144 1    
    42   20   21 2    
    43   20   22 1    
    44   22   23 1    
    45   22   24 1    
    46   22  145 1    
    47   23  146 1    
    48   23  147 1    
    49   23  148 1    
    50   24   25 am   BACKBONE|DICT|INTERRES
    51   24  149 1    
    52   25   26 2    
    53   25   27 1    
    54   27   28 1    
    55   27   29 1    
    56   27  150 1    
    57   28  151 1    
    58   28  152 1    
    59   28  153 1    
    60   29   30 am   BACKBONE|DICT|INTERRES
    61   29  154 1    
    62   30   31 2    
    63   30   32 1    
    64   32   33 1    
    65   32   34 1    
    66   32  155 1    
    67   33  156 1    
    68   33  157 1    
    69   33  158 1    
    70   34   35 am   BACKBONE|DICT|INTERRES
    71   34  159 1    
    72   35   36 2    
    73   35   37 1    
    74   37   38 1    
    75   37   39 1    
    76   37  160 1    
    77   38  161 1    
    78   38  162 1    
    79   38  163 1    
    80   39   40 am   BACKBONE|DICT|INTERRES
    81   39  164 1    
    82   40   41 2    
    83   40   42 1    
    84   42   43 1    
    85   42   44 1    
    86   42  165 1    
    87   43  166 1    
    88   43  167 1    
    89   43  168 1    
    90   44   45 am   BACKBONE|DICT|INTERRES
    91   44  169 1    
    92   45   46 2    
    93   45   47 1    
    94   47   48 1    
    95   47   49 1    
    96   47  170 1    
    97   48  171 1    
    98   48  172 1    
    99   48  173 1    
   100   49   50 am   BACKBONE|DICT|INTERRES
   101   49  174 1    
   102   50   51 2    
   103   50   52 1    
   104   52   53 1    
   105   52   54 1    
   106   52  175 1    
   107   53  176 1    
   108   53  177 1    
   109   53  178 1    
   110   54   55 am   BACKBONE|DICT|INTERRES
   111   54  179 1    
   112   55   56 2    
   113   55   57 1    
   114   57   58 1    
   115   57   59 1    
   116   57  180 1    
   117   58  181 1    
   118   58  182 1    
   119   58  183 1    
   120   59   60 am   BACKBONE|DICT|INTERRES
   121   59  184 1    
   122   60   61 2    
   123   60   62 1    
   124   62   63 1    
   125   62   64 1    
   126   62  185 1    
   127   63  186 1    
   128   63  187 1    
   129   63  188 1    
   130   64   65 am   BACKBONE|DICT|INTERRES
   131   64  189 1    
   132   65   66 2    
   133   67   68 2    
   134   67   69 am   BACKBONE|DICT|INTERRES
   135   69   70 1    
   136   69  190 1    
   137   70   71 1    
   138   70   72 1    
   139   70  191 1    
   140   71  192 1    
   141   71  193 1    
   142   71  194 1    
   143   72   73 2    
   144   72   74 am   BACKBONE|DICT|INTERRES
   145   74   75 1    
   146   74  195 1    
   147   75   76 1    
   148   75   77 1    
   149   75  196 1    
   150   76  197 1    
   151   76  198 1    
   152   76  199 1    
   153   77   78 2    
   154   77   79 am   BACKBONE|DICT|INTERRES
   155   79   80 1    
   156   79  200 1    
   157   80   81 1    
   158   80   82 1    
   159   80  201 1    
   160   81  202 1    
   161   81  203 1    
   162   81  204 1    
   163   82   83 2    
   164   82   84 am   BACKBONE|DICT|INTERRES
   165   84   85 1    
   166   84  205 1    
   167   85   86 1    
   168   85   87 1    
   169   85  206 1    
   170   86  207 1    
   171   86  208 1    
   172   86  209 1    
   173   87   88 2    
   174   87   89 am   BACKBONE|DICT|INTERRES
   175   89   90 1    
   176   89  210 1    
   177   90   91 1    
   178   90   92 1    
   179   90  211 1    
   180   91  212 1    
   181   91  213 1    
   182   91  214 1    
   183   92   93 2    
   184   92   94 am   BACKBONE|DICT|INTERRES
   185   94   95 1    
   186   94  215 1    
   187   95   96 1    
   188   95   97 1    
   189   95  216 1    
   190   96  217 1    
   191   96  218 1    
   192   96  219 1    
   193   97   98 2    
   194   97   99 am   BACKBONE|DICT|INTERRES
   195   99  100 1    
   196   99  220 1    
   197  100  101 1    
   198  100  102 1    
   199  100  221 1    
   200  101  222 1    
   201  101  223 1    
   202  101  224 1    
   203  102  103 2    
   204  102  104 am   BACKBONE|DICT|INTERRES
   205  104  105 1    
   206  104  225 1    
   207  105  106 1    
   208  105  107 1    
   209  105  226 1    
   210  106  227 1    
   211  106  228 1    
   212  106  229 1    
   213  107  108 2    
   214  107  109 am   BACKBONE|DICT|INTERRES
   215  109  110 1    
   216  109  230 1    
   217  110  111 1    
   218  110  112 1    
   219  110  231 1    
   220  111  232 1    
   221  111  233 1    
   222  111  234 1    
   223  112  113 2    
   224  112  114 am   BACKBONE|DICT|INTERRES
   225  114  115 1    
   226  114  235 1    
   227  115  116 1    
   228  115  117 1    
   229  115  236 1    
   230  116  237 1    
   231  116  238 1    
   232  116  239 1    
   233  117  118 2    
   234  117  119 am   BACKBONE|DICT|INTERRES
   235  119  120 1    
   236  119  240 1    
   237  120  121 1    
   238  120  124 1    
   239  120  241 1    
   240  121  122 am   BACKBONE|DICT|INTERRES
   241  121  123 2    
   242  122  242 1    
   243  122  243 1    
   244  124  125 1    
   245  124  244 1    
   246  124  245 1    
   247  125  126 1    
   248  126  246 1    
   249  126  247 1    
@<TRIPOS>SUBSTRUCTURE
     1 UNK         1 GROUP             0       ****    0 ROOT    
