@<TRIPOS>MOLECULE
3R540
247   249    1
SMALL
USER_CHARGES


@<TRIPOS>ATOM
      1 CA          2.6842  -16.3105  -47.6201 C.3       0 UNK        -0.1800 
      2 C           1.8672  -15.8164  -48.8126 C.2       0 UNK         0.5000 
      3 O           2.2517  -16.0673  -49.9524 O.2       0 UNK        -0.5000 
      4 N           0.7391  -15.1201  -48.6119 N.am      1 UNK        -0.5000 
      5 CA          0.1673  -14.7161  -47.3184 C.3       1 UNK         0.1400 
      6 C6         -1.3590  -14.4649  -47.4142 C.3       23 UNK        -0.0398 
      7 S7         -2.2292  -16.0081  -47.8277 S.3       23 UNK        -0.2404 
      8 C8         -3.9724  -15.5072  -47.8770 C.3       23 UNK        -0.0205 
      9 C9         -4.8598  -16.7409  -47.9536 C.ar      23 UNK        -0.0193 
     10 C10        -5.1441  -17.3384  -49.1857 C.ar      23 UNK        -0.1150 
     11 C11        -5.9204  -18.5017  -49.2533 C.ar      23 UNK        -0.0193 
     12 C12        -6.4103  -19.0650  -48.0706 C.ar      23 UNK        -0.1150 
     13 C13        -6.1382  -18.4755  -46.8328 C.ar      23 UNK        -0.0193 
     14 C14        -5.3701  -17.3080  -46.7834 C.ar      23 UNK        -0.1150 
     15 C15        -6.6837  -19.0947  -45.5526 C.3       23 UNK        -0.0205 
     16 S16        -5.3807  -19.4479  -44.3287 S.3       23 UNK        -0.2404 
     17 C17        -4.4810  -20.8431  -45.0878 C.3       23 UNK        -0.0398 
     18 CA         -3.2566  -20.4110  -45.9320 C.3       11 UNK         0.1400 
     19 N          -2.2923  -19.5942  -45.1895 N.am      11 UNK        -0.5000 
     20 C          -1.2450  -18.9734  -45.7525 C.2       10 UNK         0.5000 
     21 O          -0.9587  -19.0489  -46.9481 O.2       10 UNK        -0.5000 
     22 CA         -0.3215  -18.1916  -44.8038 C.3       10 UNK         0.1400 
     23 CB         -1.0296  -16.9454  -44.2430 C.3       10 UNK        -0.1800 
     24 N           0.1647  -19.0250  -43.7043 N.am      10 UNK        -0.5000 
     25 C           0.8707  -20.1572  -43.8450 C.2       9 UNK         0.5000 
     26 O           1.2456  -20.6048  -44.9271 O.2       9 UNK        -0.5000 
     27 CA          1.1702  -20.9528  -42.5632 C.3       9 UNK         0.1400 
     28 CB          2.4268  -20.4143  -41.8609 C.3       9 UNK        -0.1800 
     29 N           0.0403  -20.9505  -41.6344 N.am      9 UNK        -0.5000 
     30 C          -1.1401  -21.5429  -41.8706 C.2       8 UNK         0.5000 
     31 O          -1.3983  -22.1839  -42.8895 O.2       8 UNK        -0.5000 
     32 CA         -2.2318  -21.3352  -40.8051 C.3       8 UNK         0.1400 
     33 CB         -2.0297  -22.2938  -39.6221 C.3       8 UNK        -0.1800 
     34 N          -2.2731  -19.9561  -40.3150 N.am      8 UNK        -0.5000 
     35 C          -2.5827  -18.8989  -41.0793 C.2       7 UNK         0.5000 
     36 O          -2.9030  -18.9884  -42.2626 O.2       7 UNK        -0.5000 
     37 CA         -2.4494  -17.5087  -40.4294 C.3       7 UNK         0.1400 
     38 CB         -3.7246  -17.1476  -39.6535 C.3       7 UNK        -0.1800 
     39 N          -1.2874  -17.4043  -39.5408 N.am      7 UNK        -0.5000 
     40 C          -0.0179  -17.5325  -39.9466 C.2       6 UNK         0.5000 
     41 O           0.3072  -17.7323  -41.1203 O.2       6 UNK        -0.5000 
     42 CA          1.0634  -17.4849  -38.8599 C.3       6 UNK         0.1400 
     43 CB          1.0646  -18.7920  -38.0428 C.3       6 UNK        -0.1800 
     44 N           2.3531  -17.3035  -39.5147 N.am      6 UNK        -0.5000 
     45 C           3.4999  -16.9390  -38.9332 C.2       5 UNK         0.5000 
     46 O           3.6090  -16.6887  -37.7321 O.2       5 UNK        -0.5000 
     47 CA          4.7417  -16.8463  -39.8427 C.3       5 UNK         0.1400 
     48 CB          5.5628  -18.1422  -39.7510 C.3       5 UNK        -0.1800 
     49 N           4.4282  -16.5869  -41.2515 N.am      5 UNK        -0.5000 
     50 C           3.9836  -15.4169  -41.7272 C.2       4 UNK         0.5000 
     51 O           3.7521  -14.4324  -41.0205 O.2       4 UNK        -0.5000 
     52 CA          3.7333  -15.3531  -43.2466 C.3       4 UNK         0.1400 
     53 CB          2.3126  -15.8320  -43.5721 C.3       4 UNK        -0.1800 
     54 N           3.9105  -13.9997  -43.7739 N.am      4 UNK        -0.5000 
     55 C           5.0913  -13.3730  -43.8769 C.2       3 UNK         0.5000 
     56 O           6.1669  -13.9113  -43.6056 O.2       3 UNK        -0.5000 
     57 CA          5.0645  -11.9001  -44.3488 C.3       3 UNK         0.1400 
     58 CB          6.4000  -11.4483  -44.9777 C.3       3 UNK        -0.1800 
     59 N           3.9380  -11.5733  -45.2337 N.am      3 UNK        -0.5000 
     60 C           3.6761  -12.1066  -46.4350 C.2       2 UNK         0.5000 
     61 O           4.3669  -12.9701  -46.9802 O.2       2 UNK        -0.5000 
     62 CA          2.4152  -11.5881  -47.1493 C.3       2 UNK         0.1400 
     63 CB          2.7883  -10.7507  -48.3823 C.3       2 UNK        -0.1800 
     64 N           1.5638  -12.7013  -47.5620 N.am      2 UNK        -0.5000 
     65 C           0.8894  -13.4934  -46.7171 C.2       1 UNK         0.5000 
     66 O           0.8463  -13.3068  -45.5006 O.2       1 UNK        -0.5000 
     67 C          -2.5915  -21.6397  -46.5849 C.2       11 UNK         0.5000 
     68 O          -2.8941  -21.9386  -47.7390 O.2       11 UNK        -0.5000 
     69 N          -1.6791  -22.3082  -45.8615 N.am      12 UNK        -0.5000 
     70 CA         -0.9128  -23.4538  -46.3580 C.3       12 UNK         0.1400 
     71 CB         -0.1183  -24.0884  -45.2073 C.3       12 UNK        -0.1800 
     72 C           0.0198  -23.0966  -47.5298 C.2       12 UNK         0.5000 
     73 O           0.0888  -23.8547  -48.4979 O.2       12 UNK        -0.5000 
     74 N           0.6966  -21.9426  -47.4382 N.am      13 UNK        -0.5000 
     75 CA          1.5410  -21.3957  -48.4994 C.3       13 UNK         0.1400 
     76 CB          2.3252  -20.1819  -47.9774 C.3       13 UNK        -0.1800 
     77 C           0.7261  -21.0250  -49.7478 C.2       13 UNK         0.5000 
     78 O           1.1032  -21.4116  -50.8541 O.2       13 UNK        -0.5000 
     79 N          -0.3996  -20.3263  -49.5496 N.am      14 UNK        -0.5000 
     80 CA         -1.3147  -19.9328  -50.6195 C.3       14 UNK         0.1400 
     81 CB         -2.3621  -18.9630  -50.0750 C.3       14 UNK        -0.1800 
     82 C          -1.9847  -21.1262  -51.3178 C.2       14 UNK         0.5000 
     83 O          -2.1090  -21.1052  -52.5398 O.2       14 UNK        -0.5000 
     84 N          -2.3428  -22.1682  -50.5548 N.am      15 UNK        -0.5000 
     85 CA         -2.8886  -23.4257  -51.0724 C.3       15 UNK         0.1400 
     86 CB         -3.3486  -24.3080  -49.9026 C.3       15 UNK        -0.1800 
     87 C          -1.9160  -24.1999  -51.9856 C.2       15 UNK         0.5000 
     88 O          -2.3716  -25.0007  -52.8016 O.2       15 UNK        -0.5000 
     89 N          -0.6079  -23.9457  -51.8521 N.am      16 UNK        -0.5000 
     90 CA          0.4199  -24.4434  -52.7599 C.3       16 UNK         0.1400 
     91 CB          1.7181  -24.6993  -51.9771 C.3       16 UNK        -0.1800 
     92 C           0.6489  -23.4554  -53.9171 C.2       16 UNK         0.5000 
     93 O           0.5777  -23.8552  -55.0792 O.2       16 UNK        -0.5000 
     94 N           0.9251  -22.1872  -53.5817 N.am      17 UNK        -0.5000 
     95 CA          1.3547  -21.1466  -54.5188 C.3       17 UNK         0.1400 
     96 CB          1.8927  -19.9471  -53.7232 C.3       17 UNK        -0.1800 
     97 C           0.2700  -20.6863  -55.5095 C.2       17 UNK         0.5000 
     98 O           0.5854  -20.4370  -56.6738 O.2       17 UNK        -0.5000 
     99 N          -0.9752  -20.5730  -55.0351 N.am      18 UNK        -0.5000 
    100 CA        -2.1371  -20.1081  -55.7971 C.3       18 UNK         0.1400 
    101 CB        -2.7559  -18.9099  -55.0553 C.3       18 UNK        -0.1800 
    102 C         -3.1705  -21.2331  -56.0037 C.2       18 UNK         0.5000 
    103 O         -4.2774  -20.9566  -56.4734 O.2       18 UNK        -0.5000 
    104 N         -2.7908  -22.4709  -55.6487 N.am      19 UNK        -0.5000 
    105 CA        -3.5881  -23.7010  -55.6422 C.3       19 UNK         0.1400 
    106 CB        -4.0906  -24.0352  -57.0634 C.3       19 UNK        -0.1800 
    107 C         -4.7464  -23.6686  -54.6220 C.2       19 UNK         0.5000 
    108 O         -5.0140  -22.6434  -53.9909 O.2       19 UNK        -0.5000 
    109 N         -5.4484  -24.8029  -54.4925 N.am      20 UNK        -0.5000 
    110 CA        -6.6288  -24.9628  -53.6334 C.3       20 UNK         0.1400 
    111 CB        -7.0449  -26.4414  -53.6269 C.3       20 UNK        -0.1800 
    112 C         -7.8170  -24.0647  -54.0412 C.2       20 UNK         0.5000 
    113 O         -8.6884  -23.7921  -53.2152 O.2       20 UNK        -0.5000 
    114 N         -7.8100  -23.6001  -55.2983 N.am      21 UNK        -0.5000 
    115 CA        -8.7273  -22.6039  -55.8456 C.3       21 UNK         0.1400 
    116 CB        -8.5786  -22.5928  -57.3752 C.3       21 UNK        -0.1800 
    117 C         -8.5141  -21.1845  -55.2777 C.2       21 UNK         0.5000 
    118 O         -9.4306  -20.3683  -55.3825 O.2       21 UNK        -0.5000 
    119 N         -7.3364  -20.9096  -54.6921 N.am      22 UNK        -0.5000 
    120 CA        -6.9447  -19.6040  -54.1352 C.3       22 UNK         0.1400 
    121 C         -6.8150  -18.4996  -55.2301 C.2       22 UNK         0.5000 
    122 N         -6.1746  -18.7964  -56.3541 N.am      22 UNK        -0.7600 
    123 O         -7.2992  -17.3801  -55.0841 O.2       22 UNK        -0.5000 
    124 C124       -7.8322  -19.2097  -52.9186 C.3       23 UNK        -0.0398 
    125 S125       -7.0396  -18.0424  -51.7592 S.3       23 UNK        -0.2404 
    126 C126       -6.2138  -19.1717  -50.5918 C.3       23 UNK        -0.0205 
    127 H127        3.0252  -15.4790  -47.0041 H         1 UNK         0.0600 
    128 H128        3.5672  -16.8512  -47.9613 H         1 UNK         0.0600 
    129 H129        2.0992  -16.9926  -47.0048 H         1 UNK         0.0600 
    130 H130        0.2013  -14.8425  -49.4202 H         1 UNK         0.3000 
    131 H131        0.3179  -15.5322  -46.6112 H         1 UNK         0.0600 
    132 H132       -1.7550  -14.0996  -46.4646 H         1 UNK         0.0800 
    133 H133       -1.5882  -13.7065  -48.1647 H         1 UNK         0.0800 
    134 H134       -4.1451  -14.8604  -48.7383 H         1 UNK         0.0800 
    135 H135       -4.2130  -14.9219  -46.9883 H         1 UNK         0.0800 
    136 H136       -4.7462  -16.9067  -50.0932 H         1 UNK         0.1150 
    137 H137       -7.0047  -19.9669  -48.1129 H         1 UNK         0.1150 
    138 H138       -5.1488  -16.8543  -45.8275 H         1 UNK         0.1150 
    139 H139       -7.3973  -18.3990  -45.1096 H         1 UNK         0.0800 
    140 H140       -7.2387  -20.0106  -45.7612 H         1 UNK         0.0800 
    141 H141       -5.1802  -21.4201  -45.6957 H         1 UNK         0.0800 
    142 H142       -4.1634  -21.5046  -44.2795 H         1 UNK         0.0800 
    143 H143       -3.6237  -19.7881  -46.7500 H         1 UNK         0.0600 
    144 H144       -2.4681  -19.4705  -44.1966 H         1 UNK         0.3000 
    145 H145        0.5498  -17.8639  -45.3726 H         1 UNK         0.0600 
    146 H146       -0.4202  -16.4326  -43.5015 H         1 UNK         0.0600 
    147 H147       -1.2492  -16.2310  -45.0332 H         1 UNK         0.0600 
    148 H148       -1.9799  -17.1877  -43.7718 H         1 UNK         0.0600 
    149 H149       -0.0504  -18.7051  -42.7652 H         1 UNK         0.3000 
    150 H150        1.3631  -21.9882  -42.8510 H         1 UNK         0.0600 
    151 H151        3.2945  -20.4780  -42.5186 H         1 UNK         0.0600 
    152 H152        2.6568  -20.9895  -40.9639 H         1 UNK         0.0600 
    153 H153        2.3162  -19.3707  -41.5709 H         1 UNK         0.0600 
    154 H154        0.1449  -20.4037  -40.7941 H         1 UNK         0.3000 
    155 H155       -3.1955  -21.5595  -41.2677 H         1 UNK         0.0600 
    156 H156       -1.0938  -22.0980  -39.0973 H         1 UNK         0.0600 
    157 H157       -2.0060  -23.3305  -39.9606 H         1 UNK         0.0600 
    158 H158       -2.8432  -22.2070  -38.9016 H         1 UNK         0.0600 
    159 H159       -2.0194  -19.8011  -39.3509 H         1 UNK         0.3000 
    160 H160       -2.3222  -16.7804  -41.2332 H         1 UNK         0.0600 
    161 H161       -4.6020  -17.2025  -40.2997 H         1 UNK         0.0600 
    162 H162       -3.6739  -16.1312  -39.2626 H         1 UNK         0.0600 
    163 H163       -3.8922  -17.8233  -38.8140 H         1 UNK         0.0600 
    164 H164       -1.4793  -17.2446  -38.5622 H         1 UNK         0.3000 
    165 H165        0.8664  -16.6321  -38.2073 H         1 UNK         0.0600 
    166 H166        1.8112  -18.7650  -37.2492 H         1 UNK         0.0600 
    167 H167        0.0993  -18.9626  -37.5650 H         1 UNK         0.0600 
    168 H168        1.2795  -19.6575  -38.6710 H         1 UNK         0.0600 
    169 H169        2.3217  -17.4368  -40.5172 H         1 UNK         0.3000 
    170 H170        5.3587  -16.0247  -39.4726 H         1 UNK         0.0600 
    171 H171        5.8419  -18.3560  -38.7183 H         1 UNK         0.0600 
    172 H172        5.0026  -19.0009  -40.1235 H         1 UNK         0.0600 
    173 H173        6.4859  -18.0668  -40.3259 H         1 UNK         0.0600 
    174 H174        4.5949  -17.3475  -41.8942 H         1 UNK         0.3000 
    175 H175        4.4456  -16.0117  -43.7483 H         1 UNK         0.0600 
    176 H176        2.1482  -16.8495  -43.2154 H         1 UNK         0.0600 
    177 H177        2.1298  -15.8311  -44.6458 H         1 UNK         0.0600 
    178 H178        1.5622  -15.1934  -43.1041 H         1 UNK         0.0600 
    179 H179        3.0692  -13.4889  -44.0014 H         1 UNK         0.3000 
    180 H180        4.9164  -11.3072  -43.4452 H         1 UNK         0.0600 
    181 H181        6.6584  -12.0452  -45.8528 H         1 UNK         0.0600 
    182 H182        7.2207  -11.5417  -44.2655 H         1 UNK         0.0600 
    183 H183        6.3581  -10.4033  -45.2847 H         1 UNK         0.0600 
    184 H184        3.2944  -10.8840  -44.8697 H         1 UNK         0.3000 
    185 H185        1.8459  -10.9548  -46.4654 H         1 UNK         0.0600 
    186 H186        3.4135   -9.9021  -48.1019 H         1 UNK         0.0600 
    187 H187        3.3418  -11.3377  -49.1165 H         1 UNK         0.0600 
    188 H188        1.8998  -10.3518  -48.8721 H         1 UNK         0.0600 
    189 H189        1.5904  -12.9537  -48.5392 H         1 UNK         0.3000 
    190 H190       -1.4991  -22.0242  -44.9035 H         1 UNK         0.3000 
    191 H191       -1.6272  -24.1952  -46.7218 H         1 UNK         0.0600 
    192 H192        0.4508  -24.9518  -45.5543 H         1 UNK         0.0600 
    193 H193        0.5885  -23.3829  -44.7701 H         1 UNK         0.0600 
    194 H194       -0.7813  -24.4343  -44.4142 H         1 UNK         0.0600 
    195 H195        0.6256  -21.3911  -46.5874 H         1 UNK         0.3000 
    196 H196        2.2602  -22.1651  -48.7880 H         1 UNK         0.0600 
    197 H197        2.9506  -19.7520  -48.7608 H         1 UNK         0.0600 
    198 H198        2.9814  -20.4625  -47.1536 H         1 UNK         0.0600 
    199 H199        1.6599  -19.3958  -47.6198 H         1 UNK         0.0600 
    200 H200       -0.6359  -20.0236  -48.6076 H         1 UNK         0.3000 
    201 H201       -0.7308  -19.4006  -51.3731 H         1 UNK         0.0600 
    202 H202       -1.8818  -18.0659  -49.6918 H         1 UNK         0.0600 
    203 H203       -2.9471  -19.4062  -49.2681 H         1 UNK         0.0600 
    204 H204       -3.0494  -18.6502  -50.8611 H         1 UNK         0.0600 
    205 H205       -2.2670  -22.0891  -49.5440 H         1 UNK         0.3000 
    206 H206       -3.7665  -23.1784  -51.6710 H         1 UNK         0.0600 
    207 H207       -2.5231  -24.5464  -49.2315 H         1 UNK         0.0600 
    208 H208       -4.1252  -23.8140  -49.3187 H         1 UNK         0.0600 
    209 H209       -3.7647  -25.2501  -50.2618 H         1 UNK         0.0600 
    210 H210       -0.3135  -23.2796  -51.1499 H         1 UNK         0.3000 
    211 H211        0.1046  -25.3967  -53.1895 H         1 UNK         0.0600 
    212 H212        2.1004  -23.7940  -51.5056 H         1 UNK         0.0600 
    213 H213        2.4999  -25.0819  -52.6343 H         1 UNK         0.0600 
    214 H214        1.5615  -25.4395  -51.1921 H         1 UNK         0.0600 
    215 H215        0.9588  -21.9382  -52.5949 H         1 UNK         0.3000 
    216 H216        2.1798  -21.5543  -55.1066 H         1 UNK         0.0600 
    217 H217        2.2545  -19.1638  -54.3904 H         1 UNK         0.0600 
    218 H218        2.7255  -20.2397  -53.0834 H         1 UNK         0.0600 
    219 H219        1.1223  -19.5087  -53.0880 H         1 UNK         0.0600 
    220 H220       -1.1705  -20.8159  -54.0646 H         1 UNK         0.3000 
    221 H221       -1.8339  -19.7708  -56.7899 H         1 UNK         0.0600 
    222 H222       -2.0052  -18.1517  -54.8326 H         1 UNK         0.0600 
    223 H223       -3.2181  -19.2110  -54.1145 H         1 UNK         0.0600 
    224 H224       -3.5243  -18.4304  -55.6607 H         1 UNK         0.0600 
    225 H225       -1.8629  -22.5593  -55.2601 H         1 UNK         0.3000 
    226 H226       -2.9083  -24.4953  -55.3332 H         1 UNK         0.0600 
    227 H227       -4.5060  -25.0421  -57.1106 H         1 UNK         0.0600 
    228 H228       -4.8693  -23.3477  -57.3952 H         1 UNK         0.0600 
    229 H229       -3.2773  -23.9924  -57.7879 H         1 UNK         0.0600 
    230 H230       -5.1682  -25.6156  -55.0224 H         1 UNK         0.3000 
    231 H231       -6.3426  -24.6819  -52.6176 H         1 UNK         0.0600 
    232 H232       -6.2376  -27.0771  -53.2626 H         1 UNK         0.0600 
    233 H233       -7.3217  -26.7857  -54.6242 H         1 UNK         0.0600 
    234 H234       -7.9035  -26.6032  -52.9737 H         1 UNK         0.0600 
    235 H235       -7.0554  -23.8917  -55.9009 H         1 UNK         0.3000 
    236 H236       -9.7471  -22.9075  -55.6001 H         1 UNK         0.0600 
    237 H237       -8.7912  -23.5737  -57.8008 H         1 UNK         0.0600 
    238 H238       -9.2727  -21.8852  -57.8306 H         1 UNK         0.0600 
    239 H239       -7.5710  -22.3045  -57.6783 H         1 UNK         0.0600 
    240 H240       -6.6237  -21.6304  -54.6409 H         1 UNK         0.3000 
    241 H241       -5.9316  -19.7540  -53.7596 H         1 UNK         0.0600 
    242 H242       -6.0955  -18.0993  -57.0765 H         1 UNK         0.3800 
    243 H243       -5.6940  -19.6868  -56.4599 H         1 UNK         0.3800 
    244 H244       -8.1174  -20.1018  -52.3597 H         1 UNK         0.0800 
    245 H245       -8.7725  -18.7719  -53.2571 H         1 UNK         0.0800 
    246 H246       -6.8385  -20.0525  -50.4375 H         1 UNK         0.0800 
    247 H247       -5.2838  -19.5307  -51.0336 H         1 UNK         0.0800 
@<TRIPOS>BOND
     1    1    2 1    
     2    1  127 1    
     3    1  128 1    
     4    1  129 1    
     5    2    3 2    
     6    2    4 am   BACKBONE|DICT|INTERRES
     7    4    5 1    
     8    4  130 1    
     9    5    6 1    
    10    5   65 1    
    11    5  131 1    
    12    6    7 1    
    13    6  132 1    
    14    6  133 1    
    15    7    8 1    
    16    8    9 1    
    17    8  134 1    
    18    8  135 1    
    19    9   10 ar   
    20    9   14 ar   
    21   10   11 ar   
    22   10  136 1    
    23   11   12 ar   
    24   11  126 1    
    25   12   13 ar   
    26   12  137 1    
    27   13   14 ar   
    28   13   15 1    
    29   14  138 1    
    30   15   16 1    
    31   15  139 1    
    32   15  140 1    
    33   16   17 1    
    34   17   18 1    
    35   17  141 1    
    36   17  142 1    
    37   18   19 1    
    38   18   67 1    
    39   18  143 1    
    40   19   20 am   BACKBONE|DICT|INTERRES
    41   19  144 1    
    42   20   21 2    
    43   20   22 1    
    44   22   23 1    
    45   22   24 1    
    46   22  145 1    
    47   23  146 1    
    48   23  147 1    
    49   23  148 1    
    50   24   25 am   BACKBONE|DICT|INTERRES
    51   24  149 1    
    52   25   26 2    
    53   25   27 1    
    54   27   28 1    
    55   27   29 1    
    56   27  150 1    
    57   28  151 1    
    58   28  152 1    
    59   28  153 1    
    60   29   30 am   BACKBONE|DICT|INTERRES
    61   29  154 1    
    62   30   31 2    
    63   30   32 1    
    64   32   33 1    
    65   32   34 1    
    66   32  155 1    
    67   33  156 1    
    68   33  157 1    
    69   33  158 1    
    70   34   35 am   BACKBONE|DICT|INTERRES
    71   34  159 1    
    72   35   36 2    
    73   35   37 1    
    74   37   38 1    
    75   37   39 1    
    76   37  160 1    
    77   38  161 1    
    78   38  162 1    
    79   38  163 1    
    80   39   40 am   BACKBONE|DICT|INTERRES
    81   39  164 1    
    82   40   41 2    
    83   40   42 1    
    84   42   43 1    
    85   42   44 1    
    86   42  165 1    
    87   43  166 1    
    88   43  167 1    
    89   43  168 1    
    90   44   45 am   BACKBONE|DICT|INTERRES
    91   44  169 1    
    92   45   46 2    
    93   45   47 1    
    94   47   48 1    
    95   47   49 1    
    96   47  170 1    
    97   48  171 1    
    98   48  172 1    
    99   48  173 1    
   100   49   50 am   BACKBONE|DICT|INTERRES
   101   49  174 1    
   102   50   51 2    
   103   50   52 1    
   104   52   53 1    
   105   52   54 1    
   106   52  175 1    
   107   53  176 1    
   108   53  177 1    
   109   53  178 1    
   110   54   55 am   BACKBONE|DICT|INTERRES
   111   54  179 1    
   112   55   56 2    
   113   55   57 1    
   114   57   58 1    
   115   57   59 1    
   116   57  180 1    
   117   58  181 1    
   118   58  182 1    
   119   58  183 1    
   120   59   60 am   BACKBONE|DICT|INTERRES
   121   59  184 1    
   122   60   61 2    
   123   60   62 1    
   124   62   63 1    
   125   62   64 1    
   126   62  185 1    
   127   63  186 1    
   128   63  187 1    
   129   63  188 1    
   130   64   65 am   BACKBONE|DICT|INTERRES
   131   64  189 1    
   132   65   66 2    
   133   67   68 2    
   134   67   69 am   BACKBONE|DICT|INTERRES
   135   69   70 1    
   136   69  190 1    
   137   70   71 1    
   138   70   72 1    
   139   70  191 1    
   140   71  192 1    
   141   71  193 1    
   142   71  194 1    
   143   72   73 2    
   144   72   74 am   BACKBONE|DICT|INTERRES
   145   74   75 1    
   146   74  195 1    
   147   75   76 1    
   148   75   77 1    
   149   75  196 1    
   150   76  197 1    
   151   76  198 1    
   152   76  199 1    
   153   77   78 2    
   154   77   79 am   BACKBONE|DICT|INTERRES
   155   79   80 1    
   156   79  200 1    
   157   80   81 1    
   158   80   82 1    
   159   80  201 1    
   160   81  202 1    
   161   81  203 1    
   162   81  204 1    
   163   82   83 2    
   164   82   84 am   BACKBONE|DICT|INTERRES
   165   84   85 1    
   166   84  205 1    
   167   85   86 1    
   168   85   87 1    
   169   85  206 1    
   170   86  207 1    
   171   86  208 1    
   172   86  209 1    
   173   87   88 2    
   174   87   89 am   BACKBONE|DICT|INTERRES
   175   89   90 1    
   176   89  210 1    
   177   90   91 1    
   178   90   92 1    
   179   90  211 1    
   180   91  212 1    
   181   91  213 1    
   182   91  214 1    
   183   92   93 2    
   184   92   94 am   BACKBONE|DICT|INTERRES
   185   94   95 1    
   186   94  215 1    
   187   95   96 1    
   188   95   97 1    
   189   95  216 1    
   190   96  217 1    
   191   96  218 1    
   192   96  219 1    
   193   97   98 2    
   194   97   99 am   BACKBONE|DICT|INTERRES
   195   99  100 1    
   196   99  220 1    
   197  100  101 1    
   198  100  102 1    
   199  100  221 1    
   200  101  222 1    
   201  101  223 1    
   202  101  224 1    
   203  102  103 2    
   204  102  104 am   BACKBONE|DICT|INTERRES
   205  104  105 1    
   206  104  225 1    
   207  105  106 1    
   208  105  107 1    
   209  105  226 1    
   210  106  227 1    
   211  106  228 1    
   212  106  229 1    
   213  107  108 2    
   214  107  109 am   BACKBONE|DICT|INTERRES
   215  109  110 1    
   216  109  230 1    
   217  110  111 1    
   218  110  112 1    
   219  110  231 1    
   220  111  232 1    
   221  111  233 1    
   222  111  234 1    
   223  112  113 2    
   224  112  114 am   BACKBONE|DICT|INTERRES
   225  114  115 1    
   226  114  235 1    
   227  115  116 1    
   228  115  117 1    
   229  115  236 1    
   230  116  237 1    
   231  116  238 1    
   232  116  239 1    
   233  117  118 2    
   234  117  119 am   BACKBONE|DICT|INTERRES
   235  119  120 1    
   236  119  240 1    
   237  120  121 1    
   238  120  124 1    
   239  120  241 1    
   240  121  122 am   BACKBONE|DICT|INTERRES
   241  121  123 2    
   242  122  242 1    
   243  122  243 1    
   244  124  125 1    
   245  124  244 1    
   246  124  245 1    
   247  125  126 1    
   248  126  246 1    
   249  126  247 1    
@<TRIPOS>SUBSTRUCTURE
     1 UNK         1 GROUP             0       ****    0 ROOT    
