@<TRIPOS>MOLECULE
3R540
247   249    1
SMALL
USER_CHARGES


@<TRIPOS>ATOM
      1 CA          1.6518  -18.6854  -52.7785 C.3       0 UNK        -0.1800 
      2 C           2.1891  -17.4678  -52.0386 C.2       0 UNK         0.5000 
      3 O           2.8745  -16.6383  -52.6374 O.2       0 UNK        -0.5000 
      4 N           1.8863  -17.3621  -50.7396 N.am      1 UNK        -0.5000 
      5 CA          2.1870  -16.2055  -49.8886 C.3       1 UNK         0.1400 
      6 C6          2.0592  -16.5608  -48.3843 C.3       23 UNK        -0.0398 
      7 S7          0.4670  -17.3336  -47.9279 S.3       23 UNK        -0.2404 
      8 C8         -0.3890  -15.9391  -47.1422 C.3       23 UNK        -0.0205 
      9 C9         -1.8905  -16.1097  -47.2645 C.ar      23 UNK        -0.0193 
     10 C10        -2.5475  -15.6588  -48.4100 C.ar      23 UNK        -0.1150 
     11 C11        -3.9217  -15.8564  -48.5698 C.ar      23 UNK        -0.0193 
     12 C12        -4.6415  -16.4866  -47.5492 C.ar      23 UNK        -0.1150 
     13 C13        -3.9985  -16.9182  -46.3833 C.ar      23 UNK        -0.0193 
     14 C14        -2.6205  -16.7268  -46.2479 C.ar      23 UNK        -0.1150 
     15 C15        -4.7990  -17.5609  -45.2601 C.3       23 UNK        -0.0205 
     16 S16        -4.9230  -19.3687  -45.4392 S.3       23 UNK        -0.2404 
     17 C17        -3.2931  -19.9383  -44.8483 C.3       23 UNK        -0.0398 
     18 CA         -2.5207  -20.7745  -45.9015 C.3       11 UNK         0.1400 
     19 N          -1.1015  -20.8610  -45.5691 N.am      11 UNK        -0.5000 
     20 C          -0.1254  -21.1266  -46.4458 C.2       10 UNK         0.5000 
     21 O          -0.3141  -21.2772  -47.6517 O.2       10 UNK        -0.5000 
     22 CA          1.2957  -21.2851  -45.8657 C.3       10 UNK         0.1400 
     23 CB          2.0102  -19.9303  -45.8059 C.3       10 UNK        -0.1800 
     24 N           1.2941  -21.8823  -44.5289 N.am      10 UNK        -0.5000 
     25 C           0.9314  -23.1491  -44.2808 C.2       9 UNK         0.5000 
     26 O           0.6320  -23.9507  -45.1633 O.2       9 UNK        -0.5000 
     27 CA          0.8307  -23.5900  -42.8072 C.3       9 UNK         0.1400 
     28 CB          2.1392  -24.2552  -42.3571 C.3       9 UNK        -0.1800 
     29 N           0.5083  -22.4996  -41.8866 N.am      9 UNK        -0.5000 
     30 C          -0.5759  -21.7132  -41.9475 C.2       8 UNK         0.5000 
     31 O          -1.4852  -21.8746  -42.7623 O.2       8 UNK        -0.5000 
     32 CA         -0.6339  -20.5189  -40.9737 C.3       8 UNK         0.1400 
     33 CB         -1.6580  -20.7876  -39.8613 C.3       8 UNK        -0.1800 
     34 N           0.6585  -20.1791  -40.3651 N.am      8 UNK        -0.5000 
     35 C           1.7341  -19.7291  -41.0259 C.2       7 UNK         0.5000 
     36 O           1.7672  -19.5450  -42.2466 O.2       7 UNK        -0.5000 
     37 CA          2.9989  -19.5190  -40.1842 C.3       7 UNK         0.1400 
     38 CB          3.7008  -20.8639  -39.9163 C.3       7 UNK        -0.1800 
     39 N           3.9000  -18.6214  -40.8955 N.am      7 UNK        -0.5000 
     40 C           4.8800  -17.8991  -40.3399 C.2       6 UNK         0.5000 
     41 O           5.1519  -17.9282  -39.1388 O.2       6 UNK        -0.5000 
     42 CA          5.6995  -16.9879  -41.2760 C.3       6 UNK         0.1400 
     43 CB          7.0110  -17.6788  -41.6813 C.3       6 UNK        -0.1800 
     44 N           4.9775  -16.5913  -42.4880 N.am      6 UNK        -0.5000 
     45 C           3.9485  -15.7356  -42.5115 C.2       5 UNK         0.5000 
     46 O           3.4997  -15.1692  -41.5104 O.2       5 UNK        -0.5000 
     47 CA          3.3079  -15.4863  -43.8832 C.3       5 UNK         0.1400 
     48 CB          2.4751  -16.6997  -44.3315 C.3       5 UNK        -0.1800 
     49 N           2.4649  -14.2999  -43.7982 N.am      5 UNK        -0.5000 
     50 C           2.0852  -13.5397  -44.8266 C.2       4 UNK         0.5000 
     51 O           2.3800  -13.7725  -46.0028 O.2       4 UNK        -0.5000 
     52 CA          1.2618  -12.2872  -44.4769 C.3       4 UNK         0.1400 
     53 CB          2.1874  -11.1257  -44.0826 C.3       4 UNK        -0.1800 
     54 N           0.4617  -11.8801  -45.6280 N.am      4 UNK        -0.5000 
     55 C          -0.6955  -12.4523  -45.9841 C.2       3 UNK         0.5000 
     56 O          -1.3184  -13.2461  -45.2802 O.2       3 UNK        -0.5000 
     57 CA         -1.1918  -12.1224  -47.3958 C.3       3 UNK         0.1400 
     58 CB         -1.7394  -10.6811  -47.4535 C.3       3 UNK        -0.1800 
     59 N          -0.0830  -12.3299  -48.3300 N.am      3 UNK        -0.5000 
     60 C          -0.1340  -12.2317  -49.6625 C.2       2 UNK         0.5000 
     61 O          -1.1477  -11.9442  -50.2987 O.2       2 UNK        -0.5000 
     62 CA          1.1831  -12.5136  -50.4094 C.3       2 UNK         0.1400 
     63 CB          2.1751  -11.3536  -50.2254 C.3       2 UNK        -0.1800 
     64 N           1.8232  -13.7698  -50.0057 N.am      2 UNK        -0.5000 
     65 C           1.3253  -14.9825  -50.2842 C.2       1 UNK         0.5000 
     66 O           0.2403  -15.1515  -50.8424 O.2       1 UNK        -0.5000 
     67 C          -3.1168  -22.1894  -46.0424 C.2       11 UNK         0.5000 
     68 O          -3.7215  -22.5000  -47.0692 O.2       11 UNK        -0.5000 
     69 N          -2.9471  -23.0017  -44.9893 N.am      12 UNK        -0.5000 
     70 CA         -3.6431  -24.2700  -44.7971 C.3       12 UNK         0.1400 
     71 CB         -3.8044  -24.5247  -43.2883 C.3       12 UNK        -0.1800 
     72 C          -2.9540  -25.4545  -45.4927 C.2       12 UNK         0.5000 
     73 O          -3.5398  -26.0500  -46.3960 O.2       12 UNK        -0.5000 
     74 N          -1.7416  -25.8002  -45.0393 N.am      13 UNK        -0.5000 
     75 CA         -1.0133  -27.0054  -45.4483 C.3       13 UNK         0.1400 
     76 CB          0.1199  -27.2905  -44.4500 C.3       13 UNK        -0.1800 
     77 C          -0.4760  -26.9241  -46.8865 C.2       13 UNK         0.5000 
     78 O          -0.5992  -27.8917  -47.6381 O.2       13 UNK        -0.5000 
     79 N           0.0751  -25.7597  -47.2534 N.am      14 UNK        -0.5000 
     80 CA          0.4977  -25.4383  -48.6195 C.3       14 UNK         0.1400 
     81 CB          1.5098  -24.2860  -48.5794 C.3       14 UNK        -0.1800 
     82 C          -0.6917  -25.1005  -49.5428 C.2       14 UNK         0.5000 
     83 O          -0.5258  -25.1046  -50.7628 O.2       14 UNK        -0.5000 
     84 N          -1.8650  -24.8460  -48.9430 N.am      15 UNK        -0.5000 
     85 CA         -3.1792  -24.6858  -49.5690 C.3       15 UNK         0.1400 
     86 CB         -3.6086  -26.0053  -50.2454 C.3       15 UNK        -0.1800 
     87 C          -3.2899  -23.4705  -50.5107 C.2       15 UNK         0.5000 
     88 O          -4.0817  -23.5113  -51.4538 O.2       15 UNK        -0.5000 
     89 N          -2.5224  -22.4014  -50.2430 N.am      16 UNK        -0.5000 
     90 CA         -2.4512  -21.2018  -51.0849 C.3       16 UNK         0.1400 
     91 CB         -1.4010  -20.2276  -50.5312 C.3       16 UNK        -0.1800 
     92 C          -3.7984  -20.4812  -51.2632 C.2       16 UNK         0.5000 
     93 O          -4.0737  -19.9844  -52.3551 O.2       16 UNK        -0.5000 
     94 N          -4.6209  -20.4695  -50.2063 N.am      17 UNK        -0.5000 
     95 CA         -5.9597  -19.8823  -50.2194 C.3       17 UNK         0.1400 
     96 CB         -6.4303  -19.6691  -48.7756 C.3       17 UNK        -0.1800 
     97 C          -6.9752  -20.7365  -50.9972 C.2       17 UNK         0.5000 
     98 O          -7.8287  -20.1821  -51.6893 O.2       17 UNK        -0.5000 
     99 N          -6.8610  -22.0666  -50.8794 N.am      18 UNK        -0.5000 
    100 CA        -7.7368  -23.0345  -51.5424 C.3       18 UNK         0.1400 
    101 CB        -7.6150  -24.3961  -50.8434 C.3       18 UNK        -0.1800 
    102 C         -7.4296  -23.1583  -53.0443 C.2       18 UNK         0.5000 
    103 O         -8.3552  -23.2369  -53.8526 O.2       18 UNK        -0.5000 
    104 N         -6.1356  -23.1398  -53.3904 N.am      19 UNK        -0.5000 
    105 CA        -5.6371  -23.1285  -54.7664 C.3       19 UNK         0.1400 
    106 CB        -4.1523  -23.5266  -54.7518 C.3       19 UNK        -0.1800 
    107 C         -5.8101  -21.7629  -55.4606 C.2       19 UNK         0.5000 
    108 O         -5.7162  -21.6969  -56.6866 O.2       19 UNK        -0.5000 
    109 N         -6.0222  -20.7042  -54.6631 N.am      20 UNK        -0.5000 
    110 CA        -6.0709  -19.2875  -55.0408 C.3       20 UNK         0.1400 
    111 CB        -7.2581  -18.9970  -55.9814 C.3       20 UNK        -0.1800 
    112 C         -4.7229  -18.7702  -55.5881 C.2       20 UNK         0.5000 
    113 O         -4.6907  -17.8082  -56.3577 O.2       20 UNK        -0.5000 
    114 N         -3.6236  -19.3984  -55.1477 N.am      21 UNK        -0.5000 
    115 CA        -2.2437  -19.0567  -55.4935 C.3       21 UNK         0.1400 
    116 CB        -1.3097  -20.1627  -54.9793 C.3       21 UNK        -0.1800 
    117 C         -1.8187  -17.6876  -54.9347 C.2       21 UNK         0.5000 
    118 O         -0.9603  -17.0309  -55.5243 O.2       21 UNK        -0.5000 
    119 N         -2.4506  -17.2753  -53.8291 N.am      22 UNK        -0.5000 
    120 CA        -2.3383  -15.9305  -53.2536 C.3       22 UNK         0.1400 
    121 C         -3.1338  -14.8236  -54.0129 C.2       22 UNK         0.5000 
    122 N         -3.9155  -15.1353  -55.0419 N.am      22 UNK        -0.7600 
    123 O         -3.0262  -13.6487  -53.6739 O.2       22 UNK        -0.5000 
    124 C124       -2.6324  -15.9417  -51.7350 C.3       23 UNK        -0.0398 
    125 S125       -4.3237  -16.4510  -51.2660 S.3       23 UNK        -0.2404 
    126 C126       -4.6306  -15.3697  -49.8289 C.3       23 UNK        -0.0205 
    127 H127        2.4688  -19.2305  -53.2510 H         1 UNK         0.0600 
    128 H128        0.9555  -18.3709  -53.5556 H         1 UNK         0.0600 
    129 H129        1.1297  -19.3696  -52.1099 H         1 UNK         0.0600 
    130 H130        1.2914  -18.0552  -50.3086 H         1 UNK         0.3000 
    131 H131        3.2287  -15.9324  -50.0705 H         1 UNK         0.0600 
    132 H132        2.8449  -17.2699  -48.1211 H         1 UNK         0.0800 
    133 H133        2.2456  -15.6871  -47.7598 H         1 UNK         0.0800 
    134 H134       -0.0928  -15.8620  -46.0953 H         1 UNK         0.0800 
    135 H135       -0.0904  -15.0063  -47.6179 H         1 UNK         0.0800 
    136 H136       -1.9745  -15.1644  -49.1794 H         1 UNK         0.1150 
    137 H137       -5.7070  -16.6330  -47.6564 H         1 UNK         0.1150 
    138 H138       -2.1106  -17.0527  -45.3535 H         1 UNK         0.1150 
    139 H139       -4.3654  -17.3122  -44.2902 H         1 UNK         0.0800 
    140 H140       -5.8078  -17.1456  -45.2504 H         1 UNK         0.0800 
    141 H141       -3.4427  -20.4949  -43.9220 H         1 UNK         0.0800 
    142 H142       -2.6992  -19.0721  -44.5617 H         1 UNK         0.0800 
    143 H143       -2.6099  -20.2694  -46.8666 H         1 UNK         0.0600 
    144 H144       -0.8706  -20.8335  -44.5857 H         1 UNK         0.3000 
    145 H145        1.8652  -21.9389  -46.5284 H         1 UNK         0.0600 
    146 H146        3.0011  -20.0212  -45.3609 H         1 UNK         0.0600 
    147 H147        2.1408  -19.5179  -46.8063 H         1 UNK         0.0600 
    148 H148        1.4406  -19.2082  -45.2201 H         1 UNK         0.0600 
    149 H149        1.5182  -21.2701  -43.7541 H         1 UNK         0.3000 
    150 H150        0.0287  -24.3271  -42.7388 H         1 UNK         0.0600 
    151 H151        2.9721  -23.5509  -42.3662 H         1 UNK         0.0600 
    152 H152        2.4042  -25.0847  -43.0140 H         1 UNK         0.0600 
    153 H153        2.0505  -24.6581  -41.3480 H         1 UNK         0.0600 
    154 H154        1.1968  -22.2922  -41.1794 H         1 UNK         0.3000 
    155 H155       -0.9709  -19.6538  -41.5484 H         1 UNK         0.0600 
    156 H156       -1.3635  -21.6334  -39.2388 H         1 UNK         0.0600 
    157 H157       -2.6400  -21.0140  -40.2794 H         1 UNK         0.0600 
    158 H158       -1.7758  -19.9180  -39.2145 H         1 UNK         0.0600 
    159 H159        0.7248  -20.3142  -39.3662 H         1 UNK         0.3000 
    160 H160        2.7080  -19.0589  -39.2374 H         1 UNK         0.0600 
    161 H161        4.0087  -21.3469  -40.8447 H         1 UNK         0.0600 
    162 H162        3.0440  -21.5550  -39.3870 H         1 UNK         0.0600 
    163 H163        4.5897  -20.7323  -39.2992 H         1 UNK         0.0600 
    164 H164        3.6976  -18.5222  -41.8820 H         1 UNK         0.3000 
    165 H165        5.9502  -16.0842  -40.7163 H         1 UNK         0.0600 
    166 H166        7.6367  -17.0181  -42.2816 H         1 UNK         0.0600 
    167 H167        7.5911  -17.9626  -40.8021 H         1 UNK         0.0600 
    168 H168        6.8266  -18.5855  -42.2590 H         1 UNK         0.0600 
    169 H169        5.2875  -17.0123  -43.3521 H         1 UNK         0.3000 
    170 H170        4.1097  -15.3063  -44.6027 H         1 UNK         0.0600 
    171 H171        1.6350  -16.8834  -43.6605 H         1 UNK         0.0600 
    172 H172        2.0789  -16.5584  -45.3355 H         1 UNK         0.0600 
    173 H173        3.0819  -17.6049  -44.3525 H         1 UNK         0.0600 
    174 H174        2.2401  -14.0287  -42.8483 H         1 UNK         0.3000 
    175 H175        0.6026  -12.5156  -43.6365 H         1 UNK         0.0600 
    176 H176        2.8793  -10.8701  -44.8863 H         1 UNK         0.0600 
    177 H177        1.6144  -10.2316  -43.8361 H         1 UNK         0.0600 
    178 H178        2.7835  -11.3802  -43.2053 H         1 UNK         0.0600 
    179 H179        0.9026  -11.2366  -46.2682 H         1 UNK         0.3000 
    180 H180       -1.9934  -12.8197  -47.6470 H         1 UNK         0.0600 
    181 H181       -0.9482   -9.9419  -47.3242 H         1 UNK         0.0600 
    182 H182       -2.4777  -10.5135  -46.6683 H         1 UNK         0.0600 
    183 H183       -2.2354  -10.4763  -48.4017 H         1 UNK         0.0600 
    184 H184        0.7859  -12.6301  -47.9073 H         1 UNK         0.3000 
    185 H185        0.9473  -12.5838  -51.4737 H         1 UNK         0.0600 
    186 H186        1.7245  -10.4045  -50.5189 H         1 UNK         0.0600 
    187 H187        2.4995  -11.2563  -49.1887 H         1 UNK         0.0600 
    188 H188        3.0629  -11.4939  -50.8422 H         1 UNK         0.0600 
    189 H189        2.7169  -13.6931  -49.5416 H         1 UNK         0.3000 
    190 H190       -2.4141  -22.6553  -44.1955 H         1 UNK         0.3000 
    191 H191       -4.6466  -24.1839  -45.2204 H         1 UNK         0.0600 
    192 H192       -4.4151  -23.7493  -42.8253 H         1 UNK         0.0600 
    193 H193       -4.2973  -25.4797  -43.1015 H         1 UNK         0.0600 
    194 H194       -2.8450  -24.5408  -42.7698 H         1 UNK         0.0600 
    195 H195       -1.2953  -25.2168  -44.3490 H         1 UNK         0.3000 
    196 H196       -1.7104  -27.8452  -45.4059 H         1 UNK         0.0600 
    197 H197        0.6278  -28.2235  -44.6971 H         1 UNK         0.0600 
    198 H198       -0.2628  -27.3890  -43.4341 H         1 UNK         0.0600 
    199 H199        0.8722  -26.5022  -44.4511 H         1 UNK         0.0600 
    200 H200        0.1882  -25.0321  -46.5487 H         1 UNK         0.3000 
    201 H201        1.0008  -26.3109  -49.0412 H         1 UNK         0.0600 
    202 H202        1.9054  -24.0780  -49.5742 H         1 UNK         0.0600 
    203 H203        2.3551  -24.5215  -47.9326 H         1 UNK         0.0600 
    204 H204        1.0508  -23.3712  -48.2133 H         1 UNK         0.0600 
    205 H205       -1.8766  -24.8702  -47.9335 H         1 UNK         0.3000 
    206 H206       -3.8824  -24.5005  -48.7571 H         1 UNK         0.0600 
    207 H207       -3.5239  -26.8451  -49.5554 H         1 UNK         0.0600 
    208 H208       -4.6464  -25.9644  -50.5733 H         1 UNK         0.0600 
    209 H209       -2.9999  -26.2276  -51.1223 H         1 UNK         0.0600 
    210 H210       -1.9152  -22.4288  -49.4349 H         1 UNK         0.3000 
    211 H211       -2.1243  -21.5284  -52.0735 H         1 UNK         0.0600 
    212 H212       -0.4213  -20.6999  -50.4587 H         1 UNK         0.0600 
    213 H213       -1.6729  -19.8642  -49.5391 H         1 UNK         0.0600 
    214 H214       -1.2970  -19.3557  -51.1787 H         1 UNK         0.0600 
    215 H215       -4.3170  -20.9113  -49.3501 H         1 UNK         0.3000 
    216 H216       -5.9066  -18.9065  -50.7055 H         1 UNK         0.0600 
    217 H217       -7.4217  -19.2153  -48.7474 H         1 UNK         0.0600 
    218 H218       -5.7529  -19.0017  -48.2466 H         1 UNK         0.0600 
    219 H219       -6.4779  -20.6067  -48.2202 H         1 UNK         0.0600 
    220 H220       -6.0989  -22.4409  -50.3340 H         1 UNK         0.3000 
    221 H221       -8.7694  -22.6939  -51.4391 H         1 UNK         0.0600 
    222 H222       -6.6011  -24.7888  -50.9061 H         1 UNK         0.0600 
    223 H223       -7.8837  -24.3249  -49.7894 H         1 UNK         0.0600 
    224 H224       -8.2801  -25.1299  -51.3004 H         1 UNK         0.0600 
    225 H225       -5.4304  -23.1388  -52.6556 H         1 UNK         0.3000 
    226 H226       -6.1895  -23.8709  -55.3461 H         1 UNK         0.0600 
    227 H227       -3.7465  -23.5693  -55.7633 H         1 UNK         0.0600 
    228 H228       -3.5512  -22.8134  -54.1859 H         1 UNK         0.0600 
    229 H229       -4.0121  -24.5102  -54.3030 H         1 UNK         0.0600 
    230 H230       -6.0583  -20.8808  -53.6687 H         1 UNK         0.3000 
    231 H231       -6.2456  -18.7394  -54.1136 H         1 UNK         0.0600 
    232 H232       -7.1166  -19.4432  -56.9659 H         1 UNK         0.0600 
    233 H233       -7.3868  -17.9238  -56.1264 H         1 UNK         0.0600 
    234 H234       -8.1905  -19.3816  -55.5680 H         1 UNK         0.0600 
    235 H235       -3.7507  -20.0943  -54.4230 H         1 UNK         0.3000 
    236 H236       -2.1683  -19.0148  -56.5819 H         1 UNK         0.0600 
    237 H237       -1.5984  -21.1392  -55.3687 H         1 UNK         0.0600 
    238 H238       -0.2810  -19.9789  -55.2918 H         1 UNK         0.0600 
    239 H239       -1.3150  -20.2177  -53.8907 H         1 UNK         0.0600 
    240 H240       -3.1425  -17.8818  -53.4091 H         1 UNK         0.3000 
    241 H241       -1.2921  -15.6331  -53.3504 H         1 UNK         0.0600 
    242 H242       -4.0155  -16.0894  -55.3651 H         1 UNK         0.3800 
    243 H243       -4.4116  -14.3990  -55.5183 H         1 UNK         0.3800 
    244 H244       -1.9357  -16.6162  -51.2352 H         1 UNK         0.0800 
    245 H245       -2.4272  -14.9486  -51.3338 H         1 UNK         0.0800 
    246 H246       -5.7071  -15.3275  -49.6571 H         1 UNK         0.0800 
    247 H247       -4.3242  -14.3478  -50.0572 H         1 UNK         0.0800 
@<TRIPOS>BOND
     1    1    2 1    
     2    1  127 1    
     3    1  128 1    
     4    1  129 1    
     5    2    3 2    
     6    2    4 am   BACKBONE|DICT|INTERRES
     7    4    5 1    
     8    4  130 1    
     9    5    6 1    
    10    5   65 1    
    11    5  131 1    
    12    6    7 1    
    13    6  132 1    
    14    6  133 1    
    15    7    8 1    
    16    8    9 1    
    17    8  134 1    
    18    8  135 1    
    19    9   10 ar   
    20    9   14 ar   
    21   10   11 ar   
    22   10  136 1    
    23   11   12 ar   
    24   11  126 1    
    25   12   13 ar   
    26   12  137 1    
    27   13   14 ar   
    28   13   15 1    
    29   14  138 1    
    30   15   16 1    
    31   15  139 1    
    32   15  140 1    
    33   16   17 1    
    34   17   18 1    
    35   17  141 1    
    36   17  142 1    
    37   18   19 1    
    38   18   67 1    
    39   18  143 1    
    40   19   20 am   BACKBONE|DICT|INTERRES
    41   19  144 1    
    42   20   21 2    
    43   20   22 1    
    44   22   23 1    
    45   22   24 1    
    46   22  145 1    
    47   23  146 1    
    48   23  147 1    
    49   23  148 1    
    50   24   25 am   BACKBONE|DICT|INTERRES
    51   24  149 1    
    52   25   26 2    
    53   25   27 1    
    54   27   28 1    
    55   27   29 1    
    56   27  150 1    
    57   28  151 1    
    58   28  152 1    
    59   28  153 1    
    60   29   30 am   BACKBONE|DICT|INTERRES
    61   29  154 1    
    62   30   31 2    
    63   30   32 1    
    64   32   33 1    
    65   32   34 1    
    66   32  155 1    
    67   33  156 1    
    68   33  157 1    
    69   33  158 1    
    70   34   35 am   BACKBONE|DICT|INTERRES
    71   34  159 1    
    72   35   36 2    
    73   35   37 1    
    74   37   38 1    
    75   37   39 1    
    76   37  160 1    
    77   38  161 1    
    78   38  162 1    
    79   38  163 1    
    80   39   40 am   BACKBONE|DICT|INTERRES
    81   39  164 1    
    82   40   41 2    
    83   40   42 1    
    84   42   43 1    
    85   42   44 1    
    86   42  165 1    
    87   43  166 1    
    88   43  167 1    
    89   43  168 1    
    90   44   45 am   BACKBONE|DICT|INTERRES
    91   44  169 1    
    92   45   46 2    
    93   45   47 1    
    94   47   48 1    
    95   47   49 1    
    96   47  170 1    
    97   48  171 1    
    98   48  172 1    
    99   48  173 1    
   100   49   50 am   BACKBONE|DICT|INTERRES
   101   49  174 1    
   102   50   51 2    
   103   50   52 1    
   104   52   53 1    
   105   52   54 1    
   106   52  175 1    
   107   53  176 1    
   108   53  177 1    
   109   53  178 1    
   110   54   55 am   BACKBONE|DICT|INTERRES
   111   54  179 1    
   112   55   56 2    
   113   55   57 1    
   114   57   58 1    
   115   57   59 1    
   116   57  180 1    
   117   58  181 1    
   118   58  182 1    
   119   58  183 1    
   120   59   60 am   BACKBONE|DICT|INTERRES
   121   59  184 1    
   122   60   61 2    
   123   60   62 1    
   124   62   63 1    
   125   62   64 1    
   126   62  185 1    
   127   63  186 1    
   128   63  187 1    
   129   63  188 1    
   130   64   65 am   BACKBONE|DICT|INTERRES
   131   64  189 1    
   132   65   66 2    
   133   67   68 2    
   134   67   69 am   BACKBONE|DICT|INTERRES
   135   69   70 1    
   136   69  190 1    
   137   70   71 1    
   138   70   72 1    
   139   70  191 1    
   140   71  192 1    
   141   71  193 1    
   142   71  194 1    
   143   72   73 2    
   144   72   74 am   BACKBONE|DICT|INTERRES
   145   74   75 1    
   146   74  195 1    
   147   75   76 1    
   148   75   77 1    
   149   75  196 1    
   150   76  197 1    
   151   76  198 1    
   152   76  199 1    
   153   77   78 2    
   154   77   79 am   BACKBONE|DICT|INTERRES
   155   79   80 1    
   156   79  200 1    
   157   80   81 1    
   158   80   82 1    
   159   80  201 1    
   160   81  202 1    
   161   81  203 1    
   162   81  204 1    
   163   82   83 2    
   164   82   84 am   BACKBONE|DICT|INTERRES
   165   84   85 1    
   166   84  205 1    
   167   85   86 1    
   168   85   87 1    
   169   85  206 1    
   170   86  207 1    
   171   86  208 1    
   172   86  209 1    
   173   87   88 2    
   174   87   89 am   BACKBONE|DICT|INTERRES
   175   89   90 1    
   176   89  210 1    
   177   90   91 1    
   178   90   92 1    
   179   90  211 1    
   180   91  212 1    
   181   91  213 1    
   182   91  214 1    
   183   92   93 2    
   184   92   94 am   BACKBONE|DICT|INTERRES
   185   94   95 1    
   186   94  215 1    
   187   95   96 1    
   188   95   97 1    
   189   95  216 1    
   190   96  217 1    
   191   96  218 1    
   192   96  219 1    
   193   97   98 2    
   194   97   99 am   BACKBONE|DICT|INTERRES
   195   99  100 1    
   196   99  220 1    
   197  100  101 1    
   198  100  102 1    
   199  100  221 1    
   200  101  222 1    
   201  101  223 1    
   202  101  224 1    
   203  102  103 2    
   204  102  104 am   BACKBONE|DICT|INTERRES
   205  104  105 1    
   206  104  225 1    
   207  105  106 1    
   208  105  107 1    
   209  105  226 1    
   210  106  227 1    
   211  106  228 1    
   212  106  229 1    
   213  107  108 2    
   214  107  109 am   BACKBONE|DICT|INTERRES
   215  109  110 1    
   216  109  230 1    
   217  110  111 1    
   218  110  112 1    
   219  110  231 1    
   220  111  232 1    
   221  111  233 1    
   222  111  234 1    
   223  112  113 2    
   224  112  114 am   BACKBONE|DICT|INTERRES
   225  114  115 1    
   226  114  235 1    
   227  115  116 1    
   228  115  117 1    
   229  115  236 1    
   230  116  237 1    
   231  116  238 1    
   232  116  239 1    
   233  117  118 2    
   234  117  119 am   BACKBONE|DICT|INTERRES
   235  119  120 1    
   236  119  240 1    
   237  120  121 1    
   238  120  124 1    
   239  120  241 1    
   240  121  122 am   BACKBONE|DICT|INTERRES
   241  121  123 2    
   242  122  242 1    
   243  122  243 1    
   244  124  125 1    
   245  124  244 1    
   246  124  245 1    
   247  125  126 1    
   248  126  246 1    
   249  126  247 1    
@<TRIPOS>SUBSTRUCTURE
     1 UNK         1 GROUP             0       ****    0 ROOT    
