@<TRIPOS>MOLECULE
3R540
247   249    1
SMALL
USER_CHARGES


@<TRIPOS>ATOM
      1 CA         -0.6611  -12.7491  -51.8989 C.3       0 UNK        -0.1800 
      2 C          -0.6905  -12.5651  -50.3881 C.2       0 UNK         0.5000 
      3 O          -1.3310  -11.6376  -49.8940 O.2       0 UNK        -0.5000 
      4 N          -0.0018  -13.4489  -49.6553 N.am      1 UNK        -0.5000 
      5 CA          0.0642  -13.4657  -48.1873 C.3       1 UNK         0.1400 
      6 C6          1.3078  -14.2341  -47.6769 C.3       23 UNK        -0.0398 
      7 S7          1.4303  -15.9477  -48.3046 S.3       23 UNK        -0.2404 
      8 C8          2.7375  -15.7532  -49.5533 C.3       23 UNK        -0.0205 
      9 C9          2.8564  -16.9957  -50.4176 C.ar      23 UNK        -0.0193 
     10 C10         1.9470  -17.2134  -51.4560 C.ar      23 UNK        -0.1150 
     11 C11         2.0453  -18.3538  -52.2571 C.ar      23 UNK        -0.0193 
     12 C12         3.0708  -19.2741  -52.0207 C.ar      23 UNK        -0.1150 
     13 C13         3.9896  -19.0637  -50.9877 C.ar      23 UNK        -0.0193 
     14 C14         3.8745  -17.9240  -50.1864 C.ar      23 UNK        -0.1150 
     15 C15         5.1172  -20.0572  -50.7477 C.3       23 UNK        -0.0205 
     16 S16         4.5168  -21.6625  -50.1354 S.3       23 UNK        -0.2404 
     17 C17         3.8748  -21.2233  -48.4840 C.3       23 UNK        -0.0398 
     18 CA          2.7991  -22.2221  -47.9926 C.3       11 UNK         0.1400 
     19 N           2.6662  -22.1841  -46.5338 N.am      11 UNK        -0.5000 
     20 C           2.8409  -23.2348  -45.7193 C.2       10 UNK         0.5000 
     21 O           3.1739  -24.3547  -46.1091 O.2       10 UNK        -0.5000 
     22 CA          2.6013  -23.0166  -44.2089 C.3       10 UNK         0.1400 
     23 CB          3.9347  -22.7638  -43.4889 C.3       10 UNK        -0.1800 
     24 N           1.6802  -21.9228  -43.8968 N.am      10 UNK        -0.5000 
     25 C           0.4018  -21.8532  -44.2903 C.2       9 UNK         0.5000 
     26 O          -0.1702  -22.7515  -44.9045 O.2       9 UNK        -0.5000 
     27 CA         -0.3494  -20.5392  -44.0099 C.3       9 UNK         0.1400 
     28 CB         -1.1510  -20.6454  -42.7056 C.3       9 UNK        -0.1800 
     29 N           0.5131  -19.3549  -43.9508 N.am      9 UNK        -0.5000 
     30 C           1.3222  -18.9150  -44.9265 C.2       8 UNK         0.5000 
     31 O           1.4858  -19.4977  -45.9976 O.2       8 UNK        -0.5000 
     32 CA          2.1133  -17.6337  -44.6294 C.3       8 UNK         0.1400 
     33 CB          1.1923  -16.4024  -44.6193 C.3       8 UNK        -0.1800 
     34 N           2.8066  -17.7454  -43.3488 N.am      8 UNK        -0.5000 
     35 C           3.9317  -18.4485  -43.1578 C.2       7 UNK         0.5000 
     36 O           4.5604  -18.9942  -44.0645 O.2       7 UNK        -0.5000 
     37 CA          4.4291  -18.5824  -41.7052 C.3       7 UNK         0.1400 
     38 CB          5.4119  -17.4514  -41.3669 C.3       7 UNK        -0.1800 
     39 N           3.3432  -18.5828  -40.7225 N.am      7 UNK        -0.5000 
     40 C           2.4330  -19.5585  -40.5917 C.2       6 UNK         0.5000 
     41 O           2.4229  -20.5816  -41.2756 O.2       6 UNK        -0.5000 
     42 CA          1.3141  -19.3197  -39.5584 C.3       6 UNK         0.1400 
     43 CB          1.7676  -19.7637  -38.1598 C.3       6 UNK        -0.1800 
     44 N           0.8538  -17.9268  -39.5026 N.am      6 UNK        -0.5000 
     45 C           0.3299  -17.2599  -40.5388 C.2       5 UNK         0.5000 
     46 O           0.2040  -17.7457  -41.6661 O.2       5 UNK        -0.5000 
     47 CA         -0.0752  -15.8004  -40.2960 C.3       5 UNK         0.1400 
     48 CB          1.1637  -14.8957  -40.1796 C.3       5 UNK        -0.1800 
     49 N          -0.8861  -15.3630  -41.4255 N.am      5 UNK        -0.5000 
     50 C          -1.8922  -14.4862  -41.3886 C.2       4 UNK         0.5000 
     51 O          -2.2230  -13.8740  -40.3720 O.2       4 UNK        -0.5000 
     52 CA         -2.6620  -14.2404  -42.7043 C.3       4 UNK         0.1400 
     53 CB         -2.3300  -12.8490  -43.2655 C.3       4 UNK        -0.1800 
     54 N          -2.4283  -15.2367  -43.7573 N.am      4 UNK        -0.5000 
     55 C          -2.8486  -16.5114  -43.7230 C.2       3 UNK         0.5000 
     56 O          -3.4083  -17.0114  -42.7465 O.2       3 UNK        -0.5000 
     57 CA         -2.6045  -17.3612  -44.9932 C.3       3 UNK         0.1400 
     58 CB         -3.5532  -18.5747  -45.0936 C.3       3 UNK        -0.1800 
     59 N          -2.6403  -16.5825  -46.2380 N.am      3 UNK        -0.5000 
     60 C          -3.6715  -15.8563  -46.6976 C.2       2 UNK         0.5000 
     61 O          -4.7579  -15.7720  -46.1229 O.2       2 UNK        -0.5000 
     62 CA         -3.4505  -15.0974  -48.0246 C.3       2 UNK         0.1400 
     63 CB         -4.3667  -13.8631  -48.1497 C.3       2 UNK        -0.1800 
     64 N          -2.0619  -14.7067  -48.3025 N.am      2 UNK        -0.5000 
     65 C          -1.2423  -13.9715  -47.5320 C.2       1 UNK         0.5000 
     66 O          -1.4792  -13.6808  -46.3589 O.2       1 UNK        -0.5000 
     67 C           1.4344  -21.9815  -48.6713 C.2       11 UNK         0.5000 
     68 O           1.1137  -22.6625  -49.6457 O.2       11 UNK        -0.5000 
     69 N           0.6429  -21.0390  -48.1392 N.am      12 UNK        -0.5000 
     70 CA         -0.6645  -20.6452  -48.6666 C.3       12 UNK         0.1400 
     71 CB         -1.0653  -19.2999  -48.0395 C.3       12 UNK        -0.1800 
     72 C          -1.7778  -21.6862  -48.4495 C.2       12 UNK         0.5000 
     73 O          -2.7808  -21.6343  -49.1642 O.2       12 UNK        -0.5000 
     74 N          -1.5776  -22.5972  -47.4867 N.am      13 UNK        -0.5000 
     75 CA         -2.5055  -23.6129  -46.9816 C.3       13 UNK         0.1400 
     76 CB         -3.0264  -24.5242  -48.1112 C.3       13 UNK        -0.1800 
     77 C          -3.6545  -23.0071  -46.1530 C.2       13 UNK         0.5000 
     78 O          -3.8264  -21.7859  -46.0999 O.2       13 UNK        -0.5000 
     79 N          -4.4257  -23.8879  -45.5015 N.am      14 UNK        -0.5000 
     80 CA         -5.6047  -23.5406  -44.7081 C.3       14 UNK         0.1400 
     81 CB         -6.1856  -24.8148  -44.0768 C.3       14 UNK        -0.1800 
     82 C          -6.6629  -22.8242  -45.5648 C.2       14 UNK         0.5000 
     83 O          -6.9877  -23.3039  -46.6527 O.2       14 UNK        -0.5000 
     84 N          -7.1357  -21.6690  -45.0777 N.am      15 UNK        -0.5000 
     85 CA         -8.0794  -20.7593  -45.7408 C.3       15 UNK         0.1400 
     86 CB         -9.4756  -21.4094  -45.8423 C.3       15 UNK        -0.1800 
     87 C          -7.5779  -20.2145  -47.0996 C.2       15 UNK         0.5000 
     88 O          -8.3963  -19.8401  -47.9409 O.2       15 UNK        -0.5000 
     89 N          -6.2474  -20.1804  -47.2869 N.am      16 UNK        -0.5000 
     90 CA         -5.5327  -19.7495  -48.4936 C.3       16 UNK         0.1400 
     91 CB         -5.8000  -18.2574  -48.7847 C.3       16 UNK        -0.1800 
     92 C          -5.8018  -20.6500  -49.7201 C.2       16 UNK         0.5000 
     93 O          -5.7346  -20.1722  -50.8537 O.2       16 UNK        -0.5000 
     94 N          -6.1021  -21.9362  -49.4817 N.am      17 UNK        -0.5000 
     95 CA         -6.5091  -22.9062  -50.5014 C.3       17 UNK         0.1400 
     96 CB         -6.9013  -24.2260  -49.8209 C.3       17 UNK        -0.1800 
     97 C          -5.4762  -23.1612  -51.6165 C.2       17 UNK         0.5000 
     98 O          -5.8807  -23.4152  -52.7518 O.2       17 UNK        -0.5000 
     99 N          -4.1776  -23.0829  -51.2945 N.am      18 UNK        -0.5000 
    100 CA        -3.0962  -23.2091  -52.2723 C.3       18 UNK         0.1400 
    101 CB        -1.8697  -23.8731  -51.6305 C.3       18 UNK        -0.1800 
    102 C         -2.7324  -21.8431  -52.8708 C.2       18 UNK         0.5000 
    103 O         -2.4467  -21.7690  -54.0663 O.2       18 UNK        -0.5000 
    104 N         -2.7891  -20.7783  -52.0553 N.am      19 UNK        -0.5000 
    105 CA        -2.5269  -19.3963  -52.4726 C.3       19 UNK         0.1400 
    106 CB        -2.3988  -18.4785  -51.2488 C.3       19 UNK        -0.1800 
    107 C         -3.5323  -18.8336  -53.4914 C.2       19 UNK         0.5000 
    108 O         -3.1797  -17.9261  -54.2447 O.2       19 UNK        -0.5000 
    109 N         -4.7372  -19.4151  -53.5378 N.am      20 UNK        -0.5000 
    110 CA        -5.7513  -19.1810  -54.5658 C.3       20 UNK         0.1400 
    111 CB        -7.0174  -19.9685  -54.1955 C.3       20 UNK        -0.1800 
    112 C         -5.2844  -19.5466  -55.9928 C.2       20 UNK         0.5000 
    113 O         -5.8042  -18.9789  -56.9544 O.2       20 UNK        -0.5000 
    114 N         -4.3157  -20.4670  -56.1046 N.am      21 UNK        -0.5000 
    115 CA        -3.6647  -20.8517  -57.3541 C.3       21 UNK         0.1400 
    116 CB        -3.6626  -22.3851  -57.4739 C.3       21 UNK        -0.1800 
    117 C         -2.2338  -20.2906  -57.4118 C.2       21 UNK         0.5000 
    118 O         -1.8936  -19.5970  -58.3707 O.2       21 UNK        -0.5000 
    119 N         -1.4258  -20.6001  -56.3869 N.am      22 UNK        -0.5000 
    120 CA         0.0014  -20.2514  -56.2637 C.3       22 UNK         0.1400 
    121 C          0.9200  -20.8734  -57.3650 C.2       22 UNK         0.5000 
    122 N          0.5461  -21.9984  -57.9634 N.am      22 UNK        -0.7600 
    123 O          1.9881  -20.3541  -57.6766 O.2       22 UNK        -0.5000 
    124 C124        0.2173  -18.7267  -56.0343 C.3       23 UNK        -0.0398 
    125 S125        1.6890  -18.3461  -55.0157 S.3       23 UNK        -0.2404 
    126 C126        1.0190  -18.6115  -53.3474 C.3       23 UNK        -0.0205 
    127 H127       -0.2469  -11.8614  -52.3768 H         1 UNK         0.0600 
    128 H128       -1.6717  -12.9016  -52.2777 H         1 UNK         0.0600 
    129 H129       -0.0552  -13.6070  -52.1921 H         1 UNK         0.0600 
    130 H130        0.5025  -14.1914  -50.1169 H         1 UNK         0.3000 
    131 H131        0.1778  -12.4310  -47.8564 H         1 UNK         0.0600 
    132 H132        1.3215  -14.2536  -46.5870 H         1 UNK         0.0800 
    133 H133        2.2082  -13.6865  -47.9583 H         1 UNK         0.0800 
    134 H134        2.5266  -14.8918  -50.1881 H         1 UNK         0.0800 
    135 H135        3.6838  -15.5418  -49.0528 H         1 UNK         0.0800 
    136 H136        1.1543  -16.4996  -51.6302 H         1 UNK         0.1150 
    137 H137        3.1510  -20.1583  -52.6376 H         1 UNK         0.1150 
    138 H138        4.5792  -17.7566  -49.3839 H         1 UNK         0.1150 
    139 H139        5.6524  -20.2169  -51.6847 H         1 UNK         0.0800 
    140 H140        5.8485  -19.6566  -50.0438 H         1 UNK         0.0800 
    141 H141        3.4930  -20.2012  -48.4732 H         1 UNK         0.0800 
    142 H142        4.7270  -21.2298  -47.8028 H         1 UNK         0.0800 
    143 H143        3.1173  -23.2221  -48.2949 H         1 UNK         0.0600 
    144 H144        2.3777  -21.2988  -46.1317 H         1 UNK         0.3000 
    145 H145        2.1665  -23.9362  -43.8123 H         1 UNK         0.0600 
    146 H146        3.7969  -22.7143  -42.4087 H         1 UNK         0.0600 
    147 H147        4.6468  -23.5658  -43.6874 H         1 UNK         0.0600 
    148 H148        4.3934  -21.8285  -43.8118 H         1 UNK         0.0600 
    149 H149        2.0473  -21.1707  -43.3258 H         1 UNK         0.3000 
    150 H150       -1.0555  -20.3910  -44.8283 H         1 UNK         0.0600 
    151 H151       -1.8693  -21.4647  -42.7553 H         1 UNK         0.0600 
    152 H152       -1.7119  -19.7316  -42.5075 H         1 UNK         0.0600 
    153 H153       -0.4993  -20.8294  -41.8517 H         1 UNK         0.0600 
    154 H154        0.4581  -18.8122  -43.0907 H         1 UNK         0.3000 
    155 H155        2.8475  -17.4991  -45.4270 H         1 UNK         0.0600 
    156 H156        0.4802  -16.4218  -43.7983 H         1 UNK         0.0600 
    157 H157        0.6109  -16.3418  -45.5384 H         1 UNK         0.0600 
    158 H158        1.7712  -15.4833  -44.5320 H         1 UNK         0.0600 
    159 H159        2.3255  -17.3799  -42.5401 H         1 UNK         0.3000 
    160 H160        4.9597  -19.5337  -41.6247 H         1 UNK         0.0600 
    161 H161        4.9309  -16.4732  -41.4091 H         1 UNK         0.0600 
    162 H162        6.2472  -17.4372  -42.0684 H         1 UNK         0.0600 
    163 H163        5.8303  -17.5778  -40.3682 H         1 UNK         0.0600 
    164 H164        3.2740  -17.7773  -40.1183 H         1 UNK         0.3000 
    165 H165        0.4620  -19.9368  -39.8487 H         1 UNK         0.0600 
    166 H166        0.9531  -19.6896  -37.4390 H         1 UNK         0.0600 
    167 H167        2.0981  -20.8033  -38.1684 H         1 UNK         0.0600 
    168 H168        2.5974  -19.1582  -37.7932 H         1 UNK         0.0600 
    169 H169        0.9351  -17.4618  -38.6098 H         1 UNK         0.3000 
    170 H170       -0.6603  -15.7555  -39.3752 H         1 UNK         0.0600 
    171 H171        1.7905  -15.1883  -39.3365 H         1 UNK         0.0600 
    172 H172        1.7788  -14.9386  -41.0795 H         1 UNK         0.0600 
    173 H173        0.8771  -13.8558  -40.0219 H         1 UNK         0.0600 
    174 H174       -0.7335  -15.8904  -42.2738 H         1 UNK         0.3000 
    175 H175       -3.7257  -14.2605  -42.4589 H         1 UNK         0.0600 
    176 H176       -1.2823  -12.7760  -43.5603 H         1 UNK         0.0600 
    177 H177       -2.9403  -12.6212  -44.1398 H         1 UNK         0.0600 
    178 H178       -2.5199  -12.0694  -42.5267 H         1 UNK         0.0600 
    179 H179       -2.0139  -14.8853  -44.6134 H         1 UNK         0.3000 
    180 H180       -1.5894  -17.7459  -44.9054 H         1 UNK         0.0600 
    181 H181       -3.3631  -19.1485  -45.9995 H         1 UNK         0.0600 
    182 H182       -4.6006  -18.2722  -45.1071 H         1 UNK         0.0600 
    183 H183       -3.4218  -19.2522  -44.2499 H         1 UNK         0.0600 
    184 H184       -1.7867  -16.5641  -46.7769 H         1 UNK         0.3000 
    185 H185       -3.7307  -15.7954  -48.8146 H         1 UNK         0.0600 
    186 H186       -5.4193  -14.1438  -48.0971 H         1 UNK         0.0600 
    187 H187       -4.1776  -13.1420  -47.3535 H         1 UNK         0.0600 
    188 H188       -4.2167  -13.3554  -49.1027 H         1 UNK         0.0600 
    189 H189       -1.7368  -14.9120  -49.2361 H         1 UNK         0.3000 
    190 H190        0.9820  -20.4924  -47.3494 H         1 UNK         0.3000 
    191 H191       -0.5613  -20.5099  -49.7446 H         1 UNK         0.0600 
    192 H192       -2.0507  -18.9780  -48.3763 H         1 UNK         0.0600 
    193 H193       -0.3557  -18.5161  -48.3047 H         1 UNK         0.0600 
    194 H194       -1.1032  -19.3626  -46.9533 H         1 UNK         0.0600 
    195 H195       -0.7352  -22.5081  -46.9322 H         1 UNK         0.3000 
    196 H196       -1.9196  -24.2327  -46.3018 H         1 UNK         0.0600 
    197 H197       -3.7554  -24.0148  -48.7384 H         1 UNK         0.0600 
    198 H198       -2.2115  -24.8700  -48.7465 H         1 UNK         0.0600 
    199 H199       -3.5167  -25.4104  -47.7077 H         1 UNK         0.0600 
    200 H200       -4.2367  -24.8734  -45.6070 H         1 UNK         0.3000 
    201 H201       -5.2808  -22.8741  -43.9060 H         1 UNK         0.0600 
    202 H202       -6.5002  -25.5324  -44.8359 H         1 UNK         0.0600 
    203 H203       -7.0572  -24.5832  -43.4632 H         1 UNK         0.0600 
    204 H204       -5.4559  -25.3050  -43.4321 H         1 UNK         0.0600 
    205 H205       -6.7879  -21.3497  -44.1840 H         1 UNK         0.3000 
    206 H206       -8.1698  -19.8897  -45.0884 H         1 UNK         0.0600 
    207 H207       -9.8098  -21.7800  -44.8733 H         1 UNK         0.0600 
    208 H208      -10.2199  -20.6901  -46.1858 H         1 UNK         0.0600 
    209 H209       -9.4830  -22.2455  -46.5422 H         1 UNK         0.0600 
    210 H210       -5.6544  -20.5569  -46.5563 H         1 UNK         0.3000 
    211 H211       -4.4728  -19.8512  -48.2621 H         1 UNK         0.0600 
    212 H212       -5.1163  -17.8707  -49.5391 H         1 UNK         0.0600 
    213 H213       -5.6737  -17.6544  -47.8874 H         1 UNK         0.0600 
    214 H214       -6.8119  -18.0916  -49.1551 H         1 UNK         0.0600 
    215 H215       -6.1569  -22.2472  -48.5199 H         1 UNK         0.3000 
    216 H216       -7.4011  -22.5027  -50.9849 H         1 UNK         0.0600 
    217 H217       -6.0796  -24.6383  -49.2348 H         1 UNK         0.0600 
    218 H218       -7.1915  -24.9777  -50.5562 H         1 UNK         0.0600 
    219 H219       -7.7512  -24.0853  -49.1531 H         1 UNK         0.0600 
    220 H220       -3.9134  -22.7976  -50.3570 H         1 UNK         0.3000 
    221 H221       -3.4171  -23.8533  -53.0938 H         1 UNK         0.0600 
    222 H222       -1.0786  -24.0181  -52.3672 H         1 UNK         0.0600 
    223 H223       -2.1200  -24.8541  -51.2274 H         1 UNK         0.0600 
    224 H224       -1.4510  -23.2740  -50.8237 H         1 UNK         0.0600 
    225 H225       -3.0382  -20.9285  -51.0843 H         1 UNK         0.3000 
    226 H226       -1.5715  -19.4042  -52.9904 H         1 UNK         0.0600 
    227 H227       -1.4420  -18.6287  -50.7532 H         1 UNK         0.0600 
    228 H228       -2.4405  -17.4251  -51.5297 H         1 UNK         0.0600 
    229 H229       -3.1937  -18.6599  -50.5274 H         1 UNK         0.0600 
    230 H230       -4.9770  -20.0705  -52.8018 H         1 UNK         0.3000 
    231 H231       -5.9919  -18.1162  -54.5599 H         1 UNK         0.0600 
    232 H232       -6.8256  -21.0419  -54.1608 H         1 UNK         0.0600 
    233 H233       -7.8120  -19.7986  -54.9230 H         1 UNK         0.0600 
    234 H234       -7.3990  -19.6658  -53.2200 H         1 UNK         0.0600 
    235 H235       -3.9226  -20.8590  -55.2575 H         1 UNK         0.3000 
    236 H236       -4.2111  -20.4534  -58.2116 H         1 UNK         0.0600 
    237 H237       -4.6801  -22.7741  -57.5134 H         1 UNK         0.0600 
    238 H238       -3.1572  -22.7052  -58.3860 H         1 UNK         0.0600 
    239 H239       -3.1587  -22.8612  -56.6319 H         1 UNK         0.0600 
    240 H240       -1.7993  -21.1572  -55.6207 H         1 UNK         0.3000 
    241 H241        0.3084  -20.7615  -55.3508 H         1 UNK         0.0600 
    242 H242        1.1391  -22.4036  -58.6708 H         1 UNK         0.3800 
    243 H243       -0.3201  -22.4494  -57.7169 H         1 UNK         0.3800 
    244 H244       -0.6508  -18.2924  -55.5361 H         1 UNK         0.0800 
    245 H245        0.2972  -18.2016  -56.9874 H         1 UNK         0.0800 
    246 H246        0.1562  -17.9587  -53.2095 H         1 UNK         0.0800 
    247 H247        0.6670  -19.6395  -53.2580 H         1 UNK         0.0800 
@<TRIPOS>BOND
     1    1    2 1    
     2    1  127 1    
     3    1  128 1    
     4    1  129 1    
     5    2    3 2    
     6    2    4 am   BACKBONE|DICT|INTERRES
     7    4    5 1    
     8    4  130 1    
     9    5    6 1    
    10    5   65 1    
    11    5  131 1    
    12    6    7 1    
    13    6  132 1    
    14    6  133 1    
    15    7    8 1    
    16    8    9 1    
    17    8  134 1    
    18    8  135 1    
    19    9   10 ar   
    20    9   14 ar   
    21   10   11 ar   
    22   10  136 1    
    23   11   12 ar   
    24   11  126 1    
    25   12   13 ar   
    26   12  137 1    
    27   13   14 ar   
    28   13   15 1    
    29   14  138 1    
    30   15   16 1    
    31   15  139 1    
    32   15  140 1    
    33   16   17 1    
    34   17   18 1    
    35   17  141 1    
    36   17  142 1    
    37   18   19 1    
    38   18   67 1    
    39   18  143 1    
    40   19   20 am   BACKBONE|DICT|INTERRES
    41   19  144 1    
    42   20   21 2    
    43   20   22 1    
    44   22   23 1    
    45   22   24 1    
    46   22  145 1    
    47   23  146 1    
    48   23  147 1    
    49   23  148 1    
    50   24   25 am   BACKBONE|DICT|INTERRES
    51   24  149 1    
    52   25   26 2    
    53   25   27 1    
    54   27   28 1    
    55   27   29 1    
    56   27  150 1    
    57   28  151 1    
    58   28  152 1    
    59   28  153 1    
    60   29   30 am   BACKBONE|DICT|INTERRES
    61   29  154 1    
    62   30   31 2    
    63   30   32 1    
    64   32   33 1    
    65   32   34 1    
    66   32  155 1    
    67   33  156 1    
    68   33  157 1    
    69   33  158 1    
    70   34   35 am   BACKBONE|DICT|INTERRES
    71   34  159 1    
    72   35   36 2    
    73   35   37 1    
    74   37   38 1    
    75   37   39 1    
    76   37  160 1    
    77   38  161 1    
    78   38  162 1    
    79   38  163 1    
    80   39   40 am   BACKBONE|DICT|INTERRES
    81   39  164 1    
    82   40   41 2    
    83   40   42 1    
    84   42   43 1    
    85   42   44 1    
    86   42  165 1    
    87   43  166 1    
    88   43  167 1    
    89   43  168 1    
    90   44   45 am   BACKBONE|DICT|INTERRES
    91   44  169 1    
    92   45   46 2    
    93   45   47 1    
    94   47   48 1    
    95   47   49 1    
    96   47  170 1    
    97   48  171 1    
    98   48  172 1    
    99   48  173 1    
   100   49   50 am   BACKBONE|DICT|INTERRES
   101   49  174 1    
   102   50   51 2    
   103   50   52 1    
   104   52   53 1    
   105   52   54 1    
   106   52  175 1    
   107   53  176 1    
   108   53  177 1    
   109   53  178 1    
   110   54   55 am   BACKBONE|DICT|INTERRES
   111   54  179 1    
   112   55   56 2    
   113   55   57 1    
   114   57   58 1    
   115   57   59 1    
   116   57  180 1    
   117   58  181 1    
   118   58  182 1    
   119   58  183 1    
   120   59   60 am   BACKBONE|DICT|INTERRES
   121   59  184 1    
   122   60   61 2    
   123   60   62 1    
   124   62   63 1    
   125   62   64 1    
   126   62  185 1    
   127   63  186 1    
   128   63  187 1    
   129   63  188 1    
   130   64   65 am   BACKBONE|DICT|INTERRES
   131   64  189 1    
   132   65   66 2    
   133   67   68 2    
   134   67   69 am   BACKBONE|DICT|INTERRES
   135   69   70 1    
   136   69  190 1    
   137   70   71 1    
   138   70   72 1    
   139   70  191 1    
   140   71  192 1    
   141   71  193 1    
   142   71  194 1    
   143   72   73 2    
   144   72   74 am   BACKBONE|DICT|INTERRES
   145   74   75 1    
   146   74  195 1    
   147   75   76 1    
   148   75   77 1    
   149   75  196 1    
   150   76  197 1    
   151   76  198 1    
   152   76  199 1    
   153   77   78 2    
   154   77   79 am   BACKBONE|DICT|INTERRES
   155   79   80 1    
   156   79  200 1    
   157   80   81 1    
   158   80   82 1    
   159   80  201 1    
   160   81  202 1    
   161   81  203 1    
   162   81  204 1    
   163   82   83 2    
   164   82   84 am   BACKBONE|DICT|INTERRES
   165   84   85 1    
   166   84  205 1    
   167   85   86 1    
   168   85   87 1    
   169   85  206 1    
   170   86  207 1    
   171   86  208 1    
   172   86  209 1    
   173   87   88 2    
   174   87   89 am   BACKBONE|DICT|INTERRES
   175   89   90 1    
   176   89  210 1    
   177   90   91 1    
   178   90   92 1    
   179   90  211 1    
   180   91  212 1    
   181   91  213 1    
   182   91  214 1    
   183   92   93 2    
   184   92   94 am   BACKBONE|DICT|INTERRES
   185   94   95 1    
   186   94  215 1    
   187   95   96 1    
   188   95   97 1    
   189   95  216 1    
   190   96  217 1    
   191   96  218 1    
   192   96  219 1    
   193   97   98 2    
   194   97   99 am   BACKBONE|DICT|INTERRES
   195   99  100 1    
   196   99  220 1    
   197  100  101 1    
   198  100  102 1    
   199  100  221 1    
   200  101  222 1    
   201  101  223 1    
   202  101  224 1    
   203  102  103 2    
   204  102  104 am   BACKBONE|DICT|INTERRES
   205  104  105 1    
   206  104  225 1    
   207  105  106 1    
   208  105  107 1    
   209  105  226 1    
   210  106  227 1    
   211  106  228 1    
   212  106  229 1    
   213  107  108 2    
   214  107  109 am   BACKBONE|DICT|INTERRES
   215  109  110 1    
   216  109  230 1    
   217  110  111 1    
   218  110  112 1    
   219  110  231 1    
   220  111  232 1    
   221  111  233 1    
   222  111  234 1    
   223  112  113 2    
   224  112  114 am   BACKBONE|DICT|INTERRES
   225  114  115 1    
   226  114  235 1    
   227  115  116 1    
   228  115  117 1    
   229  115  236 1    
   230  116  237 1    
   231  116  238 1    
   232  116  239 1    
   233  117  118 2    
   234  117  119 am   BACKBONE|DICT|INTERRES
   235  119  120 1    
   236  119  240 1    
   237  120  121 1    
   238  120  124 1    
   239  120  241 1    
   240  121  122 am   BACKBONE|DICT|INTERRES
   241  121  123 2    
   242  122  242 1    
   243  122  243 1    
   244  124  125 1    
   245  124  244 1    
   246  124  245 1    
   247  125  126 1    
   248  126  246 1    
   249  126  247 1    
@<TRIPOS>SUBSTRUCTURE
     1 UNK         1 GROUP             0       ****    0 ROOT    
