@<TRIPOS>MOLECULE
3R540
247   249    1
SMALL
USER_CHARGES


@<TRIPOS>ATOM
      1 CA         -0.0820  -13.7616  -52.8619 C.3       0 UNK        -0.1800 
      2 C           0.5849  -13.3575  -51.5551 C.2       0 UNK         0.5000 
      3 O          -0.0867  -13.3099  -50.5250 O.2       0 UNK        -0.5000 
      4 N           1.8924  -13.0520  -51.6096 N.am      1 UNK        -0.5000 
      5 CA          2.8143  -12.7168  -50.5047 C.3       1 UNK         0.1400 
      6 C6          3.4240  -13.9619  -49.7968 C.3       23 UNK        -0.0398 
      7 S7          2.2347  -15.0368  -48.9204 S.3       23 UNK        -0.2404 
      8 C8          2.1120  -16.4098  -50.1120 C.3       23 UNK        -0.0205 
      9 C9          0.9884  -17.4000  -49.8248 C.ar      23 UNK        -0.0193 
     10 C10        -0.2594  -16.9818  -49.3496 C.ar      23 UNK        -0.1150 
     11 C11        -1.3068  -17.8946  -49.1902 C.ar      23 UNK        -0.0193 
     12 C12        -1.0938  -19.2443  -49.4887 C.ar      23 UNK        -0.1150 
     13 C13         0.1516  -19.6772  -49.9535 C.ar      23 UNK        -0.0193 
     14 C14         1.1843  -18.7513  -50.1184 C.ar      23 UNK        -0.1150 
     15 C15         0.3888  -21.1355  -50.3109 C.3       23 UNK        -0.0205 
     16 S16         1.0792  -22.0620  -48.9066 S.3       23 UNK        -0.2404 
     17 C17        -0.4429  -22.5074  -48.0121 C.3       23 UNK        -0.0398 
     18 CA         -0.1931  -23.6383  -46.9923 C.3       11 UNK         0.1400 
     19 N           0.5312  -23.1648  -45.8119 N.am      11 UNK        -0.5000 
     20 C           1.0426  -23.9590  -44.8630 C.2       10 UNK         0.5000 
     21 O           0.9827  -25.1878  -44.8938 O.2       10 UNK        -0.5000 
     22 CA          1.6775  -23.2617  -43.6477 C.3       10 UNK         0.1400 
     23 CB          3.0765  -22.7270  -43.9879 C.3       10 UNK        -0.1800 
     24 N           0.8409  -22.1794  -43.1263 N.am      10 UNK        -0.5000 
     25 C          -0.3859  -22.3577  -42.6143 C.2       9 UNK         0.5000 
     26 O          -0.9231  -23.4585  -42.4948 O.2       9 UNK        -0.5000 
     27 CA         -1.1628  -21.0979  -42.1980 C.3       9 UNK         0.1400 
     28 CB         -0.6929  -20.6038  -40.8218 C.3       9 UNK        -0.1800 
     29 N          -1.0616  -20.0158  -43.1771 N.am      9 UNK        -0.5000 
     30 C          -1.5234  -20.0776  -44.4349 C.2       8 UNK         0.5000 
     31 O          -2.1078  -21.0535  -44.9034 O.2       8 UNK        -0.5000 
     32 CA         -1.2369  -18.8674  -45.3419 C.3       8 UNK         0.1400 
     33 CB         -2.1777  -17.6983  -45.0145 C.3       8 UNK        -0.1800 
     34 N           0.1511  -18.4184  -45.2565 N.am      8 UNK        -0.5000 
     35 C           1.2167  -19.1795  -45.5455 C.2       7 UNK         0.5000 
     36 O           1.1478  -20.3457  -45.9304 O.2       7 UNK        -0.5000 
     37 CA          2.5943  -18.5496  -45.2933 C.3       7 UNK         0.1400 
     38 CB          2.9617  -17.5691  -46.4149 C.3       7 UNK        -0.1800 
     39 N           2.6429  -17.8666  -44.0012 N.am      7 UNK        -0.5000 
     40 C           2.5957  -18.4911  -42.8157 C.2       6 UNK         0.5000 
     41 O           2.5426  -19.7140  -42.6844 O.2       6 UNK        -0.5000 
     42 CA          2.5604  -17.5912  -41.5678 C.3       6 UNK         0.1400 
     43 CB          3.9711  -17.1010  -41.2083 C.3       6 UNK        -0.1800 
     44 N           1.6708  -16.4404  -41.7307 N.am      6 UNK        -0.5000 
     45 C           0.3402  -16.5302  -41.8644 C.2       5 UNK         0.5000 
     46 O          -0.2790  -17.5922  -41.8518 O.2       5 UNK        -0.5000 
     47 CA         -0.4273  -15.2162  -42.0832 C.3       5 UNK         0.1400 
     48 CB         -0.7718  -14.5623  -40.7368 C.3       5 UNK        -0.1800 
     49 N           0.2803  -14.2501  -42.9254 N.am      5 UNK        -0.5000 
     50 C           0.6228  -14.4551  -44.2040 C.2       4 UNK         0.5000 
     51 O           0.4804  -15.5293  -44.7931 O.2       4 UNK        -0.5000 
     52 CA          1.2218  -13.2483  -44.9492 C.3       4 UNK         0.1400 
     53 CB          2.6774  -13.5271  -45.3530 C.3       4 UNK        -0.1800 
     54 N           0.4373  -12.9016  -46.1353 N.am      4 UNK        -0.5000 
     55 C          -0.8485  -12.5172  -46.1170 C.2       3 UNK         0.5000 
     56 O          -1.4970  -12.3583  -45.0804 O.2       3 UNK        -0.5000 
     57 CA         -1.5081  -12.2543  -47.4867 C.3       3 UNK         0.1400 
     58 CB         -2.9110  -11.6224  -47.3761 C.3       3 UNK        -0.1800 
     59 N          -0.6586  -11.4709  -48.3855 N.am      3 UNK        -0.5000 
     60 C          -0.1824  -10.2303  -48.1895 C.2       2 UNK         0.5000 
     61 O          -0.4524   -9.5395  -47.2053 O.2       2 UNK        -0.5000 
     62 CA          0.7516   -9.6673  -49.2874 C.3       2 UNK         0.1400 
     63 CB          1.7313   -8.6020  -48.7515 C.3       2 UNK        -0.1800 
     64 N           1.4718  -10.7090  -50.0311 N.am      2 UNK        -0.5000 
     65 C           2.3106  -11.6276  -49.5263 C.2       1 UNK         0.5000 
     66 O           2.6701  -11.6429  -48.3484 O.2       1 UNK        -0.5000 
     67 C          -1.5088  -24.3520  -46.6237 C.2       11 UNK         0.5000 
     68 O          -1.8168  -25.3804  -47.2260 O.2       11 UNK        -0.5000 
     69 N          -2.2462  -23.8301  -45.6333 N.am      12 UNK        -0.5000 
     70 CA         -3.4626  -24.4478  -45.1032 C.3       12 UNK         0.1400 
     71 CB         -4.1730  -23.4767  -44.1489 C.3       12 UNK        -0.1800 
     72 C          -3.1861  -25.7954  -44.4128 C.2       12 UNK         0.5000 
     73 O          -3.9090  -26.7594  -44.6646 O.2       12 UNK        -0.5000 
     74 N          -2.1244  -25.8535  -43.5956 N.am      13 UNK        -0.5000 
     75 CA         -1.6594  -27.0652  -42.9152 C.3       13 UNK         0.1400 
     76 CB         -0.5620  -26.6980  -41.9049 C.3       13 UNK        -0.1800 
     77 C          -1.1618  -28.1489  -43.8903 C.2       13 UNK         0.5000 
     78 O          -1.4270  -29.3317  -43.6727 O.2       13 UNK        -0.5000 
     79 N          -0.4799  -27.7241  -44.9623 N.am      14 UNK        -0.5000 
     80 CA         -0.0196  -28.5808  -46.0570 C.3       14 UNK         0.1400 
     81 CB          1.0565  -27.8257  -46.8536 C.3       14 UNK        -0.1800 
     82 C          -1.1494  -29.0410  -47.0015 C.2       14 UNK         0.5000 
     83 O          -0.9266  -29.9609  -47.7895 O.2       14 UNK        -0.5000 
     84 N          -2.3175  -28.3834  -46.9262 N.am      15 UNK        -0.5000 
     85 CA         -3.4767  -28.5121  -47.8160 C.3       15 UNK         0.1400 
     86 CB         -4.1335  -29.9010  -47.6762 C.3       15 UNK        -0.1800 
     87 C          -3.1225  -28.1412  -49.2723 C.2       15 UNK         0.5000 
     88 O          -3.5062  -28.8413  -50.2113 O.2       15 UNK        -0.5000 
     89 N          -2.3691  -27.0461  -49.4186 N.am      16 UNK        -0.5000 
     90 CA         -1.7968  -26.5532  -50.6666 C.3       16 UNK         0.1400 
     91 CB         -0.3134  -26.9639  -50.7292 C.3       16 UNK        -0.1800 
     92 C          -2.0055  -25.0327  -50.7668 C.2       16 UNK         0.5000 
     93 O          -1.0657  -24.2943  -51.0641 O.2       16 UNK        -0.5000 
     94 N          -3.2386  -24.5875  -50.4880 N.am      17 UNK        -0.5000 
     95 CA         -3.6779  -23.1938  -50.5814 C.3       17 UNK         0.1400 
     96 CB         -5.1163  -23.0911  -50.0527 C.3       17 UNK        -0.1800 
     97 C          -3.5826  -22.6330  -52.0141 C.2       17 UNK         0.5000 
     98 O          -3.7634  -23.3768  -52.9823 O.2       17 UNK        -0.5000 
     99 N          -3.3187  -21.3245  -52.1152 N.am      18 UNK        -0.5000 
    100 CA        -3.2613  -20.5835  -53.3746 C.3       18 UNK         0.1400 
    101 CB        -2.6421  -19.2021  -53.1065 C.3       18 UNK        -0.1800 
    102 C         -4.6557  -20.4332  -54.0114 C.2       18 UNK         0.5000 
    103 O         -5.6651  -20.4448  -53.3009 O.2       18 UNK        -0.5000 
    104 N         -4.6883  -20.2458  -55.3366 N.am      19 UNK        -0.5000 
    105 CA        -5.8986  -20.0733  -56.1475 C.3       19 UNK         0.1400 
    106 CB        -5.5639  -20.4224  -57.6091 C.3       19 UNK        -0.1800 
    107 C         -6.5108  -18.6624  -55.9974 C.2       19 UNK         0.5000 
    108 O         -6.6362  -17.9303  -56.9799 O.2       19 UNK        -0.5000 
    109 N         -6.8387  -18.2983  -54.7501 N.am      20 UNK        -0.5000 
    110 CA        -7.4147  -17.0314  -54.2790 C.3       20 UNK         0.1400 
    111 CB        -8.7951  -16.7804  -54.9196 C.3       20 UNK        -0.1800 
    112 C         -6.4866  -15.8037  -54.4120 C.2       20 UNK         0.5000 
    113 O         -6.9124  -14.6933  -54.0897 O.2       20 UNK        -0.5000 
    114 N         -5.2320  -16.0095  -54.8400 N.am      21 UNK        -0.5000 
    115 CA        -4.2259  -14.9675  -55.0715 C.3       21 UNK         0.1400 
    116 CB        -2.9692  -15.6105  -55.6781 C.3       21 UNK        -0.1800 
    117 C         -3.8616  -14.1641  -53.8091 C.2       21 UNK         0.5000 
    118 O         -3.5803  -12.9695  -53.9082 O.2       21 UNK        -0.5000 
    119 N         -3.9008  -14.8333  -52.6520 N.am      22 UNK        -0.5000 
    120 CA        -3.7212  -14.2398  -51.3208 C.3       22 UNK         0.1400 
    121 C         -5.0364  -13.7105  -50.6725 C.2       22 UNK         0.5000 
    122 N         -6.1766  -13.7171  -51.3548 N.am      22 UNK        -0.7600 
    123 O         -5.0245  -13.2667  -49.5287 O.2       22 UNK        -0.5000 
    124 C124       -2.9214  -15.1865  -50.3925 C.3       23 UNK        -0.0398 
    125 S125       -3.7063  -16.8058  -50.0727 S.3       23 UNK        -0.2404 
    126 C126       -2.6697  -17.4202  -48.7055 C.3       23 UNK        -0.0205 
    127 H127       -0.5058  -14.7620  -52.7740 H         1 UNK         0.0600 
    128 H128        0.6210  -13.7630  -53.6950 H         1 UNK         0.0600 
    129 H129       -0.8887  -13.0684  -53.0984 H         1 UNK         0.0600 
    130 H130        2.3395  -13.0892  -52.5150 H         1 UNK         0.3000 
    131 H131        3.6531  -12.2303  -51.0049 H         1 UNK         0.0600 
    132 H132        3.9655  -14.5589  -50.5314 H         1 UNK         0.0800 
    133 H133        4.1844  -13.6533  -49.0774 H         1 UNK         0.0800 
    134 H134        3.0728  -16.9264  -50.1325 H         1 UNK         0.0800 
    135 H135        1.9537  -16.0061  -51.1122 H         1 UNK         0.0800 
    136 H136       -0.4245  -15.9372  -49.1285 H         1 UNK         0.1150 
    137 H137       -1.8980  -19.9549  -49.3663 H         1 UNK         0.1150 
    138 H138        2.1408  -19.0852  -50.4954 H         1 UNK         0.1150 
    139 H139        1.0895  -21.1979  -51.1447 H         1 UNK         0.0800 
    140 H140       -0.5321  -21.6015  -50.6634 H         1 UNK         0.0800 
    141 H141       -0.8553  -21.6213  -47.5265 H         1 UNK         0.0800 
    142 H142       -1.1715  -22.8260  -48.7545 H         1 UNK         0.0800 
    143 H143        0.4335  -24.3927  -47.4735 H         1 UNK         0.0600 
    144 H144        0.6602  -22.1578  -45.7366 H         1 UNK         0.3000 
    145 H145        1.7849  -24.0081  -42.8579 H         1 UNK         0.0600 
    146 H146        3.7154  -23.5222  -44.3738 H         1 UNK         0.0600 
    147 H147        3.5658  -22.3163  -43.1047 H         1 UNK         0.0600 
    148 H148        3.0368  -21.9415  -44.7429 H         1 UNK         0.0600 
    149 H149        1.2293  -21.2431  -43.1679 H         1 UNK         0.3000 
    150 H150       -2.2165  -21.3716  -42.1161 H         1 UNK         0.0600 
    151 H151        0.3415  -20.2591  -40.8498 H         1 UNK         0.0600 
    152 H152       -0.7559  -21.3986  -40.0775 H         1 UNK         0.0600 
    153 H153       -1.3111  -19.7786  -40.4683 H         1 UNK         0.0600 
    154 H154       -0.6229  -19.1570  -42.8544 H         1 UNK         0.3000 
    155 H155       -1.4162  -19.1733  -46.3743 H         1 UNK         0.0600 
    156 H156       -3.2188  -17.9798  -45.1760 H         1 UNK         0.0600 
    157 H157       -1.9693  -16.8334  -45.6439 H         1 UNK         0.0600 
    158 H158       -2.0801  -17.3812  -43.9764 H         1 UNK         0.0600 
    159 H159        0.3027  -17.4549  -44.9706 H         1 UNK         0.3000 
    160 H160        3.3360  -19.3511  -45.2852 H         1 UNK         0.0600 
    161 H161        3.9545  -17.1450  -46.2655 H         1 UNK         0.0600 
    162 H162        2.2494  -16.7464  -46.4745 H         1 UNK         0.0600 
    163 H163        2.9614  -18.0689  -47.3845 H         1 UNK         0.0600 
    164 H164        2.6220  -16.8580  -44.0199 H         1 UNK         0.3000 
    165 H165        2.1865  -18.1923  -40.7361 H         1 UNK         0.0600 
    166 H166        3.9652  -16.5312  -40.2790 H         1 UNK         0.0600 
    167 H167        4.6517  -17.9419  -41.0684 H         1 UNK         0.0600 
    168 H168        4.3903  -16.4657  -41.9895 H         1 UNK         0.0600 
    169 H169        2.0982  -15.5266  -41.7569 H         1 UNK         0.3000 
    170 H170       -1.3633  -15.4646  -42.5873 H         1 UNK         0.0600 
    171 H171        0.1241  -14.2523  -40.1976 H         1 UNK         0.0600 
    172 H172       -1.3183  -15.2548  -40.0950 H         1 UNK         0.0600 
    173 H173       -1.4025  -13.6838  -40.8748 H         1 UNK         0.0600 
    174 H174        0.4259  -13.3346  -42.5254 H         1 UNK         0.3000 
    175 H175        1.2160  -12.3809  -44.2861 H         1 UNK         0.0600 
    176 H176        3.2855  -13.7715  -44.4812 H         1 UNK         0.0600 
    177 H177        2.7506  -14.3633  -46.0479 H         1 UNK         0.0600 
    178 H178        3.1285  -12.6566  -45.8291 H         1 UNK         0.0600 
    179 H179        0.9084  -12.9889  -47.0256 H         1 UNK         0.3000 
    180 H180       -1.6224  -13.2311  -47.9568 H         1 UNK         0.0600 
    181 H181       -2.8899  -10.6740  -46.8387 H         1 UNK         0.0600 
    182 H182       -3.5956  -12.2851  -46.8455 H         1 UNK         0.0600 
    183 H183       -3.3382  -11.4382  -48.3616 H         1 UNK         0.0600 
    184 H184       -0.3587  -11.9713  -49.2198 H         1 UNK         0.3000 
    185 H185        0.0984   -9.1771  -50.0105 H         1 UNK         0.0600 
    186 H186        1.1936   -7.7483  -48.3374 H         1 UNK         0.0600 
    187 H187        2.3698   -8.9988  -47.9618 H         1 UNK         0.0600 
    188 H188        2.3750   -8.2231  -49.5452 H         1 UNK         0.0600 
    189 H189        1.2296  -10.7928  -51.0084 H         1 UNK         0.3000 
    190 H190       -1.9709  -22.9426  -45.2211 H         1 UNK         0.3000 
    191 H191       -4.1316  -24.6391  -45.9450 H         1 UNK         0.0600 
    192 H192       -4.4527  -22.5561  -44.6613 H         1 UNK         0.0600 
    193 H193       -5.0878  -23.9181  -43.7517 H         1 UNK         0.0600 
    194 H194       -3.5422  -23.2090  -43.3013 H         1 UNK         0.0600 
    195 H195       -1.6041  -25.0005  -43.4056 H         1 UNK         0.3000 
    196 H196       -2.5040  -27.4811  -42.3620 H         1 UNK         0.0600 
    197 H197       -0.2070  -27.5818  -41.3735 H         1 UNK         0.0600 
    198 H198       -0.9338  -25.9965  -41.1579 H         1 UNK         0.0600 
    199 H199        0.2982  -26.2396  -42.3939 H         1 UNK         0.0600 
    200 H200       -0.2345  -26.7401  -45.0247 H         1 UNK         0.3000 
    201 H201        0.4361  -29.4758  -45.6285 H         1 UNK         0.0600 
    202 H202        1.4517  -28.4405  -47.6632 H         1 UNK         0.0600 
    203 H203        1.8968  -27.5478  -46.2172 H         1 UNK         0.0600 
    204 H204        0.6575  -26.9138  -47.2991 H         1 UNK         0.0600 
    205 H205       -2.3812  -27.6354  -46.2481 H         1 UNK         0.3000 
    206 H206       -4.2018  -27.7698  -47.4792 H         1 UNK         0.0600 
    207 H207       -4.3709  -30.1199  -46.6351 H         1 UNK         0.0600 
    208 H208       -5.0667  -29.9482  -48.2386 H         1 UNK         0.0600 
    209 H209       -3.4884  -30.6973  -48.0481 H         1 UNK         0.0600 
    210 H210       -2.1389  -26.5007  -48.5875 H         1 UNK         0.3000 
    211 H211       -2.3132  -26.9945  -51.5213 H         1 UNK         0.0600 
    212 H212        0.2589  -26.5188  -49.9142 H         1 UNK         0.0600 
    213 H213        0.1434  -26.6468  -51.6673 H         1 UNK         0.0600 
    214 H214       -0.2017  -28.0464  -50.6626 H         1 UNK         0.0600 
    215 H215       -3.9483  -25.2683  -50.2622 H         1 UNK         0.3000 
    216 H216       -3.0375  -22.5921  -49.9370 H         1 UNK         0.0600 
    217 H217       -5.4738  -22.0609  -50.0867 H         1 UNK         0.0600 
    218 H218       -5.1808  -23.4225  -49.0160 H         1 UNK         0.0600 
    219 H219       -5.8053  -23.6957  -50.6439 H         1 UNK         0.0600 
    220 H220       -3.2447  -20.7710  -51.2757 H         1 UNK         0.3000 
    221 H221       -2.6165  -21.1303  -54.0659 H         1 UNK         0.0600 
    222 H222       -3.2654  -18.6051  -52.4405 H         1 UNK         0.0600 
    223 H223       -1.6554  -19.2904  -52.6506 H         1 UNK         0.0600 
    224 H224       -2.5203  -18.6402  -54.0328 H         1 UNK         0.0600 
    225 H225       -3.8145  -20.2157  -55.8424 H         1 UNK         0.3000 
    226 H226       -6.6518  -20.7856  -55.8038 H         1 UNK         0.0600 
    227 H227       -5.1933  -21.4440  -57.6954 H         1 UNK         0.0600 
    228 H228       -4.8061  -19.7545  -58.0205 H         1 UNK         0.0600 
    229 H229       -6.4487  -20.3467  -58.2426 H         1 UNK         0.0600 
    230 H230       -6.6386  -18.9808  -54.0222 H         1 UNK         0.3000 
    231 H231       -7.5730  -17.1634  -53.2077 H         1 UNK         0.0600 
    232 H232       -8.7163  -16.5684  -55.9861 H         1 UNK         0.0600 
    233 H233       -9.2930  -15.9280  -54.4559 H         1 UNK         0.0600 
    234 H234       -9.4505  -17.6425  -54.7954 H         1 UNK         0.0600 
    235 H235       -4.9740  -16.9512  -55.0921 H         1 UNK         0.3000 
    236 H236       -4.6390  -14.2666  -55.7998 H         1 UNK         0.0600 
    237 H237       -2.5179  -16.3331  -54.9974 H         1 UNK         0.0600 
    238 H238       -3.1989  -16.1244  -56.6118 H         1 UNK         0.0600 
    239 H239       -2.2139  -14.8556  -55.9008 H         1 UNK         0.0600 
    240 H240       -4.1605  -15.8084  -52.6641 H         1 UNK         0.3000 
    241 H241       -3.1012  -13.3484  -51.4351 H         1 UNK         0.0600 
    242 H242       -6.2247  -14.0460  -52.3123 H         1 UNK         0.3800 
    243 H243       -7.0099  -13.3630  -50.9130 H         1 UNK         0.3800 
    244 H244       -2.7171  -14.6949  -49.4413 H         1 UNK         0.0800 
    245 H245       -1.9481  -15.3722  -50.8454 H         1 UNK         0.0800 
    246 H246       -2.5507  -16.6373  -47.9558 H         1 UNK         0.0800 
    247 H247       -3.1932  -18.2383  -48.2088 H         1 UNK         0.0800 
@<TRIPOS>BOND
     1    1    2 1    
     2    1  127 1    
     3    1  128 1    
     4    1  129 1    
     5    2    3 2    
     6    2    4 am   BACKBONE|DICT|INTERRES
     7    4    5 1    
     8    4  130 1    
     9    5    6 1    
    10    5   65 1    
    11    5  131 1    
    12    6    7 1    
    13    6  132 1    
    14    6  133 1    
    15    7    8 1    
    16    8    9 1    
    17    8  134 1    
    18    8  135 1    
    19    9   10 ar   
    20    9   14 ar   
    21   10   11 ar   
    22   10  136 1    
    23   11   12 ar   
    24   11  126 1    
    25   12   13 ar   
    26   12  137 1    
    27   13   14 ar   
    28   13   15 1    
    29   14  138 1    
    30   15   16 1    
    31   15  139 1    
    32   15  140 1    
    33   16   17 1    
    34   17   18 1    
    35   17  141 1    
    36   17  142 1    
    37   18   19 1    
    38   18   67 1    
    39   18  143 1    
    40   19   20 am   BACKBONE|DICT|INTERRES
    41   19  144 1    
    42   20   21 2    
    43   20   22 1    
    44   22   23 1    
    45   22   24 1    
    46   22  145 1    
    47   23  146 1    
    48   23  147 1    
    49   23  148 1    
    50   24   25 am   BACKBONE|DICT|INTERRES
    51   24  149 1    
    52   25   26 2    
    53   25   27 1    
    54   27   28 1    
    55   27   29 1    
    56   27  150 1    
    57   28  151 1    
    58   28  152 1    
    59   28  153 1    
    60   29   30 am   BACKBONE|DICT|INTERRES
    61   29  154 1    
    62   30   31 2    
    63   30   32 1    
    64   32   33 1    
    65   32   34 1    
    66   32  155 1    
    67   33  156 1    
    68   33  157 1    
    69   33  158 1    
    70   34   35 am   BACKBONE|DICT|INTERRES
    71   34  159 1    
    72   35   36 2    
    73   35   37 1    
    74   37   38 1    
    75   37   39 1    
    76   37  160 1    
    77   38  161 1    
    78   38  162 1    
    79   38  163 1    
    80   39   40 am   BACKBONE|DICT|INTERRES
    81   39  164 1    
    82   40   41 2    
    83   40   42 1    
    84   42   43 1    
    85   42   44 1    
    86   42  165 1    
    87   43  166 1    
    88   43  167 1    
    89   43  168 1    
    90   44   45 am   BACKBONE|DICT|INTERRES
    91   44  169 1    
    92   45   46 2    
    93   45   47 1    
    94   47   48 1    
    95   47   49 1    
    96   47  170 1    
    97   48  171 1    
    98   48  172 1    
    99   48  173 1    
   100   49   50 am   BACKBONE|DICT|INTERRES
   101   49  174 1    
   102   50   51 2    
   103   50   52 1    
   104   52   53 1    
   105   52   54 1    
   106   52  175 1    
   107   53  176 1    
   108   53  177 1    
   109   53  178 1    
   110   54   55 am   BACKBONE|DICT|INTERRES
   111   54  179 1    
   112   55   56 2    
   113   55   57 1    
   114   57   58 1    
   115   57   59 1    
   116   57  180 1    
   117   58  181 1    
   118   58  182 1    
   119   58  183 1    
   120   59   60 am   BACKBONE|DICT|INTERRES
   121   59  184 1    
   122   60   61 2    
   123   60   62 1    
   124   62   63 1    
   125   62   64 1    
   126   62  185 1    
   127   63  186 1    
   128   63  187 1    
   129   63  188 1    
   130   64   65 am   BACKBONE|DICT|INTERRES
   131   64  189 1    
   132   65   66 2    
   133   67   68 2    
   134   67   69 am   BACKBONE|DICT|INTERRES
   135   69   70 1    
   136   69  190 1    
   137   70   71 1    
   138   70   72 1    
   139   70  191 1    
   140   71  192 1    
   141   71  193 1    
   142   71  194 1    
   143   72   73 2    
   144   72   74 am   BACKBONE|DICT|INTERRES
   145   74   75 1    
   146   74  195 1    
   147   75   76 1    
   148   75   77 1    
   149   75  196 1    
   150   76  197 1    
   151   76  198 1    
   152   76  199 1    
   153   77   78 2    
   154   77   79 am   BACKBONE|DICT|INTERRES
   155   79   80 1    
   156   79  200 1    
   157   80   81 1    
   158   80   82 1    
   159   80  201 1    
   160   81  202 1    
   161   81  203 1    
   162   81  204 1    
   163   82   83 2    
   164   82   84 am   BACKBONE|DICT|INTERRES
   165   84   85 1    
   166   84  205 1    
   167   85   86 1    
   168   85   87 1    
   169   85  206 1    
   170   86  207 1    
   171   86  208 1    
   172   86  209 1    
   173   87   88 2    
   174   87   89 am   BACKBONE|DICT|INTERRES
   175   89   90 1    
   176   89  210 1    
   177   90   91 1    
   178   90   92 1    
   179   90  211 1    
   180   91  212 1    
   181   91  213 1    
   182   91  214 1    
   183   92   93 2    
   184   92   94 am   BACKBONE|DICT|INTERRES
   185   94   95 1    
   186   94  215 1    
   187   95   96 1    
   188   95   97 1    
   189   95  216 1    
   190   96  217 1    
   191   96  218 1    
   192   96  219 1    
   193   97   98 2    
   194   97   99 am   BACKBONE|DICT|INTERRES
   195   99  100 1    
   196   99  220 1    
   197  100  101 1    
   198  100  102 1    
   199  100  221 1    
   200  101  222 1    
   201  101  223 1    
   202  101  224 1    
   203  102  103 2    
   204  102  104 am   BACKBONE|DICT|INTERRES
   205  104  105 1    
   206  104  225 1    
   207  105  106 1    
   208  105  107 1    
   209  105  226 1    
   210  106  227 1    
   211  106  228 1    
   212  106  229 1    
   213  107  108 2    
   214  107  109 am   BACKBONE|DICT|INTERRES
   215  109  110 1    
   216  109  230 1    
   217  110  111 1    
   218  110  112 1    
   219  110  231 1    
   220  111  232 1    
   221  111  233 1    
   222  111  234 1    
   223  112  113 2    
   224  112  114 am   BACKBONE|DICT|INTERRES
   225  114  115 1    
   226  114  235 1    
   227  115  116 1    
   228  115  117 1    
   229  115  236 1    
   230  116  237 1    
   231  116  238 1    
   232  116  239 1    
   233  117  118 2    
   234  117  119 am   BACKBONE|DICT|INTERRES
   235  119  120 1    
   236  119  240 1    
   237  120  121 1    
   238  120  124 1    
   239  120  241 1    
   240  121  122 am   BACKBONE|DICT|INTERRES
   241  121  123 2    
   242  122  242 1    
   243  122  243 1    
   244  124  125 1    
   245  124  244 1    
   246  124  245 1    
   247  125  126 1    
   248  126  246 1    
   249  126  247 1    
@<TRIPOS>SUBSTRUCTURE
     1 UNK         1 GROUP             0       ****    0 ROOT    
