@<TRIPOS>MOLECULE
3R540
247   249    1
SMALL
USER_CHARGES


@<TRIPOS>ATOM
      1 CA         -2.5187  -12.9511  -51.3068 C.3       0 UNK        -0.1800 
      2 C          -2.8706  -14.2254  -50.5452 C.2       0 UNK         0.5000 
      3 O          -3.6293  -15.0461  -51.0579 O.2       0 UNK        -0.5000 
      4 N          -2.3418  -14.4497  -49.3373 N.am      1 UNK        -0.5000 
      5 CA         -1.3073  -13.6672  -48.6552 C.3       1 UNK         0.1400 
      6 C6         -0.0141  -14.4932  -48.4168 C.3       23 UNK        -0.0398 
      7 S7          0.6992  -15.2385  -49.9237 S.3       23 UNK        -0.2404 
      8 C8         -0.2342  -16.7999  -49.9830 C.3       23 UNK        -0.0205 
      9 C9          0.5579  -17.9217  -50.6237 C.ar      23 UNK        -0.0193 
     10 C10         0.4539  -18.1671  -51.9925 C.ar      23 UNK        -0.1150 
     11 C11         1.1127  -19.2559  -52.5651 C.ar      23 UNK        -0.0193 
     12 C12         1.8770  -20.1025  -51.7560 C.ar      23 UNK        -0.1150 
     13 C13         1.9891  -19.8731  -50.3796 C.ar      23 UNK        -0.0193 
     14 C14         1.3462  -18.7559  -49.8297 C.ar      23 UNK        -0.1150 
     15 C15         2.7814  -20.8819  -49.5413 C.3       23 UNK        -0.0205 
     16 S16         2.8457  -20.5949  -47.7342 S.3       23 UNK        -0.2404 
     17 C17         1.1077  -20.8414  -47.2260 C.3       23 UNK        -0.0398 
     18 CA          0.8055  -22.2878  -46.7803 C.3       11 UNK         0.1400 
     19 N           1.6223  -22.7153  -45.6426 N.am      11 UNK        -0.5000 
     20 C           1.7254  -23.9829  -45.2205 C.2       10 UNK         0.5000 
     21 O           1.1592  -24.9322  -45.7610 O.2       10 UNK        -0.5000 
     22 CA          2.5603  -24.2171  -43.9492 C.3       10 UNK         0.1400 
     23 CB          4.0543  -24.3120  -44.2919 C.3       10 UNK        -0.1800 
     24 N           2.3563  -23.1723  -42.9434 N.am      10 UNK        -0.5000 
     25 C           1.1919  -22.9324  -42.3232 C.2       9 UNK         0.5000 
     26 O           0.1670  -23.5835  -42.5199 O.2       9 UNK        -0.5000 
     27 CA          1.1515  -21.7344  -41.3599 C.3       9 UNK         0.1400 
     28 CB          1.5542  -22.1584  -39.9408 C.3       9 UNK        -0.1800 
     29 N           2.0037  -20.6279  -41.7961 N.am      9 UNK        -0.5000 
     30 C           1.7845  -19.8681  -42.8756 C.2       8 UNK         0.5000 
     31 O           0.7857  -19.9733  -43.5940 O.2       8 UNK        -0.5000 
     32 CA          2.8514  -18.7940  -43.1542 C.3       8 UNK         0.1400 
     33 CB          2.7265  -18.1596  -44.5490 C.3       8 UNK        -0.1800 
     34 N           2.7766  -17.7428  -42.1447 N.am      8 UNK        -0.5000 
     35 C           3.3713  -17.7795  -40.9451 C.2       7 UNK         0.5000 
     36 O           4.0692  -18.7198  -40.5625 O.2       7 UNK        -0.5000 
     37 CA          3.1121  -16.5931  -40.0069 C.3       7 UNK         0.1400 
     38 CB          3.9437  -15.3661  -40.4151 C.3       7 UNK        -0.1800 
     39 N           1.6926  -16.2504  -40.0000 N.am      7 UNK        -0.5000 
     40 C           0.9908  -15.8924  -38.9195 C.2       6 UNK         0.5000 
     41 O           1.4773  -15.7490  -37.7969 O.2       6 UNK        -0.5000 
     42 CA         -0.5195  -15.6743  -39.1263 C.3       6 UNK         0.1400 
     43 CB         -0.7958  -14.2465  -39.6224 C.3       6 UNK        -0.1800 
     44 N          -1.1140  -16.6275  -40.0643 N.am      6 UNK        -0.5000 
     45 C          -1.2185  -17.9498  -39.8796 C.2       5 UNK         0.5000 
     46 O          -0.8341  -18.5265  -38.8622 O.2       5 UNK        -0.5000 
     47 CA         -1.8400  -18.7814  -41.0209 C.3       5 UNK         0.1400 
     48 CB         -3.3635  -18.9247  -40.8363 C.3       5 UNK        -0.1800 
     49 N          -1.4894  -18.3169  -42.3720 N.am      5 UNK        -0.5000 
     50 C          -1.8793  -17.1966  -42.9942 C.2       4 UNK         0.5000 
     51 O          -2.6560  -16.3695  -42.5129 O.2       4 UNK        -0.5000 
     52 CA         -1.2357  -16.9212  -44.3635 C.3       4 UNK         0.1400 
     53 CB         -2.2587  -17.0864  -45.4963 C.3       4 UNK        -0.1800 
     54 N          -0.6404  -15.5822  -44.4205 N.am      4 UNK        -0.5000 
     55 C           0.3261  -15.1385  -43.5996 C.2       3 UNK         0.5000 
     56 O           0.8304  -15.8297  -42.7129 O.2       3 UNK        -0.5000 
     57 CA          0.8596  -13.7073  -43.7996 C.3       3 UNK         0.1400 
     58 CB          2.2944  -13.7560  -44.3483 C.3       3 UNK        -0.1800 
     59 N           0.0456  -12.8913  -44.6987 N.am      3 UNK        -0.5000 
     60 C          -1.1043  -12.2856  -44.3713 C.2       2 UNK         0.5000 
     61 O          -1.6033  -12.3259  -43.2470 O.2       2 UNK        -0.5000 
     62 CA         -1.8208  -11.5155  -45.5016 C.3       2 UNK         0.1400 
     63 CB         -1.4791  -10.0192  -45.4337 C.3       2 UNK        -0.1800 
     64 N          -1.4923  -12.0226  -46.8403 N.am      2 UNK        -0.5000 
     65 C          -1.8709  -13.2237  -47.2964 C.2       1 UNK         0.5000 
     66 O          -2.5748  -14.0031  -46.6509 O.2       1 UNK        -0.5000 
     67 C          -0.6969  -22.4500  -46.4839 C.2       11 UNK         0.5000 
     68 O          -1.4386  -22.8977  -47.3576 O.2       11 UNK        -0.5000 
     69 N          -1.1123  -22.1201  -45.2521 N.am      12 UNK        -0.5000 
     70 CA         -2.4842  -22.3026  -44.7774 C.3       12 UNK         0.1400 
     71 CB         -2.6738  -21.5738  -43.4419 C.3       12 UNK        -0.1800 
     72 C          -2.8781  -23.7861  -44.6658 C.2       12 UNK         0.5000 
     73 O          -3.9811  -24.1469  -45.0748 O.2       12 UNK        -0.5000 
     74 N          -1.9567  -24.6258  -44.1718 N.am      13 UNK        -0.5000 
     75 CA         -2.1053  -26.0822  -44.1015 C.3       13 UNK         0.1400 
     76 CB         -0.9401  -26.6781  -43.2974 C.3       13 UNK        -0.1800 
     77 C          -2.2058  -26.7427  -45.4907 C.2       13 UNK         0.5000 
     78 O          -2.9835  -27.6816  -45.6634 O.2       13 UNK        -0.5000 
     79 N          -1.4495  -26.2146  -46.4628 N.am      14 UNK        -0.5000 
     80 CA         -1.5035  -26.6016  -47.8748 C.3       14 UNK         0.1400 
     81 CB         -0.2146  -26.1263  -48.5650 C.3       14 UNK        -0.1800 
     82 C          -2.7412  -26.0554  -48.6194 C.2       14 UNK         0.5000 
     83 O          -3.0031  -26.4937  -49.7402 O.2       14 UNK        -0.5000 
     84 N          -3.4605  -25.1065  -48.0003 N.am      15 UNK        -0.5000 
     85 CA         -4.6018  -24.3511  -48.5273 C.3       15 UNK         0.1400 
     86 CB         -5.8129  -25.2758  -48.7692 C.3       15 UNK        -0.1800 
     87 C          -4.2338  -23.4903  -49.7554 C.2       15 UNK         0.5000 
     88 O          -5.0384  -23.3469  -50.6779 O.2       15 UNK        -0.5000 
     89 N          -3.0148  -22.9378  -49.7457 N.am      16 UNK        -0.5000 
     90 CA         -2.4884  -22.0600  -50.7848 C.3       16 UNK         0.1400 
     91 CB         -0.9561  -22.0857  -50.7158 C.3       16 UNK        -0.1800 
     92 C          -3.0248  -20.6253  -50.6280 C.2       16 UNK         0.5000 
     93 O          -3.2914  -20.1792  -49.5092 O.2       16 UNK        -0.5000 
     94 N          -3.1526  -19.9275  -51.7584 N.am      17 UNK        -0.5000 
     95 CA         -3.6575  -18.5669  -51.8851 C.3       17 UNK         0.1400 
     96 CB         -5.1863  -18.5358  -51.7162 C.3       17 UNK        -0.1800 
     97 C          -3.2499  -18.0739  -53.2757 C.2       17 UNK         0.5000 
     98 O          -3.3792  -18.8315  -54.2448 O.2       17 UNK        -0.5000 
     99 N          -2.7517  -16.8346  -53.3515 N.am      18 UNK        -0.5000 
    100 CA        -2.1843  -16.2451  -54.5639 C.3       18 UNK         0.1400 
    101 CB        -1.5334  -14.8972  -54.2254 C.3       18 UNK        -0.1800 
    102 C         -3.2511  -16.0910  -55.6594 C.2       18 UNK         0.5000 
    103 O         -4.2785  -15.4530  -55.4197 O.2       18 UNK        -0.5000 
    104 N         -3.0078  -16.7297  -56.8120 N.am      19 UNK        -0.5000 
    105 CA        -3.8803  -16.8852  -57.9855 C.3       19 UNK         0.1400 
    106 CB        -4.2303  -15.5235  -58.6149 C.3       19 UNK        -0.1800 
    107 C         -5.1511  -17.7254  -57.7348 C.2       19 UNK         0.5000 
    108 O         -5.5038  -18.5454  -58.5825 O.2       19 UNK        -0.5000 
    109 N         -5.8018  -17.5271  -56.5821 N.am      20 UNK        -0.5000 
    110 CA        -7.0344  -18.1894  -56.1563 C.3       20 UNK         0.1400 
    111 CB        -7.5216  -17.5433  -54.8510 C.3       20 UNK        -0.1800 
    112 C         -6.9017  -19.7147  -55.9921 C.2       20 UNK         0.5000 
    113 O         -7.8545  -20.4328  -56.2994 O.2       20 UNK        -0.5000 
    114 N         -5.7319  -20.1782  -55.5337 N.am      21 UNK        -0.5000 
    115 CA        -5.3901  -21.5975  -55.4298 C.3       21 UNK         0.1400 
    116 CB        -5.2815  -21.9985  -53.9521 C.3       21 UNK        -0.1800 
    117 C         -4.0868  -21.9082  -56.1810 C.2       21 UNK         0.5000 
    118 O         -3.9925  -22.9660  -56.8046 O.2       21 UNK        -0.5000 
    119 N         -3.1144  -20.9872  -56.1313 N.am      22 UNK        -0.5000 
    120 CA        -1.8112  -21.1162  -56.8076 C.3       22 UNK         0.1400 
    121 C         -1.8483  -20.8969  -58.3503 C.2       22 UNK         0.5000 
    122 N         -2.9551  -20.4697  -58.9456 N.am      22 UNK        -0.7600 
    123 O         -0.8485  -21.1257  -59.0254 O.2       22 UNK        -0.5000 
    124 C124       -0.7319  -20.2160  -56.1551 C.3       23 UNK        -0.0398 
    125 S125       -0.4968  -20.5541  -54.3799 S.3       23 UNK        -0.2404 
    126 C126        0.9659  -19.5263  -54.0518 C.3       23 UNK        -0.0205 
    127 H127       -3.1600  -12.8399  -52.1809 H         1 UNK         0.0600 
    128 H128       -1.4826  -12.9797  -51.6446 H         1 UNK         0.0600 
    129 H129       -2.6663  -12.0689  -50.6840 H         1 UNK         0.0600 
    130 H130       -2.6808  -15.2349  -48.7998 H         1 UNK         0.3000 
    131 H131       -1.0402  -12.7759  -49.2229 H         1 UNK         0.0600 
    132 H132        0.7573  -13.8521  -47.9868 H         1 UNK         0.0800 
    133 H133       -0.1775  -15.2826  -47.6806 H         1 UNK         0.0800 
    134 H134       -0.5370  -17.1068  -48.9811 H         1 UNK         0.0800 
    135 H135       -1.1570  -16.6438  -50.5407 H         1 UNK         0.0800 
    136 H136       -0.1547  -17.5226  -52.6094 H         1 UNK         0.1150 
    137 H137        2.3654  -20.9603  -52.1971 H         1 UNK         0.1150 
    138 H138        1.4197  -18.5377  -48.7753 H         1 UNK         0.1150 
    139 H139        2.3747  -21.8794  -49.7148 H         1 UNK         0.0800 
    140 H140        3.8072  -20.9011  -49.9115 H         1 UNK         0.0800 
    141 H141        0.4465  -20.5574  -48.0438 H         1 UNK         0.0800 
    142 H142        0.8933  -20.1414  -46.4165 H         1 UNK         0.0800 
    143 H143        1.0379  -22.9479  -47.6190 H         1 UNK         0.0600 
    144 H144        2.1133  -21.9912  -45.1409 H         1 UNK         0.3000 
    145 H145        2.2467  -25.1691  -43.5157 H         1 UNK         0.0600 
    146 H146        4.6468  -24.5533  -43.4092 H         1 UNK         0.0600 
    147 H147        4.2359  -25.0964  -45.0280 H         1 UNK         0.0600 
    148 H148        4.4344  -23.3778  -44.7073 H         1 UNK         0.0600 
    149 H149        3.1505  -22.5914  -42.7194 H         1 UNK         0.3000 
    150 H150        0.1210  -21.3816  -41.3281 H         1 UNK         0.0600 
    151 H151        0.9236  -22.9733  -39.5828 H         1 UNK         0.0600 
    152 H152        1.4450  -21.3315  -39.2384 H         1 UNK         0.0600 
    153 H153        2.5891  -22.5002  -39.8996 H         1 UNK         0.0600 
    154 H154        2.8183  -20.4241  -41.2290 H         1 UNK         0.3000 
    155 H155        3.8287  -19.2790  -43.1057 H         1 UNK         0.0600 
    156 H156        1.7875  -17.6263  -44.6780 H         1 UNK         0.0600 
    157 H157        3.5345  -17.4506  -44.7294 H         1 UNK         0.0600 
    158 H158        2.7850  -18.9189  -45.3269 H         1 UNK         0.0600 
    159 H159        2.1728  -16.9570  -42.3751 H         1 UNK         0.3000 
    160 H160        3.4222  -16.9049  -39.0071 H         1 UNK         0.0600 
    161 H161        3.8199  -14.5530  -39.6998 H         1 UNK         0.0600 
    162 H162        3.6542  -14.9926  -41.3978 H         1 UNK         0.0600 
    163 H163        5.0064  -15.6083  -40.4528 H         1 UNK         0.0600 
    164 H164        1.2078  -16.3091  -40.8902 H         1 UNK         0.3000 
    165 H165       -1.0106  -15.8039  -38.1598 H         1 UNK         0.0600 
    166 H166       -1.8664  -14.0556  -39.6983 H         1 UNK         0.0600 
    167 H167       -0.3814  -13.5068  -38.9363 H         1 UNK         0.0600 
    168 H168       -0.3551  -14.0683  -40.6040 H         1 UNK         0.0600 
    169 H169       -1.4992  -16.2489  -40.9235 H         1 UNK         0.3000 
    170 H170       -1.4161  -19.7811  -40.9387 H         1 UNK         0.0600 
    171 H171       -3.5919  -19.4221  -39.8930 H         1 UNK         0.0600 
    172 H172       -3.8678  -17.9584  -40.8197 H         1 UNK         0.0600 
    173 H173       -3.8083  -19.5203  -41.6325 H         1 UNK         0.0600 
    174 H174       -0.8055  -18.8966  -42.8483 H         1 UNK         0.3000 
    175 H175       -0.4415  -17.6490  -44.5291 H         1 UNK         0.0600 
    176 H176       -1.8008  -16.9229  -46.4718 H         1 UNK         0.0600 
    177 H177       -3.0888  -16.3865  -45.3924 H         1 UNK         0.0600 
    178 H178       -2.6772  -18.0938  -45.4988 H         1 UNK         0.0600 
    179 H179       -1.0573  -14.9348  -45.0742 H         1 UNK         0.3000 
    180 H180        0.8854  -13.2305  -42.8174 H         1 UNK         0.0600 
    181 H181        2.3332  -14.2206  -45.3344 H         1 UNK         0.0600 
    182 H182        2.9486  -14.3307  -43.6915 H         1 UNK         0.0600 
    183 H183        2.7197  -12.7556  -44.4303 H         1 UNK         0.0600 
    184 H184        0.3912  -12.7774  -45.6391 H         1 UNK         0.3000 
    185 H185       -2.8960  -11.6280  -45.3460 H         1 UNK         0.0600 
    186 H186       -1.7362   -9.6039  -44.4582 H         1 UNK         0.0600 
    187 H187       -0.4155   -9.8404  -45.5962 H         1 UNK         0.0600 
    188 H188       -2.0341   -9.4532  -46.1821 H         1 UNK         0.0600 
    189 H189       -0.9167  -11.4259  -47.4178 H         1 UNK         0.3000 
    190 H190       -0.4426  -21.7507  -44.5904 H         1 UNK         0.3000 
    191 H191       -3.1539  -21.8411  -45.5066 H         1 UNK         0.0600 
    192 H192       -2.5208  -20.5039  -43.5682 H         1 UNK         0.0600 
    193 H193       -3.6858  -21.7134  -43.0600 H         1 UNK         0.0600 
    194 H194       -1.9820  -21.9296  -42.6789 H         1 UNK         0.0600 
    195 H195       -1.0963  -24.2391  -43.7928 H         1 UNK         0.3000 
    196 H196       -3.0322  -26.2963  -43.5655 H         1 UNK         0.0600 
    197 H197       -1.0431  -27.7597  -43.2032 H         1 UNK         0.0600 
    198 H198       -0.9053  -26.2650  -42.2891 H         1 UNK         0.0600 
    199 H199        0.0206  -26.4795  -43.7729 H         1 UNK         0.0600 
    200 H200       -0.7788  -25.4937  -46.2188 H         1 UNK         0.3000 
    201 H201       -1.5402  -27.6912  -47.9342 H         1 UNK         0.0600 
    202 H202        0.6690  -26.5449  -48.0829 H         1 UNK         0.0600 
    203 H203       -0.1249  -25.0400  -48.5438 H         1 UNK         0.0600 
    204 H204       -0.1913  -26.4364  -49.6104 H         1 UNK         0.0600 
    205 H205       -3.1468  -24.8149  -47.0839 H         1 UNK         0.3000 
    206 H206       -4.8813  -23.6462  -47.7432 H         1 UNK         0.0600 
    207 H207       -6.0462  -25.8592  -47.8784 H         1 UNK         0.0600 
    208 H208       -6.7024  -24.6963  -49.0187 H         1 UNK         0.0600 
    209 H209       -5.6363  -25.9711  -49.5901 H         1 UNK         0.0600 
    210 H210       -2.4421  -23.0394  -48.9107 H         1 UNK         0.3000 
    211 H211       -2.7936  -22.4486  -51.7589 H         1 UNK         0.0600 
    212 H212       -0.5891  -21.6722  -49.7779 H         1 UNK         0.0600 
    213 H213       -0.5259  -21.4982  -51.5248 H         1 UNK         0.0600 
    214 H214       -0.5701  -23.1008  -50.8100 H         1 UNK         0.0600 
    215 H215       -2.8560  -20.3327  -52.6374 H         1 UNK         0.3000 
    216 H216       -3.1903  -17.9394  -51.1236 H         1 UNK         0.0600 
    217 H217       -5.5697  -17.5231  -51.8470 H         1 UNK         0.0600 
    218 H218       -5.4835  -18.8669  -50.7213 H         1 UNK         0.0600 
    219 H219       -5.6839  -19.1779  -52.4441 H         1 UNK         0.0600 
    220 H220       -2.8164  -16.2313  -52.5390 H         1 UNK         0.3000 
    221 H221       -1.3999  -16.9173  -54.9181 H         1 UNK         0.0600 
    222 H222       -0.8039  -14.9968  -53.4210 H         1 UNK         0.0600 
    223 H223       -1.0111  -14.4902  -55.0919 H         1 UNK         0.0600 
    224 H224       -2.2771  -14.1621  -53.9197 H         1 UNK         0.0600 
    225 H225       -2.1361  -17.2336  -56.8814 H         1 UNK         0.3000 
    226 H226       -3.2868  -17.4358  -58.7172 H         1 UNK         0.0600 
    227 H227       -3.3306  -14.9534  -58.8462 H         1 UNK         0.0600 
    228 H228       -4.7787  -15.6580  -59.5480 H         1 UNK         0.0600 
    229 H229       -4.8535  -14.9159  -57.9584 H         1 UNK         0.0600 
    230 H230       -5.4294  -16.8097  -55.9653 H         1 UNK         0.3000 
    231 H231       -7.7867  -18.0089  -56.9269 H         1 UNK         0.0600 
    232 H232       -6.7757  -17.6270  -54.0610 H         1 UNK         0.0600 
    233 H233       -8.4366  -18.0179  -54.4941 H         1 UNK         0.0600 
    234 H234       -7.7386  -16.4845  -54.9934 H         1 UNK         0.0600 
    235 H235       -5.0068  -19.5154  -55.2842 H         1 UNK         0.3000 
    236 H236       -6.1686  -22.2124  -55.8860 H         1 UNK         0.0600 
    237 H237       -6.2127  -21.8064  -53.4192 H         1 UNK         0.0600 
    238 H238       -5.0595  -23.0613  -53.8483 H         1 UNK         0.0600 
    239 H239       -4.4897  -21.4495  -53.4491 H         1 UNK         0.0600 
    240 H240       -3.2263  -20.1682  -55.5412 H         1 UNK         0.3000 
    241 H241       -1.4821  -22.1486  -56.6741 H         1 UNK         0.0600 
    242 H242       -3.7974  -20.2921  -58.4208 H         1 UNK         0.3800 
    243 H243       -2.9584  -20.3463  -59.9457 H         1 UNK         0.3800 
    244 H244        0.2310  -20.3542  -56.6506 H         1 UNK         0.0800 
    245 H245       -0.9941  -19.1643  -56.2742 H         1 UNK         0.0800 
    246 H246        0.8808  -18.5797  -54.5879 H         1 UNK         0.0800 
    247 H247        1.8556  -20.0242  -54.4401 H         1 UNK         0.0800 
@<TRIPOS>BOND
     1    1    2 1    
     2    1  127 1    
     3    1  128 1    
     4    1  129 1    
     5    2    3 2    
     6    2    4 am   BACKBONE|DICT|INTERRES
     7    4    5 1    
     8    4  130 1    
     9    5    6 1    
    10    5   65 1    
    11    5  131 1    
    12    6    7 1    
    13    6  132 1    
    14    6  133 1    
    15    7    8 1    
    16    8    9 1    
    17    8  134 1    
    18    8  135 1    
    19    9   10 ar   
    20    9   14 ar   
    21   10   11 ar   
    22   10  136 1    
    23   11   12 ar   
    24   11  126 1    
    25   12   13 ar   
    26   12  137 1    
    27   13   14 ar   
    28   13   15 1    
    29   14  138 1    
    30   15   16 1    
    31   15  139 1    
    32   15  140 1    
    33   16   17 1    
    34   17   18 1    
    35   17  141 1    
    36   17  142 1    
    37   18   19 1    
    38   18   67 1    
    39   18  143 1    
    40   19   20 am   BACKBONE|DICT|INTERRES
    41   19  144 1    
    42   20   21 2    
    43   20   22 1    
    44   22   23 1    
    45   22   24 1    
    46   22  145 1    
    47   23  146 1    
    48   23  147 1    
    49   23  148 1    
    50   24   25 am   BACKBONE|DICT|INTERRES
    51   24  149 1    
    52   25   26 2    
    53   25   27 1    
    54   27   28 1    
    55   27   29 1    
    56   27  150 1    
    57   28  151 1    
    58   28  152 1    
    59   28  153 1    
    60   29   30 am   BACKBONE|DICT|INTERRES
    61   29  154 1    
    62   30   31 2    
    63   30   32 1    
    64   32   33 1    
    65   32   34 1    
    66   32  155 1    
    67   33  156 1    
    68   33  157 1    
    69   33  158 1    
    70   34   35 am   BACKBONE|DICT|INTERRES
    71   34  159 1    
    72   35   36 2    
    73   35   37 1    
    74   37   38 1    
    75   37   39 1    
    76   37  160 1    
    77   38  161 1    
    78   38  162 1    
    79   38  163 1    
    80   39   40 am   BACKBONE|DICT|INTERRES
    81   39  164 1    
    82   40   41 2    
    83   40   42 1    
    84   42   43 1    
    85   42   44 1    
    86   42  165 1    
    87   43  166 1    
    88   43  167 1    
    89   43  168 1    
    90   44   45 am   BACKBONE|DICT|INTERRES
    91   44  169 1    
    92   45   46 2    
    93   45   47 1    
    94   47   48 1    
    95   47   49 1    
    96   47  170 1    
    97   48  171 1    
    98   48  172 1    
    99   48  173 1    
   100   49   50 am   BACKBONE|DICT|INTERRES
   101   49  174 1    
   102   50   51 2    
   103   50   52 1    
   104   52   53 1    
   105   52   54 1    
   106   52  175 1    
   107   53  176 1    
   108   53  177 1    
   109   53  178 1    
   110   54   55 am   BACKBONE|DICT|INTERRES
   111   54  179 1    
   112   55   56 2    
   113   55   57 1    
   114   57   58 1    
   115   57   59 1    
   116   57  180 1    
   117   58  181 1    
   118   58  182 1    
   119   58  183 1    
   120   59   60 am   BACKBONE|DICT|INTERRES
   121   59  184 1    
   122   60   61 2    
   123   60   62 1    
   124   62   63 1    
   125   62   64 1    
   126   62  185 1    
   127   63  186 1    
   128   63  187 1    
   129   63  188 1    
   130   64   65 am   BACKBONE|DICT|INTERRES
   131   64  189 1    
   132   65   66 2    
   133   67   68 2    
   134   67   69 am   BACKBONE|DICT|INTERRES
   135   69   70 1    
   136   69  190 1    
   137   70   71 1    
   138   70   72 1    
   139   70  191 1    
   140   71  192 1    
   141   71  193 1    
   142   71  194 1    
   143   72   73 2    
   144   72   74 am   BACKBONE|DICT|INTERRES
   145   74   75 1    
   146   74  195 1    
   147   75   76 1    
   148   75   77 1    
   149   75  196 1    
   150   76  197 1    
   151   76  198 1    
   152   76  199 1    
   153   77   78 2    
   154   77   79 am   BACKBONE|DICT|INTERRES
   155   79   80 1    
   156   79  200 1    
   157   80   81 1    
   158   80   82 1    
   159   80  201 1    
   160   81  202 1    
   161   81  203 1    
   162   81  204 1    
   163   82   83 2    
   164   82   84 am   BACKBONE|DICT|INTERRES
   165   84   85 1    
   166   84  205 1    
   167   85   86 1    
   168   85   87 1    
   169   85  206 1    
   170   86  207 1    
   171   86  208 1    
   172   86  209 1    
   173   87   88 2    
   174   87   89 am   BACKBONE|DICT|INTERRES
   175   89   90 1    
   176   89  210 1    
   177   90   91 1    
   178   90   92 1    
   179   90  211 1    
   180   91  212 1    
   181   91  213 1    
   182   91  214 1    
   183   92   93 2    
   184   92   94 am   BACKBONE|DICT|INTERRES
   185   94   95 1    
   186   94  215 1    
   187   95   96 1    
   188   95   97 1    
   189   95  216 1    
   190   96  217 1    
   191   96  218 1    
   192   96  219 1    
   193   97   98 2    
   194   97   99 am   BACKBONE|DICT|INTERRES
   195   99  100 1    
   196   99  220 1    
   197  100  101 1    
   198  100  102 1    
   199  100  221 1    
   200  101  222 1    
   201  101  223 1    
   202  101  224 1    
   203  102  103 2    
   204  102  104 am   BACKBONE|DICT|INTERRES
   205  104  105 1    
   206  104  225 1    
   207  105  106 1    
   208  105  107 1    
   209  105  226 1    
   210  106  227 1    
   211  106  228 1    
   212  106  229 1    
   213  107  108 2    
   214  107  109 am   BACKBONE|DICT|INTERRES
   215  109  110 1    
   216  109  230 1    
   217  110  111 1    
   218  110  112 1    
   219  110  231 1    
   220  111  232 1    
   221  111  233 1    
   222  111  234 1    
   223  112  113 2    
   224  112  114 am   BACKBONE|DICT|INTERRES
   225  114  115 1    
   226  114  235 1    
   227  115  116 1    
   228  115  117 1    
   229  115  236 1    
   230  116  237 1    
   231  116  238 1    
   232  116  239 1    
   233  117  118 2    
   234  117  119 am   BACKBONE|DICT|INTERRES
   235  119  120 1    
   236  119  240 1    
   237  120  121 1    
   238  120  124 1    
   239  120  241 1    
   240  121  122 am   BACKBONE|DICT|INTERRES
   241  121  123 2    
   242  122  242 1    
   243  122  243 1    
   244  124  125 1    
   245  124  244 1    
   246  124  245 1    
   247  125  126 1    
   248  126  246 1    
   249  126  247 1    
@<TRIPOS>SUBSTRUCTURE
     1 UNK         1 GROUP             0       ****    0 ROOT    
