@<TRIPOS>MOLECULE
3R540
247   249    1
SMALL
USER_CHARGES


@<TRIPOS>ATOM
      1 CA         -4.9967  -20.7494  -43.0897 C.3       0 UNK        -0.1800 
      2 C          -4.5459  -19.3976  -43.6184 C.2       0 UNK         0.5000 
      3 O          -4.5421  -18.4214  -42.8692 O.2       0 UNK        -0.5000 
      4 N          -4.1531  -19.3256  -44.8972 N.am      1 UNK        -0.5000 
      5 CA         -3.7725  -18.0814  -45.5835 C.3       1 UNK         0.1400 
      6 C6         -3.7211  -18.2594  -47.1198 C.3       23 UNK        -0.0398 
      7 S7         -2.2725  -19.1787  -47.7343 S.3       23 UNK        -0.2404 
      8 C8         -2.3512  -18.8459  -49.5277 C.3       23 UNK        -0.0205 
      9 C9         -1.0446  -19.2235  -50.2154 C.ar      23 UNK        -0.0193 
     10 C10        -0.3650  -18.3029  -51.0186 C.ar      23 UNK        -0.1150 
     11 C11         0.8819  -18.6223  -51.5682 C.ar      23 UNK        -0.0193 
     12 C12         1.4681  -19.8580  -51.2708 C.ar      23 UNK        -0.1150 
     13 C13         0.7930  -20.7903  -50.4791 C.ar      23 UNK        -0.0193 
     14 C14        -0.4821  -20.4835  -50.0034 C.ar      23 UNK        -0.1150 
     15 C15         1.4488  -22.1117  -50.1011 C.3       23 UNK        -0.0205 
     16 S16         2.5610  -21.9371  -48.6603 S.3       23 UNK        -0.2404 
     17 C17         1.4015  -21.5768  -47.2920 C.3       23 UNK        -0.0398 
     18 CA          1.3644  -22.6845  -46.2119 C.3       11 UNK         0.1400 
     19 N           2.6255  -22.7443  -45.4729 N.am      11 UNK        -0.5000 
     20 C           3.2944  -23.8583  -45.1499 C.2       10 UNK         0.5000 
     21 O           2.9147  -24.9923  -45.4424 O.2       10 UNK        -0.5000 
     22 CA          4.6000  -23.6802  -44.3428 C.3       10 UNK         0.1400 
     23 CB          5.8164  -23.7173  -45.2803 C.3       10 UNK        -0.1800 
     24 N           4.6424  -22.4392  -43.5636 N.am      10 UNK        -0.5000 
     25 C           3.8010  -22.1331  -42.5666 C.2       9 UNK         0.5000 
     26 O           2.9644  -22.9213  -42.1285 O.2       9 UNK        -0.5000 
     27 CA          3.8570  -20.6991  -41.9984 C.3       9 UNK         0.1400 
     28 CB          4.6028  -20.6850  -40.6559 C.3       9 UNK        -0.1800 
     29 N           4.4563  -19.6944  -42.8873 N.am      9 UNK        -0.5000 
     30 C           4.0370  -19.3839  -44.1221 C.2       8 UNK         0.5000 
     31 O           3.1208  -19.9741  -44.6992 O.2       8 UNK        -0.5000 
     32 CA          4.8237  -18.2720  -44.8435 C.3       8 UNK         0.1400 
     33 CB          6.2013  -18.7942  -45.2842 C.3       8 UNK        -0.1800 
     34 N           4.1212  -17.7762  -46.0263 N.am      8 UNK        -0.5000 
     35 C           3.0196  -17.0171  -46.0081 C.2       7 UNK         0.5000 
     36 O           2.5195  -16.5482  -44.9817 O.2       7 UNK        -0.5000 
     37 CA          2.3774  -16.7397  -47.3754 C.3       7 UNK         0.1400 
     38 CB          1.8799  -18.0368  -48.0342 C.3       7 UNK        -0.1800 
     39 N           1.2563  -15.8239  -47.2133 N.am      7 UNK        -0.5000 
     40 C           0.6822  -15.1009  -48.1815 C.2       6 UNK         0.5000 
     41 O           1.0815  -15.0757  -49.3463 O.2       6 UNK        -0.5000 
     42 CA         -0.5589  -14.2747  -47.7913 C.3       6 UNK         0.1400 
     43 CB         -1.8324  -14.9942  -48.2584 C.3       6 UNK        -0.1800 
     44 N          -0.6488  -14.0317  -46.3488 N.am      6 UNK        -0.5000 
     45 C           0.0839  -13.1165  -45.6972 C.2       5 UNK         0.5000 
     46 O           0.8795  -12.3638  -46.2623 O.2       5 UNK        -0.5000 
     47 CA         -0.0788  -13.0477  -44.1644 C.3       5 UNK         0.1400 
     48 CB          0.3146  -11.6774  -43.5735 C.3       5 UNK        -0.1800 
     49 N          -1.4042  -13.4613  -43.6960 N.am      5 UNK        -0.5000 
     50 C          -2.5878  -12.8704  -43.9278 C.2       4 UNK         0.5000 
     51 O          -2.7200  -11.8381  -44.5860 O.2       4 UNK        -0.5000 
     52 CA         -3.8425  -13.5482  -43.3327 C.3       4 UNK         0.1400 
     53 CB         -4.8450  -13.9226  -44.4380 C.3       4 UNK        -0.1800 
     54 N          -3.5159  -14.7527  -42.5665 N.am      4 UNK        -0.5000 
     55 C          -3.1531  -14.7755  -41.2763 C.2       3 UNK         0.5000 
     56 O          -3.1670  -13.7860  -40.5441 O.2       3 UNK        -0.5000 
     57 CA         -2.6447  -16.1225  -40.7257 C.3       3 UNK         0.1400 
     58 CB         -3.7666  -16.8670  -39.9866 C.3       3 UNK        -0.1800 
     59 N          -2.0897  -16.9821  -41.7774 N.am      3 UNK        -0.5000 
     60 C          -0.9043  -16.7698  -42.3722 C.2       2 UNK         0.5000 
     61 O          -0.1497  -15.8496  -42.0604 O.2       2 UNK        -0.5000 
     62 CA         -0.5164  -17.6929  -43.5445 C.3       2 UNK         0.1400 
     63 CB          0.3118  -18.8825  -43.0424 C.3       2 UNK        -0.1800 
     64 N          -1.6734  -18.1834  -44.2915 N.am      2 UNK        -0.5000 
     65 C          -2.5035  -17.4094  -45.0048 C.2       1 UNK         0.5000 
     66 O          -2.3243  -16.2009  -45.1665 O.2       1 UNK        -0.5000 
     67 C           0.1583  -22.4918  -45.2629 C.2       11 UNK         0.5000 
     68 O          -0.9445  -22.2463  -45.7477 O.2       11 UNK        -0.5000 
     69 N           0.3359  -22.6270  -43.9379 N.am      12 UNK        -0.5000 
     70 CA         -0.7312  -22.4484  -42.9403 C.3       12 UNK         0.1400 
     71 CB         -0.1245  -22.4564  -41.5296 C.3       12 UNK        -0.1800 
     72 C          -1.8929  -23.4608  -43.0356 C.2       12 UNK         0.5000 
     73 O          -2.9536  -23.2130  -42.4639 O.2       12 UNK        -0.5000 
     74 N          -1.6866  -24.5703  -43.7549 N.am      13 UNK        -0.5000 
     75 CA         -2.7176  -25.5582  -44.0684 C.3       13 UNK         0.1400 
     76 CB         -2.0339  -26.9159  -44.2971 C.3       13 UNK        -0.1800 
     77 C          -3.5746  -25.1771  -45.2951 C.2       13 UNK         0.5000 
     78 O          -4.6248  -25.7894  -45.4959 O.2       13 UNK        -0.5000 
     79 N          -3.1169  -24.2187  -46.1135 N.am      14 UNK        -0.5000 
     80 CA         -3.7611  -23.8305  -47.3663 C.3       14 UNK         0.1400 
     81 CB         -2.6833  -23.3805  -48.3626 C.3       14 UNK        -0.1800 
     82 C          -4.7797  -22.7010  -47.1512 C.2       14 UNK         0.5000 
     83 O          -4.5411  -21.7906  -46.3541 O.2       14 UNK        -0.5000 
     84 N          -5.8793  -22.7600  -47.9100 N.am      15 UNK        -0.5000 
     85 CA         -6.8686  -21.6904  -48.0214 C.3       15 UNK         0.1400 
     86 CB         -8.1767  -22.2866  -48.5651 C.3       15 UNK        -0.1800 
     87 C          -6.3645  -20.5748  -48.9540 C.2       15 UNK         0.5000 
     88 O          -5.4868  -20.8152  -49.7857 O.2       15 UNK        -0.5000 
     89 N          -6.9663  -19.3825  -48.8399 N.am      16 UNK        -0.5000 
     90 CA         -6.6261  -18.1821  -49.6172 C.3       16 UNK         0.1400 
     91 CB         -7.4815  -17.0054  -49.1265 C.3       16 UNK        -0.1800 
     92 C          -6.7475  -18.3453  -51.1454 C.2       16 UNK         0.5000 
     93 O          -6.0594  -17.6410  -51.8826 O.2       16 UNK        -0.5000 
     94 N          -7.5681  -19.3054  -51.5939 N.am      17 UNK        -0.5000 
     95 CA         -7.7029  -19.7201  -52.9915 C.3       17 UNK         0.1400 
     96 CB         -8.8192  -20.7705  -53.0913 C.3       17 UNK        -0.1800 
     97 C          -6.3980  -20.2618  -53.6137 C.2       17 UNK         0.5000 
     98 O          -6.2370  -20.1786  -54.8319 O.2       17 UNK        -0.5000 
     99 N          -5.4757  -20.7748  -52.7825 N.am      18 UNK        -0.5000 
    100 CA        -4.1607  -21.2579  -53.2089 C.3       18 UNK         0.1400 
    101 CB        -3.4946  -22.0339  -52.0635 C.3       18 UNK        -0.1800 
    102 C         -3.2305  -20.1382  -53.7111 C.2       18 UNK         0.5000 
    103 O         -2.3295  -20.4250  -54.4989 O.2       18 UNK        -0.5000 
    104 N         -3.4820  -18.8829  -53.3047 N.am      19 UNK        -0.5000 
    105 CA        -2.7089  -17.6984  -53.6970 C.3       19 UNK         0.1400 
    106 CB        -3.1576  -16.4958  -52.8527 C.3       19 UNK        -0.1800 
    107 C         -2.7778  -17.3593  -55.2005 C.2       19 UNK         0.5000 
    108 O         -1.9731  -16.5593  -55.6778 O.2       19 UNK        -0.5000 
    109 N         -3.7166  -17.9807  -55.9273 N.am      20 UNK        -0.5000 
    110 CA        -3.8237  -17.9193  -57.3834 C.3       20 UNK         0.1400 
    111 CB        -5.1899  -18.4863  -57.7987 C.3       20 UNK        -0.1800 
    112 C         -2.6864  -18.6643  -58.1157 C.2       20 UNK         0.5000 
    113 O         -2.4623  -18.3867  -59.2949 O.2       20 UNK        -0.5000 
    114 N         -2.0031  -19.5920  -57.4284 N.am      21 UNK        -0.5000 
    115 CA        -0.9183  -20.4049  -57.9822 C.3       21 UNK         0.1400 
    116 CB        -1.4347  -21.8319  -58.2285 C.3       21 UNK        -0.1800 
    117 C          0.3247  -20.4295  -57.0770 C.2       21 UNK         0.5000 
    118 O          1.4406  -20.4434  -57.5977 O.2       21 UNK        -0.5000 
    119 N          0.1204  -20.4506  -55.7529 N.am      22 UNK        -0.5000 
    120 CA         1.1514  -20.5584  -54.7044 C.3       22 UNK         0.1400 
    121 C          1.9227  -21.9153  -54.6800 C.2       22 UNK         0.5000 
    122 N          1.4189  -22.9739  -55.3032 N.am      22 UNK        -0.7600 
    123 O          2.9768  -22.0285  -54.0603 O.2       22 UNK        -0.5000 
    124 C124        2.0954  -19.3230  -54.6365 C.3       23 UNK        -0.0398 
    125 S125        1.2089  -17.7873  -54.2015 S.3       23 UNK        -0.2404 
    126 C126        1.6173  -17.6085  -52.4332 C.3       23 UNK        -0.0205 
    127 H127       -6.0782  -20.7581  -42.9569 H         1 UNK         0.0600 
    128 H128       -4.5320  -20.9483  -42.1240 H         1 UNK         0.0600 
    129 H129       -4.7278  -21.5601  -43.7657 H         1 UNK         0.0600 
    130 H130       -4.1646  -20.1696  -45.4691 H         1 UNK         0.3000 
    131 H131       -4.5840  -17.3770  -45.3875 H         1 UNK         0.0600 
    132 H132       -4.6142  -18.7866  -47.4478 H         1 UNK         0.0800 
    133 H133       -3.7581  -17.2837  -47.6043 H         1 UNK         0.0800 
    134 H134       -3.1761  -19.4048  -49.9684 H         1 UNK         0.0800 
    135 H135       -2.5664  -17.7885  -49.6832 H         1 UNK         0.0800 
    136 H136       -0.7900  -17.3257  -51.1961 H         1 UNK         0.1150 
    137 H137        2.4536  -20.0942  -51.6460 H         1 UNK         0.1150 
    138 H138       -1.0147  -21.2018  -49.4014 H         1 UNK         0.1150 
    139 H139        0.6926  -22.8690  -49.8880 H         1 UNK         0.0800 
    140 H140        2.0249  -22.4855  -50.9491 H         1 UNK         0.0800 
    141 H141        0.4099  -21.4147  -47.7059 H         1 UNK         0.0800 
    142 H142        1.6882  -20.6289  -46.8387 H         1 UNK         0.0800 
    143 H143        1.1897  -23.6341  -46.7217 H         1 UNK         0.0600 
    144 H144        2.9903  -21.8436  -45.1741 H         1 UNK         0.3000 
    145 H145        4.6741  -24.5183  -43.6468 H         1 UNK         0.0600 
    146 H146        6.7498  -23.6669  -44.7194 H         1 UNK         0.0600 
    147 H147        5.8357  -24.6419  -45.8588 H         1 UNK         0.0600 
    148 H148        5.8029  -22.8875  -45.9883 H         1 UNK         0.0600 
    149 H149        5.2990  -21.7354  -43.8659 H         1 UNK         0.3000 
    150 H150        2.8253  -20.3930  -41.8162 H         1 UNK         0.0600 
    151 H151        5.6542  -20.9482  -40.7780 H         1 UNK         0.0600 
    152 H152        4.1647  -21.3985  -39.9566 H         1 UNK         0.0600 
    153 H153        4.5534  -19.7023  -40.1864 H         1 UNK         0.0600 
    154 H154        5.2333  -19.1777  -42.5009 H         1 UNK         0.3000 
    155 H155        4.9635  -17.4415  -44.1483 H         1 UNK         0.0600 
    156 H156        6.1114  -19.6383  -45.9696 H         1 UNK         0.0600 
    157 H157        6.7925  -19.1267  -44.4301 H         1 UNK         0.0600 
    158 H158        6.7755  -18.0152  -45.7863 H         1 UNK         0.0600 
    159 H159        4.4416  -18.1392  -46.9116 H         1 UNK         0.3000 
    160 H160        3.1330  -16.2721  -48.0098 H         1 UNK         0.0600 
    161 H161        1.0647  -18.4860  -47.4660 H         1 UNK         0.0600 
    162 H162        2.6735  -18.7773  -48.1341 H         1 UNK         0.0600 
    163 H163        1.5091  -17.8367  -49.0355 H         1 UNK         0.0600 
    164 H164        0.9132  -15.7480  -46.2651 H         1 UNK         0.3000 
    165 H165       -0.5013  -13.3141  -48.3074 H         1 UNK         0.0600 
    166 H166       -1.8556  -15.0814  -49.3454 H         1 UNK         0.0600 
    167 H167       -1.8791  -16.0029  -47.8508 H         1 UNK         0.0600 
    168 H168       -2.7316  -14.4600  -47.9511 H         1 UNK         0.0600 
    169 H169       -1.2799  -14.6320  -45.8255 H         1 UNK         0.3000 
    170 H170        0.6200  -13.7835  -43.7642 H         1 UNK         0.0600 
    171 H171        1.3592  -11.4459  -43.7841 H         1 UNK         0.0600 
    172 H172       -0.2878  -10.8683  -43.9870 H         1 UNK         0.0600 
    173 H173        0.1944  -11.6666  -42.4902 H         1 UNK         0.0600 
    174 H174       -1.4092  -14.3079  -43.1434 H         1 UNK         0.3000 
    175 H175       -4.3228  -12.8220  -42.6738 H         1 UNK         0.0600 
    176 H176       -5.7304  -14.4035  -44.0218 H         1 UNK         0.0600 
    177 H177       -5.1820  -13.0355  -44.9756 H         1 UNK         0.0600 
    178 H178       -4.4085  -14.6000  -45.1717 H         1 UNK         0.0600 
    179 H179       -3.4581  -15.6121  -43.0947 H         1 UNK         0.3000 
    180 H180       -1.8527  -15.9082  -40.0048 H         1 UNK         0.0600 
    181 H181       -4.6260  -17.0494  -40.6319 H         1 UNK         0.0600 
    182 H182       -4.1196  -16.2863  -39.1334 H         1 UNK         0.0600 
    183 H183       -3.4210  -17.8280  -39.6054 H         1 UNK         0.0600 
    184 H184       -2.6968  -17.7180  -42.1214 H         1 UNK         0.3000 
    185 H185        0.0964  -17.1131  -44.2356 H         1 UNK         0.0600 
    186 H186        0.5671  -19.5604  -43.8569 H         1 UNK         0.0600 
    187 H187        1.2487  -18.5395  -42.6018 H         1 UNK         0.0600 
    188 H188       -0.2212  -19.4490  -42.2792 H         1 UNK         0.0600 
    189 H189       -1.8877  -19.1673  -44.2237 H         1 UNK         0.3000 
    190 H190        1.2583  -22.8447  -43.5814 H         1 UNK         0.3000 
    191 H191       -1.1740  -21.4658  -43.1105 H         1 UNK         0.0600 
    192 H192        0.3575  -23.4090  -41.3071 H         1 UNK         0.0600 
    193 H193       -0.8904  -22.2909  -40.7708 H         1 UNK         0.0600 
    194 H194        0.6178  -21.6674  -41.4132 H         1 UNK         0.0600 
    195 H195       -0.7809  -24.7051  -44.1788 H         1 UNK         0.3000 
    196 H196       -3.3920  -25.6594  -43.2153 H         1 UNK         0.0600 
    197 H197       -2.7690  -27.6955  -44.5014 H         1 UNK         0.0600 
    198 H198       -1.4698  -27.2266  -43.4175 H         1 UNK         0.0600 
    199 H199       -1.3464  -26.8831  -45.1434 H         1 UNK         0.0600 
    200 H200       -2.3088  -23.6661  -45.8455 H         1 UNK         0.3000 
    201 H201       -4.2719  -24.6961  -47.7940 H         1 UNK         0.0600 
    202 H202       -1.9317  -24.1545  -48.5175 H         1 UNK         0.0600 
    203 H203       -2.1771  -22.4824  -48.0118 H         1 UNK         0.0600 
    204 H204       -3.1217  -23.1481  -49.3332 H         1 UNK         0.0600 
    205 H205       -5.9709  -23.5152  -48.5731 H         1 UNK         0.3000 
    206 H206       -7.0537  -21.2671  -47.0317 H         1 UNK         0.0600 
    207 H207       -8.5459  -23.0818  -47.9169 H         1 UNK         0.0600 
    208 H208       -8.9605  -21.5305  -48.6248 H         1 UNK         0.0600 
    209 H209       -8.0458  -22.7032  -49.5649 H         1 UNK         0.0600 
    210 H210       -7.6999  -19.2724  -48.1544 H         1 UNK         0.3000 
    211 H211       -5.5802  -17.9447  -49.4180 H         1 UNK         0.0600 
    212 H212       -8.5460  -17.1961  -49.2680 H         1 UNK         0.0600 
    213 H213       -7.2367  -16.0906  -49.6682 H         1 UNK         0.0600 
    214 H214       -7.3117  -16.8083  -48.0678 H         1 UNK         0.0600 
    215 H215       -8.0899  -19.8369  -50.9136 H         1 UNK         0.3000 
    216 H216       -8.0008  -18.8439  -53.5710 H         1 UNK         0.0600 
    217 H217       -8.9675  -21.0867  -54.1248 H         1 UNK         0.0600 
    218 H218       -9.7697  -20.3723  -52.7357 H         1 UNK         0.0600 
    219 H219       -8.5866  -21.6609  -52.5056 H         1 UNK         0.0600 
    220 H220       -5.6567  -20.7906  -51.7832 H         1 UNK         0.3000 
    221 H221       -4.3125  -21.9502  -54.0396 H         1 UNK         0.0600 
    222 H222       -3.2850  -21.3914  -51.2091 H         1 UNK         0.0600 
    223 H223       -4.1269  -22.8527  -51.7202 H         1 UNK         0.0600 
    224 H224       -2.5456  -22.4659  -52.3840 H         1 UNK         0.0600 
    225 H225       -4.2811  -18.7158  -52.7057 H         1 UNK         0.3000 
    226 H226       -1.6634  -17.9062  -53.4693 H         1 UNK         0.0600 
    227 H227       -2.5025  -15.6394  -53.0173 H         1 UNK         0.0600 
    228 H228       -4.1713  -16.1849  -53.1071 H         1 UNK         0.0600 
    229 H229       -3.1348  -16.7220  -51.7875 H         1 UNK         0.0600 
    230 H230       -4.3500  -18.6115  -55.4547 H         1 UNK         0.3000 
    231 H231       -3.7804  -16.8712  -57.6866 H         1 UNK         0.0600 
    232 H232       -5.2923  -19.5346  -57.5148 H         1 UNK         0.0600 
    233 H233       -5.3288  -18.4230  -58.8787 H         1 UNK         0.0600 
    234 H234       -6.0057  -17.9326  -57.3335 H         1 UNK         0.0600 
    235 H235       -2.2380  -19.7471  -56.4551 H         1 UNK         0.3000 
    236 H236       -0.5914  -19.9953  -58.9403 H         1 UNK         0.0600 
    237 H237       -0.6468  -22.4711  -58.6290 H         1 UNK         0.0600 
    238 H238       -1.7992  -22.2919  -57.3090 H         1 UNK         0.0600 
    239 H239       -2.2522  -21.8339  -58.9496 H         1 UNK         0.0600 
    240 H240       -0.8317  -20.4579  -55.3927 H         1 UNK         0.3000 
    241 H241        0.5823  -20.5773  -53.7756 H         1 UNK         0.0600 
    242 H242        0.5468  -22.9089  -55.8020 H         1 UNK         0.3800 
    243 H243        1.9176  -23.8493  -55.2741 H         1 UNK         0.3800 
    244 H244        2.6011  -19.1732  -55.5905 H         1 UNK         0.0800 
    245 H245        2.8928  -19.4731  -53.9085 H         1 UNK         0.0800 
    246 H246        2.6952  -17.6950  -52.2891 H         1 UNK         0.0800 
    247 H247        1.3541  -16.5987  -52.1141 H         1 UNK         0.0800 
@<TRIPOS>BOND
     1    1    2 1    
     2    1  127 1    
     3    1  128 1    
     4    1  129 1    
     5    2    3 2    
     6    2    4 am   BACKBONE|DICT|INTERRES
     7    4    5 1    
     8    4  130 1    
     9    5    6 1    
    10    5   65 1    
    11    5  131 1    
    12    6    7 1    
    13    6  132 1    
    14    6  133 1    
    15    7    8 1    
    16    8    9 1    
    17    8  134 1    
    18    8  135 1    
    19    9   10 ar   
    20    9   14 ar   
    21   10   11 ar   
    22   10  136 1    
    23   11   12 ar   
    24   11  126 1    
    25   12   13 ar   
    26   12  137 1    
    27   13   14 ar   
    28   13   15 1    
    29   14  138 1    
    30   15   16 1    
    31   15  139 1    
    32   15  140 1    
    33   16   17 1    
    34   17   18 1    
    35   17  141 1    
    36   17  142 1    
    37   18   19 1    
    38   18   67 1    
    39   18  143 1    
    40   19   20 am   BACKBONE|DICT|INTERRES
    41   19  144 1    
    42   20   21 2    
    43   20   22 1    
    44   22   23 1    
    45   22   24 1    
    46   22  145 1    
    47   23  146 1    
    48   23  147 1    
    49   23  148 1    
    50   24   25 am   BACKBONE|DICT|INTERRES
    51   24  149 1    
    52   25   26 2    
    53   25   27 1    
    54   27   28 1    
    55   27   29 1    
    56   27  150 1    
    57   28  151 1    
    58   28  152 1    
    59   28  153 1    
    60   29   30 am   BACKBONE|DICT|INTERRES
    61   29  154 1    
    62   30   31 2    
    63   30   32 1    
    64   32   33 1    
    65   32   34 1    
    66   32  155 1    
    67   33  156 1    
    68   33  157 1    
    69   33  158 1    
    70   34   35 am   BACKBONE|DICT|INTERRES
    71   34  159 1    
    72   35   36 2    
    73   35   37 1    
    74   37   38 1    
    75   37   39 1    
    76   37  160 1    
    77   38  161 1    
    78   38  162 1    
    79   38  163 1    
    80   39   40 am   BACKBONE|DICT|INTERRES
    81   39  164 1    
    82   40   41 2    
    83   40   42 1    
    84   42   43 1    
    85   42   44 1    
    86   42  165 1    
    87   43  166 1    
    88   43  167 1    
    89   43  168 1    
    90   44   45 am   BACKBONE|DICT|INTERRES
    91   44  169 1    
    92   45   46 2    
    93   45   47 1    
    94   47   48 1    
    95   47   49 1    
    96   47  170 1    
    97   48  171 1    
    98   48  172 1    
    99   48  173 1    
   100   49   50 am   BACKBONE|DICT|INTERRES
   101   49  174 1    
   102   50   51 2    
   103   50   52 1    
   104   52   53 1    
   105   52   54 1    
   106   52  175 1    
   107   53  176 1    
   108   53  177 1    
   109   53  178 1    
   110   54   55 am   BACKBONE|DICT|INTERRES
   111   54  179 1    
   112   55   56 2    
   113   55   57 1    
   114   57   58 1    
   115   57   59 1    
   116   57  180 1    
   117   58  181 1    
   118   58  182 1    
   119   58  183 1    
   120   59   60 am   BACKBONE|DICT|INTERRES
   121   59  184 1    
   122   60   61 2    
   123   60   62 1    
   124   62   63 1    
   125   62   64 1    
   126   62  185 1    
   127   63  186 1    
   128   63  187 1    
   129   63  188 1    
   130   64   65 am   BACKBONE|DICT|INTERRES
   131   64  189 1    
   132   65   66 2    
   133   67   68 2    
   134   67   69 am   BACKBONE|DICT|INTERRES
   135   69   70 1    
   136   69  190 1    
   137   70   71 1    
   138   70   72 1    
   139   70  191 1    
   140   71  192 1    
   141   71  193 1    
   142   71  194 1    
   143   72   73 2    
   144   72   74 am   BACKBONE|DICT|INTERRES
   145   74   75 1    
   146   74  195 1    
   147   75   76 1    
   148   75   77 1    
   149   75  196 1    
   150   76  197 1    
   151   76  198 1    
   152   76  199 1    
   153   77   78 2    
   154   77   79 am   BACKBONE|DICT|INTERRES
   155   79   80 1    
   156   79  200 1    
   157   80   81 1    
   158   80   82 1    
   159   80  201 1    
   160   81  202 1    
   161   81  203 1    
   162   81  204 1    
   163   82   83 2    
   164   82   84 am   BACKBONE|DICT|INTERRES
   165   84   85 1    
   166   84  205 1    
   167   85   86 1    
   168   85   87 1    
   169   85  206 1    
   170   86  207 1    
   171   86  208 1    
   172   86  209 1    
   173   87   88 2    
   174   87   89 am   BACKBONE|DICT|INTERRES
   175   89   90 1    
   176   89  210 1    
   177   90   91 1    
   178   90   92 1    
   179   90  211 1    
   180   91  212 1    
   181   91  213 1    
   182   91  214 1    
   183   92   93 2    
   184   92   94 am   BACKBONE|DICT|INTERRES
   185   94   95 1    
   186   94  215 1    
   187   95   96 1    
   188   95   97 1    
   189   95  216 1    
   190   96  217 1    
   191   96  218 1    
   192   96  219 1    
   193   97   98 2    
   194   97   99 am   BACKBONE|DICT|INTERRES
   195   99  100 1    
   196   99  220 1    
   197  100  101 1    
   198  100  102 1    
   199  100  221 1    
   200  101  222 1    
   201  101  223 1    
   202  101  224 1    
   203  102  103 2    
   204  102  104 am   BACKBONE|DICT|INTERRES
   205  104  105 1    
   206  104  225 1    
   207  105  106 1    
   208  105  107 1    
   209  105  226 1    
   210  106  227 1    
   211  106  228 1    
   212  106  229 1    
   213  107  108 2    
   214  107  109 am   BACKBONE|DICT|INTERRES
   215  109  110 1    
   216  109  230 1    
   217  110  111 1    
   218  110  112 1    
   219  110  231 1    
   220  111  232 1    
   221  111  233 1    
   222  111  234 1    
   223  112  113 2    
   224  112  114 am   BACKBONE|DICT|INTERRES
   225  114  115 1    
   226  114  235 1    
   227  115  116 1    
   228  115  117 1    
   229  115  236 1    
   230  116  237 1    
   231  116  238 1    
   232  116  239 1    
   233  117  118 2    
   234  117  119 am   BACKBONE|DICT|INTERRES
   235  119  120 1    
   236  119  240 1    
   237  120  121 1    
   238  120  124 1    
   239  120  241 1    
   240  121  122 am   BACKBONE|DICT|INTERRES
   241  121  123 2    
   242  122  242 1    
   243  122  243 1    
   244  124  125 1    
   245  124  244 1    
   246  124  245 1    
   247  125  126 1    
   248  126  246 1    
   249  126  247 1    
@<TRIPOS>SUBSTRUCTURE
     1 UNK         1 GROUP             0       ****    0 ROOT    
