@<TRIPOS>MOLECULE
3R540
247   249    1
SMALL
USER_CHARGES


@<TRIPOS>ATOM
      1 CA          2.4683  -15.0053  -52.4932 C.3       0 UNK        -0.1800 
      2 C           2.6917  -15.5702  -51.0973 C.2       0 UNK         0.5000 
      3 O           3.0544  -14.8190  -50.1927 O.2       0 UNK        -0.5000 
      4 N           2.4626  -16.8819  -50.9365 N.am      1 UNK        -0.5000 
      5 CA          2.6277  -17.6895  -49.7191 C.3       1 UNK         0.1400 
      6 C6          1.3646  -17.6981  -48.7953 C.3       23 UNK        -0.0398 
      7 S7          1.0632  -16.2661  -47.6985 S.3       23 UNK        -0.2404 
      8 C8         -0.0325  -15.1939  -48.6778 C.3       23 UNK        -0.0205 
      9 C9         -1.4843  -15.6433  -48.6637 C.ar      23 UNK        -0.0193 
     10 C10        -2.0864  -16.1217  -49.8314 C.ar      23 UNK        -0.1150 
     11 C11        -3.4472  -16.4429  -49.8496 C.ar      23 UNK        -0.0193 
     12 C12        -4.1992  -16.3022  -48.6803 C.ar      23 UNK        -0.1150 
     13 C13        -3.6013  -15.8535  -47.4981 C.ar      23 UNK        -0.0193 
     14 C14        -2.2457  -15.5148  -47.4989 C.ar      23 UNK        -0.1150 
     15 C15        -4.4212  -15.7358  -46.2207 C.3       23 UNK        -0.0205 
     16 S16        -4.0399  -17.0635  -45.0305 S.3       23 UNK        -0.2404 
     17 C17        -4.3130  -18.5581  -46.0432 C.3       23 UNK        -0.0398 
     18 CA         -2.9608  -19.1909  -46.4766 C.3       11 UNK         0.1400 
     19 N          -2.2585  -19.7724  -45.3264 N.am      11 UNK        -0.5000 
     20 C          -2.5031  -20.9469  -44.7223 C.2       10 UNK         0.5000 
     21 O          -3.2290  -21.8320  -45.1763 O.2       10 UNK        -0.5000 
     22 CA         -1.8695  -21.1312  -43.3330 C.3       10 UNK         0.1400 
     23 CB         -0.4120  -21.5998  -43.4490 C.3       10 UNK        -0.1800 
     24 N          -1.9297  -19.8941  -42.5525 N.am      10 UNK        -0.5000 
     25 C          -3.0508  -19.3702  -42.0349 C.2       9 UNK         0.5000 
     26 O          -4.1479  -19.9303  -42.0783 O.2       9 UNK        -0.5000 
     27 CA         -2.9064  -17.9874  -41.3640 C.3       9 UNK         0.1400 
     28 CB         -4.1323  -17.5801  -40.5210 C.3       9 UNK        -0.1800 
     29 N          -1.6674  -17.8697  -40.5922 N.am      9 UNK        -0.5000 
     30 C          -1.2965  -18.5796  -39.5169 C.2       8 UNK         0.5000 
     31 O          -2.0169  -19.4028  -38.9510 O.2       8 UNK        -0.5000 
     32 CA          0.1374  -18.3547  -38.9956 C.3       8 UNK         0.1400 
     33 CB          1.0242  -19.5532  -39.3690 C.3       8 UNK        -0.1800 
     34 N           0.7608  -17.1299  -39.5050 N.am      8 UNK        -0.5000 
     35 C           0.4508  -15.8889  -39.1052 C.2       7 UNK         0.5000 
     36 O          -0.3634  -15.6412  -38.2150 O.2       7 UNK        -0.5000 
     37 CA          1.1438  -14.7289  -39.8458 C.3       7 UNK         0.1400 
     38 CB          2.5486  -14.4801  -39.2765 C.3       7 UNK        -0.1800 
     39 N           1.2309  -14.9450  -41.2924 N.am      7 UNK        -0.5000 
     40 C           0.1758  -15.0015  -42.1199 C.2       6 UNK         0.5000 
     41 O          -0.9898  -14.8518  -41.7545 O.2       6 UNK        -0.5000 
     42 CA          0.4669  -15.3247  -43.5964 C.3       6 UNK         0.1400 
     43 CB          0.9450  -14.0734  -44.3481 C.3       6 UNK        -0.1800 
     44 N           1.4571  -16.3892  -43.7390 N.am      6 UNK        -0.5000 
     45 C           1.2714  -17.6583  -43.3553 C.2       5 UNK         0.5000 
     46 O           0.2103  -18.0930  -42.9096 O.2       5 UNK        -0.5000 
     47 CA          2.4843  -18.5957  -43.4527 C.3       5 UNK         0.1400 
     48 CB          2.6195  -19.1526  -44.8745 C.3       5 UNK        -0.1800 
     49 N           3.7308  -17.9444  -43.0504 N.am      5 UNK        -0.5000 
     50 C           4.0135  -17.5600  -41.7978 C.2       4 UNK         0.5000 
     51 O           3.2558  -17.7302  -40.8444 O.2       4 UNK        -0.5000 
     52 CA          5.3518  -16.8319  -41.5800 C.3       4 UNK         0.1400 
     53 CB          6.4935  -17.8423  -41.3957 C.3       4 UNK        -0.1800 
     54 N           5.6792  -15.9247  -42.6795 N.am      4 UNK        -0.5000 
     55 C           5.0035  -14.8017  -42.9606 C.2       3 UNK         0.5000 
     56 O           4.0535  -14.3876  -42.2954 O.2       3 UNK        -0.5000 
     57 CA          5.4271  -14.0564  -44.2413 C.3       3 UNK         0.1400 
     58 CB          6.6521  -13.1686  -43.9756 C.3       3 UNK        -0.1800 
     59 N           5.7085  -14.9607  -45.3637 N.am      3 UNK        -0.5000 
     60 C           4.8003  -15.7863  -45.8988 C.2       2 UNK         0.5000 
     61 O           3.6436  -15.8775  -45.4828 O.2       2 UNK        -0.5000 
     62 CA          5.2575  -16.6917  -47.0498 C.3       2 UNK         0.1400 
     63 CB          6.0053  -17.9281  -46.5195 C.3       2 UNK        -0.1800 
     64 N           4.0676  -17.0997  -47.7870 N.am      2 UNK        -0.5000 
     65 C           4.0195  -17.4862  -49.0626 C.2       1 UNK         0.5000 
     66 O           5.0292  -17.6802  -49.7441 O.2       1 UNK        -0.5000 
     67 C          -3.0862  -20.1786  -47.6565 C.2       11 UNK         0.5000 
     68 O          -2.0909  -20.4360  -48.3350 O.2       11 UNK        -0.5000 
     69 N          -4.2824  -20.7528  -47.8463 N.am      12 UNK        -0.5000 
     70 CA         -4.6274  -21.7191  -48.8890 C.3       12 UNK         0.1400 
     71 CB         -6.1171  -22.0620  -48.7495 C.3       12 UNK        -0.1800 
     72 C          -3.7831  -23.0076  -48.8907 C.2       12 UNK         0.5000 
     73 O          -3.7007  -23.6597  -49.9307 O.2       12 UNK        -0.5000 
     74 N          -3.1749  -23.3554  -47.7494 N.am      13 UNK        -0.5000 
     75 CA         -2.2657  -24.4934  -47.6208 C.3       13 UNK         0.1400 
     76 CB         -2.3051  -24.9920  -46.1673 C.3       13 UNK        -0.1800 
     77 C          -0.8160  -24.1594  -48.0286 C.2       13 UNK         0.5000 
     78 O          -0.0357  -25.0866  -48.2488 O.2       13 UNK        -0.5000 
     79 N          -0.4658  -22.8668  -48.0870 N.am      14 UNK        -0.5000 
     80 CA          0.9027  -22.3835  -48.2856 C.3       14 UNK         0.1400 
     81 CB          1.2522  -21.4485  -47.1210 C.3       14 UNK        -0.1800 
     82 C           1.1022  -21.6508  -49.6228 C.2       14 UNK         0.5000 
     83 O           2.2263  -21.6191  -50.1256 O.2       14 UNK        -0.5000 
     84 N           0.0353  -21.0507  -50.1636 N.am      15 UNK        -0.5000 
     85 CA          0.0296  -20.3322  -51.4372 C.3       15 UNK         0.1400 
     86 CB         -1.3216  -19.6226  -51.5839 C.3       15 UNK        -0.1800 
     87 C           0.2893  -21.2414  -52.6538 C.2       15 UNK         0.5000 
     88 O           0.0403  -22.4482  -52.5949 O.2       15 UNK        -0.5000 
     89 N           0.7498  -20.6260  -53.7524 N.am      16 UNK        -0.5000 
     90 CA          0.9276  -21.2630  -55.0592 C.3       16 UNK         0.1400 
     91 CB          1.5940  -20.2657  -56.0187 C.3       16 UNK        -0.1800 
     92 C          -0.4162  -21.7512  -55.6308 C.2       16 UNK         0.5000 
     93 O          -1.4350  -21.0837  -55.4393 O.2       16 UNK        -0.5000 
     94 N          -0.4003  -22.9272  -56.2725 N.am      17 UNK        -0.5000 
     95 CA         -1.5416  -23.7158  -56.7690 C.3       17 UNK         0.1400 
     96 CB         -2.3655  -22.9419  -57.8165 C.3       17 UNK        -0.1800 
     97 C          -2.4344  -24.3191  -55.6590 C.2       17 UNK         0.5000 
     98 O          -2.9273  -25.4337  -55.8381 O.2       17 UNK        -0.5000 
     99 N          -2.5612  -23.6114  -54.5275 N.am      18 UNK        -0.5000 
    100 CA        -3.2017  -23.9849  -53.2634 C.3       18 UNK         0.1400 
    101 CB        -2.5352  -25.2510  -52.6806 C.3       18 UNK        -0.1800 
    102 C         -4.7354  -24.1279  -53.3454 C.2       18 UNK         0.5000 
    103 O         -5.3285  -24.0347  -54.4235 O.2       18 UNK        -0.5000 
    104 N         -5.3510  -24.3358  -52.1730 N.am      19 UNK        -0.5000 
    105 CA        -6.7777  -24.5768  -51.9428 C.3       19 UNK         0.1400 
    106 CB        -7.1664  -25.9825  -52.4541 C.3       19 UNK        -0.1800 
    107 C         -7.6524  -23.4379  -52.5069 C.2       19 UNK         0.5000 
    108 O         -7.6419  -22.3351  -51.9563 O.2       19 UNK        -0.5000 
    109 N         -8.3603  -23.7124  -53.6111 N.am      20 UNK        -0.5000 
    110 CA        -9.2323  -22.7852  -54.3346 C.3       20 UNK         0.1400 
    111 CB        -9.9370  -23.5504  -55.4650 C.3       20 UNK        -0.1800 
    112 C         -8.5219  -21.5350  -54.8920 C.2       20 UNK         0.5000 
    113 O         -9.1975  -20.5428  -55.1685 O.2       20 UNK        -0.5000 
    114 N         -7.1855  -21.5756  -55.0124 N.am      21 UNK        -0.5000 
    115 CA        -6.3353  -20.4573  -55.4339 C.3       21 UNK         0.1400 
    116 CB        -4.8747  -20.9271  -55.4685 C.3       21 UNK        -0.1800 
    117 C         -6.4654  -19.1943  -54.5565 C.2       21 UNK         0.5000 
    118 O         -6.2703  -18.0897  -55.0655 O.2       21 UNK        -0.5000 
    119 N         -6.8158  -19.3764  -53.2764 N.am      22 UNK        -0.5000 
    120 CA        -7.1113  -18.2948  -52.3218 C.3       22 UNK         0.1400 
    121 C         -8.6352  -18.0141  -52.1600 C.2       22 UNK         0.5000 
    122 N         -9.5203  -18.6035  -52.9560 N.am      22 UNK        -0.7600 
    123 O         -9.0295  -17.2260  -51.3048 O.2       22 UNK        -0.5000 
    124 C124       -6.4170  -18.5236  -50.9530 C.3       23 UNK        -0.0398 
    125 S125       -4.6032  -18.6439  -51.1052 S.3       23 UNK        -0.2404 
    126 C126       -4.1112  -16.8914  -51.1440 C.3       23 UNK        -0.0205 
    127 H127        2.1409  -15.7718  -53.1961 H         1 UNK         0.0600 
    128 H128        3.3919  -14.5683  -52.8729 H         1 UNK         0.0600 
    129 H129        1.7078  -14.2250  -52.4637 H         1 UNK         0.0600 
    130 H130        2.2064  -17.4113  -51.7562 H         1 UNK         0.3000 
    131 H131        2.6917  -18.7084  -50.1039 H         1 UNK         0.0600 
    132 H132        1.4210  -18.5707  -48.1442 H         1 UNK         0.0800 
    133 H133        0.4709  -17.8613  -49.3986 H         1 UNK         0.0800 
    134 H134        0.0236  -14.1847  -48.2679 H         1 UNK         0.0800 
    135 H135        0.3330  -15.1198  -49.7001 H         1 UNK         0.0800 
    136 H136       -1.5021  -16.2123  -50.7363 H         1 UNK         0.1150 
    137 H137       -5.2515  -16.5465  -48.6912 H         1 UNK         0.1150 
    138 H138       -1.7821  -15.1501  -46.5927 H         1 UNK         0.1150 
    139 H139       -4.2240  -14.7713  -45.7506 H         1 UNK         0.0800 
    140 H140       -5.4889  -15.7530  -46.4449 H         1 UNK         0.0800 
    141 H141       -4.9311  -18.2936  -46.9016 H         1 UNK         0.0800 
    142 H142       -4.9017  -19.2638  -45.4546 H         1 UNK         0.0800 
    143 H143       -2.3180  -18.3925  -46.8506 H         1 UNK         0.0600 
    144 H144       -1.6323  -19.1381  -44.8522 H         1 UNK         0.3000 
    145 H145       -2.4347  -21.9015  -42.8041 H         1 UNK         0.0600 
    146 H146        0.0213  -21.7846  -42.4659 H         1 UNK         0.0600 
    147 H147       -0.3441  -22.5288  -44.0165 H         1 UNK         0.0600 
    148 H148        0.2082  -20.8605  -43.9529 H         1 UNK         0.0600 
    149 H149       -1.0813  -19.3333  -42.5116 H         1 UNK         0.3000 
    150 H150       -2.8171  -17.2664  -42.1777 H         1 UNK         0.0600 
    151 H151       -5.0285  -17.5269  -41.1402 H         1 UNK         0.0600 
    152 H152       -3.9907  -16.5972  -40.0713 H         1 UNK         0.0600 
    153 H153       -4.3311  -18.2918  -39.7195 H         1 UNK         0.0600 
    154 H154       -0.9762  -17.2478  -40.9901 H         1 UNK         0.3000 
    155 H155        0.0867  -18.2912  -37.9068 H         1 UNK         0.0600 
    156 H156        1.1161  -19.6612  -40.4506 H         1 UNK         0.0600 
    157 H157        0.6115  -20.4848  -38.9797 H         1 UNK         0.0600 
    158 H158        2.0274  -19.4457  -38.9562 H         1 UNK         0.0600 
    159 H159        1.5023  -17.2538  -40.1890 H         1 UNK         0.3000 
    160 H160        0.5486  -13.8286  -39.6796 H         1 UNK         0.0600 
    161 H161        3.2057  -15.3352  -39.4355 H         1 UNK         0.0600 
    162 H162        2.5076  -14.2921  -38.2030 H         1 UNK         0.0600 
    163 H163        3.0136  -13.6106  -39.7414 H         1 UNK         0.0600 
    164 H164        2.1627  -15.0354  -41.6828 H         1 UNK         0.3000 
    165 H165       -0.4630  -15.6655  -44.0574 H         1 UNK         0.0600 
    166 H166        1.0900  -14.2819  -45.4078 H         1 UNK         0.0600 
    167 H167        0.2135  -13.2682  -44.2719 H         1 UNK         0.0600 
    168 H168        1.8898  -13.7009  -43.9513 H         1 UNK         0.0600 
    169 H169        2.3391  -16.1361  -44.1780 H         1 UNK         0.3000 
    170 H170        2.3057  -19.4348  -42.7770 H         1 UNK         0.0600 
    171 H171        1.6790  -19.5921  -45.1987 H         1 UNK         0.0600 
    172 H172        2.8695  -18.3771  -45.5955 H         1 UNK         0.0600 
    173 H173        3.3834  -19.9281  -44.9286 H         1 UNK         0.0600 
    174 H174        4.3833  -17.7171  -43.7841 H         1 UNK         0.3000 
    175 H175        5.2662  -16.2424  -40.6647 H         1 UNK         0.0600 
    176 H176        6.6454  -18.4489  -42.2895 H         1 UNK         0.0600 
    177 H177        7.4329  -17.3383  -41.1680 H         1 UNK         0.0600 
    178 H178        6.2822  -18.5223  -40.5692 H         1 UNK         0.0600 
    179 H179        6.4446  -16.1905  -43.2813 H         1 UNK         0.3000 
    180 H180        4.5962  -13.4109  -44.5342 H         1 UNK         0.0600 
    181 H181        7.5304  -13.7591  -43.7120 H         1 UNK         0.0600 
    182 H182        6.4618  -12.4777  -43.1532 H         1 UNK         0.0600 
    183 H183        6.9010  -12.5685  -44.8510 H         1 UNK         0.0600 
    184 H184        6.6437  -14.9367  -45.7442 H         1 UNK         0.3000 
    185 H185        5.9105  -16.1137  -47.7069 H         1 UNK         0.0600 
    186 H186        5.3779  -18.5300  -45.8624 H         1 UNK         0.0600 
    187 H187        6.3395  -18.5677  -47.3363 H         1 UNK         0.0600 
    188 H188        6.8919  -17.6387  -45.9542 H         1 UNK         0.0600 
    189 H189        3.1997  -16.8742  -47.3098 H         1 UNK         0.3000 
    190 H190       -5.0235  -20.5362  -47.1976 H         1 UNK         0.3000 
    191 H191       -4.4710  -21.2387  -49.8552 H         1 UNK         0.0600 
    192 H192       -6.7404  -21.1714  -48.8235 H         1 UNK         0.0600 
    193 H193       -6.4359  -22.7422  -49.5370 H         1 UNK         0.0600 
    194 H194       -6.3308  -22.5434  -47.7944 H         1 UNK         0.0600 
    195 H195       -3.3002  -22.7758  -46.9239 H         1 UNK         0.3000 
    196 H196       -2.6110  -25.3055  -48.2642 H         1 UNK         0.0600 
    197 H197       -1.6906  -25.8845  -46.0433 H         1 UNK         0.0600 
    198 H198       -3.3200  -25.2524  -45.8663 H         1 UNK         0.0600 
    199 H199       -1.9319  -24.2388  -45.4726 H         1 UNK         0.0600 
    200 H200       -1.1781  -22.1573  -47.9539 H         1 UNK         0.3000 
    201 H201        1.6112  -23.2141  -48.2701 H         1 UNK         0.0600 
    202 H202        1.2346  -21.9831  -46.1713 H         1 UNK         0.0600 
    203 H203        0.5474  -20.6189  -47.0514 H         1 UNK         0.0600 
    204 H204        2.2523  -21.0292  -47.2397 H         1 UNK         0.0600 
    205 H205       -0.8405  -21.0598  -49.6514 H         1 UNK         0.3000 
    206 H206        0.8166  -19.5780  -51.4010 H         1 UNK         0.0600 
    207 H207       -1.3661  -19.0296  -52.4982 H         1 UNK         0.0600 
    208 H208       -2.1426  -20.3402  -51.6182 H         1 UNK         0.0600 
    209 H209       -1.5051  -18.9464  -50.7488 H         1 UNK         0.0600 
    210 H210        0.8824  -19.6264  -53.7314 H         1 UNK         0.3000 
    211 H211        1.5910  -22.1203  -54.9275 H         1 UNK         0.0600 
    212 H212        0.9759  -19.3798  -56.1712 H         1 UNK         0.0600 
    213 H213        1.7641  -20.7188  -56.9963 H         1 UNK         0.0600 
    214 H214        2.5628  -19.9393  -55.6400 H         1 UNK         0.0600 
    215 H215        0.4908  -23.3977  -56.3520 H         1 UNK         0.3000 
    216 H216       -1.0954  -24.5673  -57.2855 H         1 UNK         0.0600 
    217 H217       -3.1692  -23.5628  -58.2139 H         1 UNK         0.0600 
    218 H218       -1.7427  -22.6388  -58.6580 H         1 UNK         0.0600 
    219 H219       -2.8241  -22.0451  -57.4032 H         1 UNK         0.0600 
    220 H220       -2.1573  -22.6810  -54.5437 H         1 UNK         0.3000 
    221 H221       -3.0015  -23.1571  -52.5814 H         1 UNK         0.0600 
    222 H222       -1.4534  -25.1301  -52.6207 H         1 UNK         0.0600 
    223 H223       -2.8865  -25.4634  -51.6713 H         1 UNK         0.0600 
    224 H224       -2.7424  -26.1353  -53.2834 H         1 UNK         0.0600 
    225 H225       -4.7765  -24.2935  -51.3338 H         1 UNK         0.3000 
    226 H226       -6.9275  -24.5749  -50.8631 H         1 UNK         0.0600 
    227 H227       -6.5927  -26.7524  -51.9379 H         1 UNK         0.0600 
    228 H228       -8.2206  -26.1924  -52.2682 H         1 UNK         0.0600 
    229 H229       -6.9838  -26.1027  -53.5225 H         1 UNK         0.0600 
    230 H230       -8.2632  -24.6340  -54.0118 H         1 UNK         0.3000 
    231 H231       -9.9914  -22.4349  -53.6324 H         1 UNK         0.0600 
    232 H232       -9.2219  -23.9498  -56.1854 H         1 UNK         0.0600 
    233 H233      -10.6237  -22.9009  -56.0096 H         1 UNK         0.0600 
    234 H234      -10.5222  -24.3830  -55.0741 H         1 UNK         0.0600 
    235 H235       -6.7069  -22.4364  -54.7692 H         1 UNK         0.3000 
    236 H236       -6.6337  -20.1862  -56.4484 H         1 UNK         0.0600 
    237 H237       -4.7612  -21.8097  -56.0972 H         1 UNK         0.0600 
    238 H238       -4.2209  -20.1523  -55.8710 H         1 UNK         0.0600 
    239 H239       -4.5089  -21.1772  -54.4719 H         1 UNK         0.0600 
    240 H240       -6.9755  -20.3187  -52.9426 H         1 UNK         0.3000 
    241 H241       -6.7112  -17.3603  -52.7175 H         1 UNK         0.0600 
    242 H242      -10.4991  -18.3970  -52.8356 H         1 UNK         0.3800 
    243 H243       -9.2331  -19.2278  -53.7022 H         1 UNK         0.3800 
    244 H244       -6.7833  -19.4448  -50.4989 H         1 UNK         0.0800 
    245 H245       -6.6537  -17.7231  -50.2508 H         1 UNK         0.0800 
    246 H246       -4.9727  -16.2545  -51.3474 H         1 UNK         0.0800 
    247 H247       -3.4318  -16.7510  -51.9859 H         1 UNK         0.0800 
@<TRIPOS>BOND
     1    1    2 1    
     2    1  127 1    
     3    1  128 1    
     4    1  129 1    
     5    2    3 2    
     6    2    4 am   BACKBONE|DICT|INTERRES
     7    4    5 1    
     8    4  130 1    
     9    5    6 1    
    10    5   65 1    
    11    5  131 1    
    12    6    7 1    
    13    6  132 1    
    14    6  133 1    
    15    7    8 1    
    16    8    9 1    
    17    8  134 1    
    18    8  135 1    
    19    9   10 ar   
    20    9   14 ar   
    21   10   11 ar   
    22   10  136 1    
    23   11   12 ar   
    24   11  126 1    
    25   12   13 ar   
    26   12  137 1    
    27   13   14 ar   
    28   13   15 1    
    29   14  138 1    
    30   15   16 1    
    31   15  139 1    
    32   15  140 1    
    33   16   17 1    
    34   17   18 1    
    35   17  141 1    
    36   17  142 1    
    37   18   19 1    
    38   18   67 1    
    39   18  143 1    
    40   19   20 am   BACKBONE|DICT|INTERRES
    41   19  144 1    
    42   20   21 2    
    43   20   22 1    
    44   22   23 1    
    45   22   24 1    
    46   22  145 1    
    47   23  146 1    
    48   23  147 1    
    49   23  148 1    
    50   24   25 am   BACKBONE|DICT|INTERRES
    51   24  149 1    
    52   25   26 2    
    53   25   27 1    
    54   27   28 1    
    55   27   29 1    
    56   27  150 1    
    57   28  151 1    
    58   28  152 1    
    59   28  153 1    
    60   29   30 am   BACKBONE|DICT|INTERRES
    61   29  154 1    
    62   30   31 2    
    63   30   32 1    
    64   32   33 1    
    65   32   34 1    
    66   32  155 1    
    67   33  156 1    
    68   33  157 1    
    69   33  158 1    
    70   34   35 am   BACKBONE|DICT|INTERRES
    71   34  159 1    
    72   35   36 2    
    73   35   37 1    
    74   37   38 1    
    75   37   39 1    
    76   37  160 1    
    77   38  161 1    
    78   38  162 1    
    79   38  163 1    
    80   39   40 am   BACKBONE|DICT|INTERRES
    81   39  164 1    
    82   40   41 2    
    83   40   42 1    
    84   42   43 1    
    85   42   44 1    
    86   42  165 1    
    87   43  166 1    
    88   43  167 1    
    89   43  168 1    
    90   44   45 am   BACKBONE|DICT|INTERRES
    91   44  169 1    
    92   45   46 2    
    93   45   47 1    
    94   47   48 1    
    95   47   49 1    
    96   47  170 1    
    97   48  171 1    
    98   48  172 1    
    99   48  173 1    
   100   49   50 am   BACKBONE|DICT|INTERRES
   101   49  174 1    
   102   50   51 2    
   103   50   52 1    
   104   52   53 1    
   105   52   54 1    
   106   52  175 1    
   107   53  176 1    
   108   53  177 1    
   109   53  178 1    
   110   54   55 am   BACKBONE|DICT|INTERRES
   111   54  179 1    
   112   55   56 2    
   113   55   57 1    
   114   57   58 1    
   115   57   59 1    
   116   57  180 1    
   117   58  181 1    
   118   58  182 1    
   119   58  183 1    
   120   59   60 am   BACKBONE|DICT|INTERRES
   121   59  184 1    
   122   60   61 2    
   123   60   62 1    
   124   62   63 1    
   125   62   64 1    
   126   62  185 1    
   127   63  186 1    
   128   63  187 1    
   129   63  188 1    
   130   64   65 am   BACKBONE|DICT|INTERRES
   131   64  189 1    
   132   65   66 2    
   133   67   68 2    
   134   67   69 am   BACKBONE|DICT|INTERRES
   135   69   70 1    
   136   69  190 1    
   137   70   71 1    
   138   70   72 1    
   139   70  191 1    
   140   71  192 1    
   141   71  193 1    
   142   71  194 1    
   143   72   73 2    
   144   72   74 am   BACKBONE|DICT|INTERRES
   145   74   75 1    
   146   74  195 1    
   147   75   76 1    
   148   75   77 1    
   149   75  196 1    
   150   76  197 1    
   151   76  198 1    
   152   76  199 1    
   153   77   78 2    
   154   77   79 am   BACKBONE|DICT|INTERRES
   155   79   80 1    
   156   79  200 1    
   157   80   81 1    
   158   80   82 1    
   159   80  201 1    
   160   81  202 1    
   161   81  203 1    
   162   81  204 1    
   163   82   83 2    
   164   82   84 am   BACKBONE|DICT|INTERRES
   165   84   85 1    
   166   84  205 1    
   167   85   86 1    
   168   85   87 1    
   169   85  206 1    
   170   86  207 1    
   171   86  208 1    
   172   86  209 1    
   173   87   88 2    
   174   87   89 am   BACKBONE|DICT|INTERRES
   175   89   90 1    
   176   89  210 1    
   177   90   91 1    
   178   90   92 1    
   179   90  211 1    
   180   91  212 1    
   181   91  213 1    
   182   91  214 1    
   183   92   93 2    
   184   92   94 am   BACKBONE|DICT|INTERRES
   185   94   95 1    
   186   94  215 1    
   187   95   96 1    
   188   95   97 1    
   189   95  216 1    
   190   96  217 1    
   191   96  218 1    
   192   96  219 1    
   193   97   98 2    
   194   97   99 am   BACKBONE|DICT|INTERRES
   195   99  100 1    
   196   99  220 1    
   197  100  101 1    
   198  100  102 1    
   199  100  221 1    
   200  101  222 1    
   201  101  223 1    
   202  101  224 1    
   203  102  103 2    
   204  102  104 am   BACKBONE|DICT|INTERRES
   205  104  105 1    
   206  104  225 1    
   207  105  106 1    
   208  105  107 1    
   209  105  226 1    
   210  106  227 1    
   211  106  228 1    
   212  106  229 1    
   213  107  108 2    
   214  107  109 am   BACKBONE|DICT|INTERRES
   215  109  110 1    
   216  109  230 1    
   217  110  111 1    
   218  110  112 1    
   219  110  231 1    
   220  111  232 1    
   221  111  233 1    
   222  111  234 1    
   223  112  113 2    
   224  112  114 am   BACKBONE|DICT|INTERRES
   225  114  115 1    
   226  114  235 1    
   227  115  116 1    
   228  115  117 1    
   229  115  236 1    
   230  116  237 1    
   231  116  238 1    
   232  116  239 1    
   233  117  118 2    
   234  117  119 am   BACKBONE|DICT|INTERRES
   235  119  120 1    
   236  119  240 1    
   237  120  121 1    
   238  120  124 1    
   239  120  241 1    
   240  121  122 am   BACKBONE|DICT|INTERRES
   241  121  123 2    
   242  122  242 1    
   243  122  243 1    
   244  124  125 1    
   245  124  244 1    
   246  124  245 1    
   247  125  126 1    
   248  126  246 1    
   249  126  247 1    
@<TRIPOS>SUBSTRUCTURE
     1 UNK         1 GROUP             0       ****    0 ROOT    
