@<TRIPOS>MOLECULE
3R540
247   249    1
SMALL
USER_CHARGES


@<TRIPOS>ATOM
      1 CA         -0.7564  -13.4372  -45.9983 C.3       0 UNK        -0.1800 
      2 C           0.0180  -12.3357  -46.7074 C.2       0 UNK         0.5000 
      3 O          -0.3153  -11.1597  -46.5641 O.2       0 UNK        -0.5000 
      4 N           1.0600  -12.7116  -47.4604 N.am      1 UNK        -0.5000 
      5 CA          1.9593  -11.7905  -48.1763 C.3       1 UNK         0.1400 
      6 C6          2.6831  -12.4833  -49.3581 C.3       23 UNK        -0.0398 
      7 S7          1.5126  -13.1045  -50.6111 S.3       23 UNK        -0.2404 
      8 C8          1.5141  -14.8815  -50.2291 C.3       23 UNK        -0.0205 
      9 C9          0.2856  -15.5648  -50.8026 C.ar      23 UNK        -0.0193 
     10 C10         0.3742  -16.3271  -51.9684 C.ar      23 UNK        -0.1150 
     11 C11        -0.7537  -16.9771  -52.4759 C.ar      23 UNK        -0.0193 
     12 C12        -1.9737  -16.8660  -51.8010 C.ar      23 UNK        -0.1150 
     13 C13        -2.0830  -16.0958  -50.6374 C.ar      23 UNK        -0.0193 
     14 C14        -0.9447  -15.4377  -50.1543 C.ar      23 UNK        -0.1150 
     15 C15        -3.4512  -15.9874  -49.9586 C.3       23 UNK        -0.0205 
     16 S16        -3.4593  -15.3707  -48.2328 S.3       23 UNK        -0.2404 
     17 C17        -2.4030  -16.5342  -47.2910 C.3       23 UNK        -0.0398 
     18 CA         -2.4896  -18.0308  -47.6723 C.3       11 UNK         0.1400 
     19 N          -1.3885  -18.7927  -47.0850 N.am      11 UNK        -0.5000 
     20 C          -1.0573  -20.0436  -47.4310 C.2       10 UNK         0.5000 
     21 O          -1.6160  -20.6806  -48.3236 O.2       10 UNK        -0.5000 
     22 CA          0.0598  -20.7127  -46.6126 C.3       10 UNK         0.1400 
     23 CB          1.4394  -20.3068  -47.1507 C.3       10 UNK        -0.1800 
     24 N          -0.0278  -20.4076  -45.1828 N.am      10 UNK        -0.5000 
     25 C          -1.0638  -20.7486  -44.4016 C.2       9 UNK         0.5000 
     26 O          -2.0358  -21.3900  -44.7985 O.2       9 UNK        -0.5000 
     27 CA         -1.0380  -20.2533  -42.9466 C.3       9 UNK         0.1400 
     28 CB         -0.1251  -21.1413  -42.0885 C.3       9 UNK        -0.1800 
     29 N          -0.6287  -18.8532  -42.8291 N.am      9 UNK        -0.5000 
     30 C          -1.3001  -17.8136  -43.3462 C.2       8 UNK         0.5000 
     31 O          -2.3549  -17.9232  -43.9708 O.2       8 UNK        -0.5000 
     32 CA         -0.6592  -16.4221  -43.1890 C.3       8 UNK         0.1400 
     33 CB         -0.8571  -15.8745  -41.7682 C.3       8 UNK        -0.1800 
     34 N           0.7646  -16.4238  -43.5203 N.am      8 UNK        -0.5000 
     35 C           1.2607  -16.7245  -44.7287 C.2       7 UNK         0.5000 
     36 O           0.5675  -16.9816  -45.7137 O.2       7 UNK        -0.5000 
     37 CA          2.7915  -16.7987  -44.8375 C.3       7 UNK         0.1400 
     38 CB          3.4022  -15.3950  -44.9797 C.3       7 UNK        -0.1800 
     39 N           3.3817  -17.4882  -43.6887 N.am      7 UNK        -0.5000 
     40 C           3.2362  -18.7987  -43.4413 C.2       6 UNK         0.5000 
     41 O           2.6106  -19.5674  -44.1707 O.2       6 UNK        -0.5000 
     42 CA          3.8606  -19.3335  -42.1397 C.3       6 UNK         0.1400 
     43 CB          5.3607  -19.6038  -42.3288 C.3       6 UNK        -0.1800 
     44 N           3.6694  -18.4277  -41.0069 N.am      6 UNK        -0.5000 
     45 C           2.4795  -18.1244  -40.4689 C.2       5 UNK         0.5000 
     46 O           1.4139  -18.6022  -40.8523 O.2       5 UNK        -0.5000 
     47 CA          2.4724  -17.0739  -39.3443 C.3       5 UNK         0.1400 
     48 CB          2.6646  -17.7460  -37.9768 C.3       5 UNK        -0.1800 
     49 N           3.4845  -16.0298  -39.5204 N.am      5 UNK        -0.5000 
     50 C           3.5315  -15.1827  -40.5565 C.2       4 UNK         0.5000 
     51 O           2.7458  -15.2158  -41.5077 O.2       4 UNK        -0.5000 
     52 CA          4.6926  -14.1724  -40.5519 C.3       4 UNK         0.1400 
     53 CB          5.8422  -14.6885  -41.4316 C.3       4 UNK        -0.1800 
     54 N           4.2869  -12.8552  -41.0357 N.am      4 UNK        -0.5000 
     55 C           3.3693  -12.0597  -40.4679 C.2       3 UNK         0.5000 
     56 O           2.7988  -12.3248  -39.4085 O.2       3 UNK        -0.5000 
     57 CA          3.0482  -10.7302  -41.1851 C.3       3 UNK         0.1400 
     58 CB          3.5569   -9.5357  -40.3616 C.3       3 UNK        -0.1800 
     59 N           3.6064  -10.6361  -42.5384 N.am      3 UNK        -0.5000 
     60 C           3.1399  -11.2996  -43.6026 C.2       2 UNK         0.5000 
     61 O           2.1702  -12.0621  -43.5669 O.2       2 UNK        -0.5000 
     62 CA          3.9086  -11.0968  -44.9158 C.3       2 UNK         0.1400 
     63 CB          5.2595  -11.8337  -44.8914 C.3       2 UNK        -0.1800 
     64 N           3.0928  -11.6229  -45.9992 N.am      2 UNK        -0.5000 
     65 C           2.9856  -11.1211  -47.2332 C.2       1 UNK         0.5000 
     66 O           3.6538  -10.1694  -47.6401 O.2       1 UNK        -0.5000 
     67 C          -3.8581  -18.6434  -47.3113 C.2       11 UNK         0.5000 
     68 O          -4.6806  -18.8464  -48.2040 O.2       11 UNK        -0.5000 
     69 N          -4.0610  -18.9767  -46.0277 N.am      12 UNK        -0.5000 
     70 CA         -5.2766  -19.6127  -45.5108 C.3       12 UNK         0.1400 
     71 CB         -5.2032  -19.6882  -43.9785 C.3       12 UNK        -0.1800 
     72 C          -5.5360  -21.0067  -46.1136 C.2       12 UNK         0.5000 
     73 O          -6.6828  -21.3359  -46.4176 O.2       12 UNK        -0.5000 
     74 N          -4.4620  -21.7817  -46.3115 N.am      13 UNK        -0.5000 
     75 CA         -4.4786  -23.0782  -46.9893 C.3       13 UNK         0.1400 
     76 CB         -3.2022  -23.8481  -46.6142 C.3       13 UNK        -0.1800 
     77 C          -4.5904  -22.9704  -48.5224 C.2       13 UNK         0.5000 
     78 O          -4.8025  -23.9965  -49.1674 O.2       13 UNK        -0.5000 
     79 N          -4.4111  -21.7590  -49.0749 N.am      14 UNK        -0.5000 
     80 CA         -4.3073  -21.4201  -50.4991 C.3       14 UNK         0.1400 
     81 CB         -5.6819  -21.5217  -51.1864 C.3       14 UNK        -0.1800 
     82 C          -3.2279  -22.2646  -51.2016 C.2       14 UNK         0.5000 
     83 O          -3.4997  -22.8939  -52.2244 O.2       14 UNK        -0.5000 
     84 N          -2.0456  -22.3258  -50.5771 N.am      15 UNK        -0.5000 
     85 CA         -0.9112  -23.2171  -50.8372 C.3       15 UNK         0.1400 
     86 CB         -0.3724  -23.0760  -52.2713 C.3       15 UNK        -0.1800 
     87 C          -1.1938  -24.6899  -50.4838 C.2       15 UNK         0.5000 
     88 O          -0.3810  -25.3009  -49.7886 O.2       15 UNK        -0.5000 
     89 N          -2.3310  -25.2295  -50.9360 N.am      16 UNK        -0.5000 
     90 CA         -2.7984  -26.5773  -50.6440 C.3       16 UNK         0.1400 
     91 CB         -2.0222  -27.6097  -51.4825 C.3       16 UNK        -0.1800 
     92 C          -4.3054  -26.6885  -50.9117 C.2       16 UNK         0.5000 
     93 O          -4.8279  -26.0503  -51.8327 O.2       16 UNK        -0.5000 
     94 N          -4.9627  -27.5348  -50.1060 N.am      17 UNK        -0.5000 
     95 CA         -6.3446  -28.0205  -50.2251 C.3       17 UNK         0.1400 
     96 CB         -6.4781  -28.8876  -51.4950 C.3       17 UNK        -0.1800 
     97 C          -7.4535  -26.9473  -50.1645 C.2       17 UNK         0.5000 
     98 O          -8.6124  -27.2812  -50.4162 O.2       17 UNK        -0.5000 
     99 N          -7.0968  -25.6882  -49.8642 N.am      18 UNK        -0.5000 
    100 CA        -7.9293  -24.4868  -49.9940 C.3       18 UNK         0.1400 
    101 CB        -9.0978  -24.5048  -48.9861 C.3       18 UNK        -0.1800 
    102 C         -8.3825  -24.2433  -51.4519 C.2       18 UNK         0.5000 
    103 O         -9.4534  -23.6725  -51.6686 O.2       18 UNK        -0.5000 
    104 N         -7.5776  -24.7021  -52.4246 N.am      19 UNK        -0.5000 
    105 CA        -7.9653  -24.7605  -53.8338 C.3       19 UNK         0.1400 
    106 CB        -8.7291  -26.0724  -54.0924 C.3       19 UNK        -0.1800 
    107 C         -6.7991  -24.6143  -54.8247 C.2       19 UNK         0.5000 
    108 O         -7.0649  -24.2730  -55.9785 O.2       19 UNK        -0.5000 
    109 N         -5.5487  -24.8805  -54.4116 N.am      20 UNK        -0.5000 
    110 CA        -4.3862  -24.8284  -55.3079 C.3       20 UNK         0.1400 
    111 CB        -3.1742  -25.4867  -54.6341 C.3       20 UNK        -0.1800 
    112 C         -4.0446  -23.4053  -55.7889 C.2       20 UNK         0.5000 
    113 O         -3.6219  -23.2384  -56.9341 O.2       20 UNK        -0.5000 
    114 N         -4.2343  -22.4138  -54.9059 N.am      21 UNK        -0.5000 
    115 CA        -4.0641  -20.9714  -55.1227 C.3       21 UNK         0.1400 
    116 CB        -5.1866  -20.4376  -56.0351 C.3       21 UNK        -0.1800 
    117 C         -2.6529  -20.5875  -55.6174 C.2       21 UNK         0.5000 
    118 O         -2.5062  -19.6680  -56.4241 O.2       21 UNK        -0.5000 
    119 N         -1.6470  -21.3259  -55.1317 N.am      22 UNK        -0.5000 
    120 CA        -0.2321  -21.2606  -55.5397 C.3       22 UNK         0.1400 
    121 C          0.0528  -21.7768  -56.9855 C.2       22 UNK         0.5000 
    122 N         -0.8794  -22.4374  -57.6631 N.am      22 UNK        -0.7600 
    123 O          1.1561  -21.6073  -57.4976 O.2       22 UNK        -0.5000 
    124 C124        0.4372  -19.8828  -55.2664 C.3       23 UNK        -0.0398 
    125 S125        0.2749  -19.3192  -53.5358 S.3       23 UNK        -0.2404 
    126 C126       -0.6509  -17.7713  -53.7686 C.3       23 UNK        -0.0205 
    127 H127       -1.7957  -13.4395  -46.3265 H         1 UNK         0.0600 
    128 H128       -0.7362  -13.2750  -44.9205 H         1 UNK         0.0600 
    129 H129       -0.3322  -14.4201  -46.1985 H         1 UNK         0.0600 
    130 H130        1.2772  -13.6923  -47.5490 H         1 UNK         0.3000 
    131 H131        1.3536  -10.9819  -48.5914 H         1 UNK         0.0600 
    132 H132        3.3459  -11.7785  -49.8638 H         1 UNK         0.0800 
    133 H133        3.3213  -13.2954  -49.0053 H         1 UNK         0.0800 
    134 H134        2.4273  -15.3335  -50.6198 H         1 UNK         0.0800 
    135 H135        1.5318  -15.0368  -49.1499 H         1 UNK         0.0800 
    136 H136        1.3205  -16.4173  -52.4834 H         1 UNK         0.1150 
    137 H137       -2.8472  -17.3687  -52.1924 H         1 UNK         0.1150 
    138 H138       -1.0005  -14.8156  -49.2736 H         1 UNK         0.1150 
    139 H139       -4.0626  -15.3078  -50.5535 H         1 UNK         0.0800 
    140 H140       -3.9616  -16.9503  -49.9947 H         1 UNK         0.0800 
    141 H141       -2.6122  -16.3965  -46.2291 H         1 UNK         0.0800 
    142 H142       -1.3749  -16.1991  -47.4235 H         1 UNK         0.0800 
    143 H143       -2.3647  -18.1241  -48.7511 H         1 UNK         0.0600 
    144 H144       -0.8432  -18.3257  -46.3679 H         1 UNK         0.3000 
    145 H145       -0.0471  -21.7930  -46.7298 H         1 UNK         0.0600 
    146 H146        1.5247  -20.5275  -48.2155 H         1 UNK         0.0600 
    147 H147        1.6252  -19.2403  -47.0194 H         1 UNK         0.0600 
    148 H148        2.2356  -20.8499  -46.6415 H         1 UNK         0.0600 
    149 H149        0.7609  -19.9154  -44.7735 H         1 UNK         0.3000 
    150 H150       -2.0530  -20.3340  -42.5526 H         1 UNK         0.0600 
    151 H151       -0.4140  -22.1903  -42.1657 H         1 UNK         0.0600 
    152 H152       -0.1849  -20.8654  -41.0357 H         1 UNK         0.0600 
    153 H153        0.9180  -21.0631  -42.3964 H         1 UNK         0.0600 
    154 H154        0.2123  -18.6757  -42.2854 H         1 UNK         0.3000 
    155 H155       -1.1604  -15.7462  -43.8848 H         1 UNK         0.0600 
    156 H156       -1.9169  -15.8176  -41.5170 H         1 UNK         0.0600 
    157 H157       -0.4439  -14.8700  -41.6726 H         1 UNK         0.0600 
    158 H158       -0.3760  -16.5054  -41.0211 H         1 UNK         0.0600 
    159 H159        1.4116  -16.1895  -42.7745 H         1 UNK         0.3000 
    160 H160        3.0352  -17.3672  -45.7376 H         1 UNK         0.0600 
    161 H161        3.1885  -14.7675  -44.1139 H         1 UNK         0.0600 
    162 H162        3.0049  -14.8848  -45.8578 H         1 UNK         0.0600 
    163 H163        4.4846  -15.4463  -45.0970 H         1 UNK         0.0600 
    164 H164        3.8537  -16.9134  -43.0066 H         1 UNK         0.3000 
    165 H165        3.3710  -20.2800  -41.9010 H         1 UNK         0.0600 
    166 H166        5.7942  -20.0602  -41.4388 H         1 UNK         0.0600 
    167 H167        5.5315  -20.2893  -43.1600 H         1 UNK         0.0600 
    168 H168        5.9136  -18.6875  -42.5399 H         1 UNK         0.0600 
    169 H169        4.4944  -17.9883  -40.6269 H         1 UNK         0.3000 
    170 H170        1.4933  -16.5907  -39.3521 H         1 UNK         0.0600 
    171 H171        1.9094  -18.5157  -37.8111 H         1 UNK         0.0600 
    172 H172        3.6423  -18.2223  -37.8949 H         1 UNK         0.0600 
    173 H173        2.5729  -17.0235  -37.1656 H         1 UNK         0.0600 
    174 H174        4.1728  -15.9450  -38.7861 H         1 UNK         0.3000 
    175 H175        5.0576  -14.0546  -39.5296 H         1 UNK         0.0600 
    176 H176        5.5355  -14.7958  -42.4732 H         1 UNK         0.0600 
    177 H177        6.6963  -14.0116  -41.4023 H         1 UNK         0.0600 
    178 H178        6.1914  -15.6638  -41.0899 H         1 UNK         0.0600 
    179 H179        4.6840  -12.5577  -41.9128 H         1 UNK         0.3000 
    180 H180        1.9608  -10.6568  -41.2552 H         1 UNK         0.0600 
    181 H181        4.6426   -9.5517  -40.2582 H         1 UNK         0.0600 
    182 H182        3.1317   -9.5419  -39.3570 H         1 UNK         0.0600 
    183 H183        3.2763   -8.5891  -40.8239 H         1 UNK         0.0600 
    184 H184        4.4086  -10.0321  -42.6487 H         1 UNK         0.3000 
    185 H185        4.0717  -10.0260  -45.0554 H         1 UNK         0.0600 
    186 H186        5.9089  -11.4443  -44.1067 H         1 UNK         0.0600 
    187 H187        5.1324  -12.9022  -44.7144 H         1 UNK         0.0600 
    188 H188        5.7892  -11.7137  -45.8366 H         1 UNK         0.0600 
    189 H189        2.4412  -12.3402  -45.7082 H         1 UNK         0.3000 
    190 H190       -3.3449  -18.7504  -45.3411 H         1 UNK         0.3000 
    191 H191       -6.1214  -18.9753  -45.7794 H         1 UNK         0.0600 
    192 H192       -4.3573  -20.2902  -43.6457 H         1 UNK         0.0600 
    193 H193       -5.1000  -18.6957  -43.5395 H         1 UNK         0.0600 
    194 H194       -6.1082  -20.1348  -43.5648 H         1 UNK         0.0600 
    195 H195       -3.5606  -21.4671  -45.9606 H         1 UNK         0.3000 
    196 H196       -5.3403  -23.6484  -46.6365 H         1 UNK         0.0600 
    197 H197       -3.1262  -23.9848  -45.5353 H         1 UNK         0.0600 
    198 H198       -2.3062  -23.3236  -46.9494 H         1 UNK         0.0600 
    199 H199       -3.1912  -24.8394  -47.0693 H         1 UNK         0.0600 
    200 H200       -4.2496  -20.9827  -48.4460 H         1 UNK         0.3000 
    201 H201       -3.9802  -20.3805  -50.5488 H         1 UNK         0.0600 
    202 H202       -5.6522  -21.0820  -52.1833 H         1 UNK         0.0600 
    203 H203       -6.4512  -20.9972  -50.6197 H         1 UNK         0.0600 
    204 H204       -5.9904  -22.5588  -51.3014 H         1 UNK         0.0600 
    205 H205       -1.9485  -21.7643  -49.7315 H         1 UNK         0.3000 
    206 H206       -0.1236  -22.8781  -50.1621 H         1 UNK         0.0600 
    207 H207       -0.1465  -22.0355  -52.4965 H         1 UNK         0.0600 
    208 H208       -1.0776  -23.4423  -53.0163 H         1 UNK         0.0600 
    209 H209        0.5505  -23.6434  -52.3949 H         1 UNK         0.0600 
    210 H210       -2.9770  -24.6476  -51.4637 H         1 UNK         0.3000 
    211 H211       -2.6265  -26.7759  -49.5839 H         1 UNK         0.0600 
    212 H212       -0.9614  -27.6109  -51.2325 H         1 UNK         0.0600 
    213 H213       -2.3950  -28.6194  -51.3060 H         1 UNK         0.0600 
    214 H214       -2.1122  -27.4086  -52.5498 H         1 UNK         0.0600 
    215 H215       -4.4355  -27.9678  -49.3605 H         1 UNK         0.3000 
    216 H216       -6.5114  -28.6680  -49.3632 H         1 UNK         0.0600 
    217 H217       -7.4499  -29.3806  -51.5387 H         1 UNK         0.0600 
    218 H218       -6.3735  -28.2919  -52.4026 H         1 UNK         0.0600 
    219 H219       -5.7203  -29.6706  -51.5197 H         1 UNK         0.0600 
    220 H220       -6.1164  -25.4968  -49.6825 H         1 UNK         0.3000 
    221 H221       -7.3016  -23.6384  -49.7280 H         1 UNK         0.0600 
    222 H222       -8.7409  -24.6949  -47.9739 H         1 UNK         0.0600 
    223 H223       -9.6131  -23.5438  -48.9710 H         1 UNK         0.0600 
    224 H224       -9.8383  -25.2663  -49.2312 H         1 UNK         0.0600 
    225 H225       -6.7062  -25.1501  -52.1633 H         1 UNK         0.3000 
    226 H226       -8.6369  -23.9273  -54.0517 H         1 UNK         0.0600 
    227 H227       -9.6330  -26.1309  -53.4858 H         1 UNK         0.0600 
    228 H228       -9.0349  -26.1527  -55.1363 H         1 UNK         0.0600 
    229 H229       -8.1150  -26.9432  -53.8600 H         1 UNK         0.0600 
    230 H230       -5.3659  -25.1842  -53.4601 H         1 UNK         0.3000 
    231 H231       -4.6251  -25.4176  -56.1959 H         1 UNK         0.0600 
    232 H232       -2.3014  -25.4663  -55.2878 H         1 UNK         0.0600 
    233 H233       -3.3807  -26.5304  -54.3987 H         1 UNK         0.0600 
    234 H234       -2.9028  -24.9824  -53.7085 H         1 UNK         0.0600 
    235 H235       -4.4477  -22.6868  -53.9514 H         1 UNK         0.3000 
    236 H236       -4.1777  -20.4992  -54.1462 H         1 UNK         0.0600 
    237 H237       -6.1693  -20.7070  -55.6478 H         1 UNK         0.0600 
    238 H238       -5.1531  -19.3498  -56.1051 H         1 UNK         0.0600 
    239 H239       -5.1054  -20.8352  -57.0473 H         1 UNK         0.0600 
    240 H240       -1.8818  -22.0566  -54.4759 H         1 UNK         0.3000 
    241 H241        0.2764  -21.9849  -54.9039 H         1 UNK         0.0600 
    242 H242       -0.6661  -22.7701  -58.5898 H         1 UNK         0.3800 
    243 H243       -1.8061  -22.5985  -57.2807 H         1 UNK         0.3800 
    244 H244        1.5060  -19.9363  -55.4794 H         1 UNK         0.0800 
    245 H245        0.0406  -19.1269  -55.9451 H         1 UNK         0.0800 
    246 H246       -0.1520  -17.1581  -54.5206 H         1 UNK         0.0800 
    247 H247       -1.6419  -18.0000  -54.1631 H         1 UNK         0.0800 
@<TRIPOS>BOND
     1    1    2 1    
     2    1  127 1    
     3    1  128 1    
     4    1  129 1    
     5    2    3 2    
     6    2    4 am   BACKBONE|DICT|INTERRES
     7    4    5 1    
     8    4  130 1    
     9    5    6 1    
    10    5   65 1    
    11    5  131 1    
    12    6    7 1    
    13    6  132 1    
    14    6  133 1    
    15    7    8 1    
    16    8    9 1    
    17    8  134 1    
    18    8  135 1    
    19    9   10 ar   
    20    9   14 ar   
    21   10   11 ar   
    22   10  136 1    
    23   11   12 ar   
    24   11  126 1    
    25   12   13 ar   
    26   12  137 1    
    27   13   14 ar   
    28   13   15 1    
    29   14  138 1    
    30   15   16 1    
    31   15  139 1    
    32   15  140 1    
    33   16   17 1    
    34   17   18 1    
    35   17  141 1    
    36   17  142 1    
    37   18   19 1    
    38   18   67 1    
    39   18  143 1    
    40   19   20 am   BACKBONE|DICT|INTERRES
    41   19  144 1    
    42   20   21 2    
    43   20   22 1    
    44   22   23 1    
    45   22   24 1    
    46   22  145 1    
    47   23  146 1    
    48   23  147 1    
    49   23  148 1    
    50   24   25 am   BACKBONE|DICT|INTERRES
    51   24  149 1    
    52   25   26 2    
    53   25   27 1    
    54   27   28 1    
    55   27   29 1    
    56   27  150 1    
    57   28  151 1    
    58   28  152 1    
    59   28  153 1    
    60   29   30 am   BACKBONE|DICT|INTERRES
    61   29  154 1    
    62   30   31 2    
    63   30   32 1    
    64   32   33 1    
    65   32   34 1    
    66   32  155 1    
    67   33  156 1    
    68   33  157 1    
    69   33  158 1    
    70   34   35 am   BACKBONE|DICT|INTERRES
    71   34  159 1    
    72   35   36 2    
    73   35   37 1    
    74   37   38 1    
    75   37   39 1    
    76   37  160 1    
    77   38  161 1    
    78   38  162 1    
    79   38  163 1    
    80   39   40 am   BACKBONE|DICT|INTERRES
    81   39  164 1    
    82   40   41 2    
    83   40   42 1    
    84   42   43 1    
    85   42   44 1    
    86   42  165 1    
    87   43  166 1    
    88   43  167 1    
    89   43  168 1    
    90   44   45 am   BACKBONE|DICT|INTERRES
    91   44  169 1    
    92   45   46 2    
    93   45   47 1    
    94   47   48 1    
    95   47   49 1    
    96   47  170 1    
    97   48  171 1    
    98   48  172 1    
    99   48  173 1    
   100   49   50 am   BACKBONE|DICT|INTERRES
   101   49  174 1    
   102   50   51 2    
   103   50   52 1    
   104   52   53 1    
   105   52   54 1    
   106   52  175 1    
   107   53  176 1    
   108   53  177 1    
   109   53  178 1    
   110   54   55 am   BACKBONE|DICT|INTERRES
   111   54  179 1    
   112   55   56 2    
   113   55   57 1    
   114   57   58 1    
   115   57   59 1    
   116   57  180 1    
   117   58  181 1    
   118   58  182 1    
   119   58  183 1    
   120   59   60 am   BACKBONE|DICT|INTERRES
   121   59  184 1    
   122   60   61 2    
   123   60   62 1    
   124   62   63 1    
   125   62   64 1    
   126   62  185 1    
   127   63  186 1    
   128   63  187 1    
   129   63  188 1    
   130   64   65 am   BACKBONE|DICT|INTERRES
   131   64  189 1    
   132   65   66 2    
   133   67   68 2    
   134   67   69 am   BACKBONE|DICT|INTERRES
   135   69   70 1    
   136   69  190 1    
   137   70   71 1    
   138   70   72 1    
   139   70  191 1    
   140   71  192 1    
   141   71  193 1    
   142   71  194 1    
   143   72   73 2    
   144   72   74 am   BACKBONE|DICT|INTERRES
   145   74   75 1    
   146   74  195 1    
   147   75   76 1    
   148   75   77 1    
   149   75  196 1    
   150   76  197 1    
   151   76  198 1    
   152   76  199 1    
   153   77   78 2    
   154   77   79 am   BACKBONE|DICT|INTERRES
   155   79   80 1    
   156   79  200 1    
   157   80   81 1    
   158   80   82 1    
   159   80  201 1    
   160   81  202 1    
   161   81  203 1    
   162   81  204 1    
   163   82   83 2    
   164   82   84 am   BACKBONE|DICT|INTERRES
   165   84   85 1    
   166   84  205 1    
   167   85   86 1    
   168   85   87 1    
   169   85  206 1    
   170   86  207 1    
   171   86  208 1    
   172   86  209 1    
   173   87   88 2    
   174   87   89 am   BACKBONE|DICT|INTERRES
   175   89   90 1    
   176   89  210 1    
   177   90   91 1    
   178   90   92 1    
   179   90  211 1    
   180   91  212 1    
   181   91  213 1    
   182   91  214 1    
   183   92   93 2    
   184   92   94 am   BACKBONE|DICT|INTERRES
   185   94   95 1    
   186   94  215 1    
   187   95   96 1    
   188   95   97 1    
   189   95  216 1    
   190   96  217 1    
   191   96  218 1    
   192   96  219 1    
   193   97   98 2    
   194   97   99 am   BACKBONE|DICT|INTERRES
   195   99  100 1    
   196   99  220 1    
   197  100  101 1    
   198  100  102 1    
   199  100  221 1    
   200  101  222 1    
   201  101  223 1    
   202  101  224 1    
   203  102  103 2    
   204  102  104 am   BACKBONE|DICT|INTERRES
   205  104  105 1    
   206  104  225 1    
   207  105  106 1    
   208  105  107 1    
   209  105  226 1    
   210  106  227 1    
   211  106  228 1    
   212  106  229 1    
   213  107  108 2    
   214  107  109 am   BACKBONE|DICT|INTERRES
   215  109  110 1    
   216  109  230 1    
   217  110  111 1    
   218  110  112 1    
   219  110  231 1    
   220  111  232 1    
   221  111  233 1    
   222  111  234 1    
   223  112  113 2    
   224  112  114 am   BACKBONE|DICT|INTERRES
   225  114  115 1    
   226  114  235 1    
   227  115  116 1    
   228  115  117 1    
   229  115  236 1    
   230  116  237 1    
   231  116  238 1    
   232  116  239 1    
   233  117  118 2    
   234  117  119 am   BACKBONE|DICT|INTERRES
   235  119  120 1    
   236  119  240 1    
   237  120  121 1    
   238  120  124 1    
   239  120  241 1    
   240  121  122 am   BACKBONE|DICT|INTERRES
   241  121  123 2    
   242  122  242 1    
   243  122  243 1    
   244  124  125 1    
   245  124  244 1    
   246  124  245 1    
   247  125  126 1    
   248  126  246 1    
   249  126  247 1    
@<TRIPOS>SUBSTRUCTURE
     1 UNK         1 GROUP             0       ****    0 ROOT    
