@<TRIPOS>MOLECULE
3R540
247   249    1
SMALL
USER_CHARGES


@<TRIPOS>ATOM
      1 CA          5.4829  -10.7396  -48.6751 C.3       0 UNK        -0.1800 
      2 C           4.3481  -11.3085  -47.8367 C.2       0 UNK         0.5000 
      3 O           4.2385  -10.9833  -46.6553 O.2       0 UNK        -0.5000 
      4 N           3.4910  -12.1386  -48.4471 N.am      1 UNK        -0.5000 
      5 CA          2.3679  -12.8495  -47.8141 C.3       1 UNK         0.1400 
      6 C6          1.6798  -13.8260  -48.7957 C.3       23 UNK        -0.0398 
      7 S7          2.8198  -15.1405  -49.3531 S.3       23 UNK        -0.2404 
      8 C8          2.0781  -16.6211  -48.5948 C.3       23 UNK        -0.0205 
      9 C9          1.1394  -17.3519  -49.5461 C.ar      23 UNK        -0.0193 
     10 C10        -0.0247  -16.7377  -50.0169 C.ar      23 UNK        -0.1150 
     11 C11        -0.8701  -17.4000  -50.9106 C.ar      23 UNK        -0.0193 
     12 C12        -0.5595  -18.7009  -51.3166 C.ar      23 UNK        -0.1150 
     13 C13         0.5843  -19.3398  -50.8285 C.ar      23 UNK        -0.0193 
     14 C14         1.4318  -18.6576  -49.9502 C.ar      23 UNK        -0.1150 
     15 C15         0.9085  -20.7678  -51.2463 C.3       23 UNK        -0.0205 
     16 S16        -0.2951  -21.9719  -50.5974 S.3       23 UNK        -0.2404 
     17 C17        -0.2676  -21.6134  -48.8088 C.3       23 UNK        -0.0398 
     18 CA         -0.4419  -22.8604  -47.9092 C.3       11 UNK         0.1400 
     19 N          -0.1070  -22.5629  -46.5143 N.am      11 UNK        -0.5000 
     20 C          -0.0716  -23.4635  -45.5229 C.2       10 UNK         0.5000 
     21 O          -0.2470  -24.6699  -45.6916 O.2       10 UNK        -0.5000 
     22 CA          0.1376  -22.9233  -44.0962 C.3       10 UNK         0.1400 
     23 CB          1.6294  -22.7003  -43.8112 C.3       10 UNK        -0.1800 
     24 N          -0.6103  -21.6889  -43.8435 N.am      10 UNK        -0.5000 
     25 C          -1.9490  -21.6007  -43.8580 C.2       9 UNK         0.5000 
     26 O          -2.6908  -22.5653  -44.0321 O.2       9 UNK        -0.5000 
     27 CA         -2.5670  -20.1982  -43.7165 C.3       9 UNK         0.1400 
     28 CB         -2.5859  -19.7471  -42.2491 C.3       9 UNK        -0.1800 
     29 N          -1.8774  -19.2031  -44.5362 N.am      9 UNK        -0.5000 
     30 C          -1.8114  -19.2355  -45.8751 C.2       8 UNK         0.5000 
     31 O          -2.3911  -20.0725  -46.5669 O.2       8 UNK        -0.5000 
     32 CA         -0.8913  -18.1996  -46.5453 C.3       8 UNK         0.1400 
     33 CB         -1.6069  -16.8527  -46.7295 C.3       8 UNK        -0.1800 
     34 N           0.3461  -18.0079  -45.7861 N.am      8 UNK        -0.5000 
     35 C           1.3142  -18.9306  -45.6864 C.2       7 UNK         0.5000 
     36 O           1.2888  -20.0093  -46.2767 O.2       7 UNK        -0.5000 
     37 CA          2.4783  -18.6210  -44.7293 C.3       7 UNK         0.1400 
     38 CB          3.5861  -17.8302  -45.4403 C.3       7 UNK        -0.1800 
     39 N           2.0294  -17.8917  -43.5429 N.am      7 UNK        -0.5000 
     40 C           1.3279  -18.4547  -42.5472 C.2       6 UNK         0.5000 
     41 O           1.0297  -19.6483  -42.5213 O.2       6 UNK        -0.5000 
     42 CA          0.8381  -17.5331  -41.4121 C.3       6 UNK         0.1400 
     43 CB          1.8849  -17.4606  -40.2909 C.3       6 UNK        -0.1800 
     44 N           0.5221  -16.1774  -41.8624 N.am      6 UNK        -0.5000 
     45 C          -0.4154  -15.8669  -42.7687 C.2       5 UNK         0.5000 
     46 O          -1.1794  -16.6952  -43.2628 O.2       5 UNK        -0.5000 
     47 CA         -0.4719  -14.4022  -43.2485 C.3       5 UNK         0.1400 
     48 CB         -1.5905  -13.6409  -42.5231 C.3       5 UNK        -0.1800 
     49 N           0.7887  -13.6664  -43.0943 N.am      5 UNK        -0.5000 
     50 C           1.9549  -13.9998  -43.6653 C.2       4 UNK         0.5000 
     51 O           2.1083  -15.0020  -44.3654 O.2       4 UNK        -0.5000 
     52 CA          3.1255  -13.0428  -43.4037 C.3       4 UNK         0.1400 
     53 CB          4.4318  -13.4734  -44.0983 C.3       4 UNK        -0.1800 
     54 N           2.7489  -11.7005  -43.8357 N.am      4 UNK        -0.5000 
     55 C           3.1628  -10.5582  -43.2722 C.2       3 UNK         0.5000 
     56 O           3.8663  -10.5221  -42.2612 O.2       3 UNK        -0.5000 
     57 CA          2.7338   -9.2355  -43.9420 C.3       3 UNK         0.1400 
     58 CB          3.9320   -8.2869  -44.1213 C.3       3 UNK        -0.1800 
     59 N           2.1323   -9.4673  -45.2555 N.am      3 UNK        -0.5000 
     60 C           0.8615   -9.2102  -45.5930 C.2       2 UNK         0.5000 
     61 O           0.0419   -8.6963  -44.8310 O.2       2 UNK        -0.5000 
     62 CA          0.4194   -9.6041  -47.0199 C.3       2 UNK         0.1400 
     63 CB          0.4393   -8.3775  -47.9447 C.3       2 UNK        -0.1800 
     64 N           1.2373  -10.6621  -47.6203 N.am      2 UNK        -0.5000 
     65 C           1.3243  -11.9180  -47.1596 C.2       1 UNK         0.5000 
     66 O           0.6565  -12.3357  -46.2146 O.2       1 UNK        -0.5000 
     67 C          -1.8509  -23.4843  -48.0324 C.2       11 UNK         0.5000 
     68 O          -2.0087  -24.5157  -48.6855 O.2       11 UNK        -0.5000 
     69 N          -2.8378  -22.8774  -47.3620 N.am      12 UNK        -0.5000 
     70 CA         -4.2201  -23.3456  -47.3385 C.3       12 UNK         0.1400 
     71 CB         -5.1176  -22.2445  -46.7516 C.3       12 UNK        -0.1800 
     72 C          -4.4075  -24.6684  -46.5732 C.2       12 UNK         0.5000 
     73 O          -5.0552  -25.5772  -47.0919 O.2       12 UNK        -0.5000 
     74 N          -3.8763  -24.7437  -45.3466 N.am      13 UNK        -0.5000 
     75 CA         -4.1610  -25.8264  -44.4064 C.3       13 UNK         0.1400 
     76 CB         -4.1205  -25.2782  -42.9706 C.3       13 UNK        -0.1800 
     77 C          -3.2120  -27.0259  -44.5452 C.2       13 UNK         0.5000 
     78 O          -3.6851  -28.1616  -44.6023 O.2       13 UNK        -0.5000 
     79 N          -1.8976  -26.7691  -44.5499 N.am      14 UNK        -0.5000 
     80 CA         -0.8698  -27.8084  -44.4677 C.3       14 UNK         0.1400 
     81 CB          0.3469  -27.2838  -43.6869 C.3       14 UNK        -0.1800 
     82 C          -0.4608  -28.3182  -45.8556 C.2       14 UNK         0.5000 
     83 O          -0.3752  -29.5313  -46.0518 O.2       14 UNK        -0.5000 
     84 N          -0.2317  -27.3931  -46.7982 N.am      15 UNK        -0.5000 
     85 CA          0.1242  -27.7224  -48.1827 C.3       15 UNK         0.1400 
     86 CB          0.8834  -26.5480  -48.8172 C.3       15 UNK        -0.1800 
     87 C          -1.0982  -28.1131  -49.0375 C.2       15 UNK         0.5000 
     88 O          -0.9165  -28.7054  -50.1020 O.2       15 UNK        -0.5000 
     89 N          -2.3076  -27.7836  -48.5561 N.am      16 UNK        -0.5000 
     90 CA         -3.6143  -28.0412  -49.1728 C.3       16 UNK         0.1400 
     91 CB         -3.9046  -29.5562  -49.2248 C.3       16 UNK        -0.1800 
     92 C          -3.7878  -27.3408  -50.5382 C.2       16 UNK         0.5000 
     93 O          -4.4051  -27.9002  -51.4473 O.2       16 UNK        -0.5000 
     94 N          -3.2273  -26.1325  -50.6553 N.am      17 UNK        -0.5000 
     95 CA         -3.2516  -25.2882  -51.8415 C.3       17 UNK         0.1400 
     96 CB         -1.8001  -25.0578  -52.3072 C.3       17 UNK        -0.1800 
     97 C          -4.0391  -24.0031  -51.5224 C.2       17 UNK         0.5000 
     98 O          -5.1823  -24.1024  -51.0720 O.2       17 UNK        -0.5000 
     99 N          -3.4379  -22.8312  -51.7784 N.am      18 UNK        -0.5000 
    100 CA        -4.0349  -21.4932  -51.7174 C.3       18 UNK         0.1400 
    101 CB        -4.3605  -21.0887  -50.2633 C.3       18 UNK        -0.1800 
    102 C         -5.2211  -21.3870  -52.7006 C.2       18 UNK         0.5000 
    103 O         -5.0108  -21.5917  -53.8983 O.2       18 UNK        -0.5000 
    104 N         -6.4287  -21.1058  -52.1886 N.am      19 UNK        -0.5000 
    105 CA        -7.7166  -21.0813  -52.8900 C.3       19 UNK         0.1400 
    106 CB        -8.1330  -22.5112  -53.3008 C.3       19 UNK        -0.1800 
    107 C         -7.7425  -20.0783  -54.0606 C.2       19 UNK         0.5000 
    108 O         -8.0374  -18.9031  -53.8411 O.2       19 UNK        -0.5000 
    109 N         -7.4402  -20.5571  -55.2748 N.am      20 UNK        -0.5000 
    110 CA        -7.3291  -19.7528  -56.4911 C.3       20 UNK         0.1400 
    111 CB        -7.3363  -20.6873  -57.7104 C.3       20 UNK        -0.1800 
    112 C         -6.0781  -18.8531  -56.5072 C.2       20 UNK         0.5000 
    113 O         -6.1020  -17.8021  -57.1513 O.2       20 UNK        -0.5000 
    114 N         -5.0127  -19.2630  -55.8014 N.am      21 UNK        -0.5000 
    115 CA        -3.8043  -18.4609  -55.6120 C.3       21 UNK         0.1400 
    116 CB        -2.6976  -19.3229  -54.9876 C.3       21 UNK        -0.1800 
    117 C         -4.0981  -17.2323  -54.7335 C.2       21 UNK         0.5000 
    118 O         -4.8457  -17.3427  -53.7594 O.2       21 UNK        -0.5000 
    119 N         -3.5005  -16.0944  -55.1021 N.am      22 UNK        -0.5000 
    120 CA        -3.7002  -14.7671  -54.4892 C.3       22 UNK         0.1400 
    121 C         -5.0838  -14.1131  -54.7974 C.2       22 UNK         0.5000 
    122 N         -5.9008  -14.6593  -55.6911 N.am      22 UNK        -0.7600 
    123 O         -5.4129  -13.0681  -54.2424 O.2       22 UNK        -0.5000 
    124 C124       -3.3534  -14.7062  -52.9726 C.3       23 UNK        -0.0398 
    125 S125       -1.6934  -15.3572  -52.5787 S.3       23 UNK        -0.2404 
    126 C126       -2.1174  -16.7033  -51.4283 C.3       23 UNK        -0.0205 
    127 H127        5.4246   -9.6514  -48.6952 H         1 UNK         0.0600 
    128 H128        5.4495  -11.1022  -49.7027 H         1 UNK         0.0600 
    129 H129        6.4434  -11.0228  -48.2448 H         1 UNK         0.0600 
    130 H130        3.6451  -12.3670  -49.4192 H         1 UNK         0.3000 
    131 H131        2.7894  -13.4430  -47.0005 H         1 UNK         0.0600 
    132 H132        0.8056  -14.2792  -48.3261 H         1 UNK         0.0800 
    133 H133        1.3087  -13.2938  -49.6733 H         1 UNK         0.0800 
    134 H134        2.8915  -17.2821  -48.2943 H         1 UNK         0.0800 
    135 H135        1.5511  -16.3570  -47.6784 H         1 UNK         0.0800 
    136 H136       -0.2697  -15.7326  -49.7093 H         1 UNK         0.1150 
    137 H137       -1.2104  -19.2233  -52.0030 H         1 UNK         0.1150 
    138 H138        2.3204  -19.1471  -49.5770 H         1 UNK         0.1150 
    139 H139        0.9190  -20.8293  -52.3353 H         1 UNK         0.0800 
    140 H140        1.9079  -21.0527  -50.9139 H         1 UNK         0.0800 
    141 H141       -1.0280  -20.8616  -48.6000 H         1 UNK         0.0800 
    142 H142        0.6898  -21.1455  -48.5791 H         1 UNK         0.0800 
    143 H143        0.2810  -23.6057  -48.2414 H         1 UNK         0.0600 
    144 H144        0.1146  -21.5959  -46.2995 H         1 UNK         0.3000 
    145 H145       -0.2288  -23.6813  -43.4007 H         1 UNK         0.0600 
    146 H146        1.7906  -22.3851  -42.7802 H         1 UNK         0.0600 
    147 H147        2.1967  -23.6194  -43.9631 H         1 UNK         0.0600 
    148 H148        2.0558  -21.9392  -44.4645 H         1 UNK         0.0600 
    149 H149       -0.0644  -20.8606  -43.6272 H         1 UNK         0.3000 
    150 H150       -3.6002  -20.2539  -44.0658 H         1 UNK         0.0600 
    151 H151       -3.1614  -20.4425  -41.6370 H         1 UNK         0.0600 
    152 H152       -3.0439  -18.7634  -42.1440 H         1 UNK         0.0600 
    153 H153       -1.5824  -19.6959  -41.8285 H         1 UNK         0.0600 
    154 H154       -1.4291  -18.4345  -44.0460 H         1 UNK         0.3000 
    155 H155       -0.6283  -18.5789  -47.5348 H         1 UNK         0.0600 
    156 H156       -1.9514  -16.4397  -45.7817 H         1 UNK         0.0600 
    157 H157       -2.4800  -16.9658  -47.3732 H         1 UNK         0.0600 
    158 H158       -0.9533  -16.1163  -47.1963 H         1 UNK         0.0600 
    159 H159        0.4237  -17.1635  -45.2379 H         1 UNK         0.3000 
    160 H160        2.9053  -19.5728  -44.4065 H         1 UNK         0.0600 
    161 H161        3.2282  -16.8703  -45.8117 H         1 UNK         0.0600 
    162 H162        3.9749  -18.3884  -46.2927 H         1 UNK         0.0600 
    163 H163        4.4236  -17.6364  -44.7701 H         1 UNK         0.0600 
    164 H164        2.1890  -16.8902  -43.5403 H         1 UNK         0.3000 
    165 H165       -0.0744  -17.9684  -41.0007 H         1 UNK         0.0600 
    166 H166        1.5185  -16.8777  -39.4456 H         1 UNK         0.0600 
    167 H167        2.1255  -18.4568  -39.9170 H         1 UNK         0.0600 
    168 H168        2.8144  -17.0060  -40.6361 H         1 UNK         0.0600 
    169 H169        1.1024  -15.4333  -41.5052 H         1 UNK         0.3000 
    170 H170       -0.7083  -14.4225  -44.3146 H         1 UNK         0.0600 
    171 H171       -2.5491  -14.1481  -42.6414 H         1 UNK         0.0600 
    172 H172       -1.3924  -13.5574  -41.4538 H         1 UNK         0.0600 
    173 H173       -1.7063  -12.6339  -42.9245 H         1 UNK         0.0600 
    174 H174        0.7488  -12.8198  -42.5454 H         1 UNK         0.3000 
    175 H175        3.2943  -13.0495  -42.3249 H         1 UNK         0.0600 
    176 H176        4.3277  -13.4823  -45.1831 H         1 UNK         0.0600 
    177 H177        5.2510  -12.7987  -43.8497 H         1 UNK         0.0600 
    178 H178        4.7302  -14.4753  -43.7873 H         1 UNK         0.0600 
    179 H179        2.1262  -11.6550  -44.6329 H         1 UNK         0.3000 
    180 H180        2.0185   -8.7595  -43.2688 H         1 UNK         0.0600 
    181 H181        4.7042   -8.7330  -44.7497 H         1 UNK         0.0600 
    182 H182        4.3885   -8.0398  -43.1621 H         1 UNK         0.0600 
    183 H183        3.6249   -7.3487  -44.5835 H         1 UNK         0.0600 
    184 H184        2.7445   -9.9143  -45.9328 H         1 UNK         0.3000 
    185 H185       -0.6077   -9.9691  -46.9550 H         1 UNK         0.0600 
    186 H186       -0.1842   -7.5764  -47.5452 H         1 UNK         0.0600 
    187 H187        1.4481   -7.9800  -48.0634 H         1 UNK         0.0600 
    188 H188        0.0550   -8.6228  -48.9349 H         1 UNK         0.0600 
    189 H189        1.8313  -10.3936  -48.3913 H         1 UNK         0.3000 
    190 H190       -2.6374  -22.0150  -46.8643 H         1 UNK         0.3000 
    191 H191       -4.5312  -23.5203  -48.3700 H         1 UNK         0.0600 
    192 H192       -5.0393  -21.3216  -47.3262 H         1 UNK         0.0600 
    193 H193       -6.1651  -22.5477  -46.7619 H         1 UNK         0.0600 
    194 H194       -4.8513  -22.0135  -45.7197 H         1 UNK         0.0600 
    195 H195       -3.3701  -23.9410  -44.9754 H         1 UNK         0.3000 
    196 H196       -5.1766  -26.1888  -44.5816 H         1 UNK         0.0600 
    197 H197       -4.3813  -26.0533  -42.2490 H         1 UNK         0.0600 
    198 H198       -4.8302  -24.4609  -42.8412 H         1 UNK         0.0600 
    199 H199       -3.1305  -24.9046  -42.7062 H         1 UNK         0.0600 
    200 H200       -1.5708  -25.8122  -44.6108 H         1 UNK         0.3000 
    201 H201       -1.2654  -28.6584  -43.9071 H         1 UNK         0.0600 
    202 H202        0.0569  -26.9291  -42.6978 H         1 UNK         0.0600 
    203 H203        0.8487  -26.4653  -44.2020 H         1 UNK         0.0600 
    204 H204        1.0837  -28.0751  -43.5445 H         1 UNK         0.0600 
    205 H205       -0.2979  -26.4096  -46.5485 H         1 UNK         0.3000 
    206 H206        0.8013  -28.5793  -48.1704 H         1 UNK         0.0600 
    207 H207        1.6832  -26.1886  -48.1694 H         1 UNK         0.0600 
    208 H208        1.3379  -26.8499  -49.7614 H         1 UNK         0.0600 
    209 H209        0.2216  -25.7142  -49.0370 H         1 UNK         0.0600 
    210 H210       -2.3290  -27.2682  -47.6880 H         1 UNK         0.3000 
    211 H211       -4.3574  -27.5980  -48.5115 H         1 UNK         0.0600 
    212 H212       -3.2442  -30.0732  -49.9214 H         1 UNK         0.0600 
    213 H213       -4.9297  -29.7466  -49.5444 H         1 UNK         0.0600 
    214 H214       -3.7821  -30.0139  -48.2431 H         1 UNK         0.0600 
    215 H215       -2.7790  -25.7145  -49.8415 H         1 UNK         0.3000 
    216 H216       -3.7880  -25.7805  -52.6548 H         1 UNK         0.0600 
    217 H217       -1.7555  -24.4291  -53.1973 H         1 UNK         0.0600 
    218 H218       -1.3248  -26.0048  -52.5639 H         1 UNK         0.0600 
    219 H219       -1.1951  -24.5946  -51.5280 H         1 UNK         0.0600 
    220 H220       -2.4951  -22.8618  -52.1395 H         1 UNK         0.3000 
    221 H221       -3.2697  -20.8050  -52.0739 H         1 UNK         0.0600 
    222 H222       -5.1360  -21.7152  -49.8237 H         1 UNK         0.0600 
    223 H223       -3.4747  -21.1650  -49.6328 H         1 UNK         0.0600 
    224 H224       -4.6978  -20.0529  -50.2104 H         1 UNK         0.0600 
    225 H225       -6.4809  -20.9358  -51.1947 H         1 UNK         0.3000 
    226 H226       -8.4530  -20.7263  -52.1674 H         1 UNK         0.0600 
    227 H227       -8.2477  -23.1472  -52.4228 H         1 UNK         0.0600 
    228 H228       -9.0909  -22.5063  -53.8225 H         1 UNK         0.0600 
    229 H229       -7.4020  -22.9885  -53.9539 H         1 UNK         0.0600 
    230 H230       -7.1681  -21.5270  -55.3469 H         1 UNK         0.3000 
    231 H231       -8.2043  -19.1026  -56.5536 H         1 UNK         0.0600 
    232 H232       -6.4898  -21.3750  -57.6953 H         1 UNK         0.0600 
    233 H233       -7.2805  -20.1177  -58.6391 H         1 UNK         0.0600 
    234 H234       -8.2507  -21.2797  -57.7483 H         1 UNK         0.0600 
    235 H235       -5.0854  -20.1146  -55.2539 H         1 UNK         0.3000 
    236 H236       -3.4642  -18.1273  -56.5947 H         1 UNK         0.0600 
    237 H237       -2.5091  -20.2193  -55.5784 H         1 UNK         0.0600 
    238 H238       -1.7608  -18.7677  -54.9248 H         1 UNK         0.0600 
    239 H239       -2.9574  -19.6331  -53.9778 H         1 UNK         0.0600 
    240 H240       -2.8987  -16.1035  -55.9131 H         1 UNK         0.3000 
    241 H241       -2.9835  -14.1208  -54.9968 H         1 UNK         0.0600 
    242 H242       -6.7846  -14.2162  -55.8870 H         1 UNK         0.3800 
    243 H243       -5.6626  -15.5235  -56.1553 H         1 UNK         0.3800 
    244 H244       -3.3798  -13.6726  -52.6240 H         1 UNK         0.0800 
    245 H245       -4.1082  -15.2322  -52.3867 H         1 UNK         0.0800 
    246 H246       -2.7748  -17.4158  -51.9283 H         1 UNK         0.0800 
    247 H247       -2.6793  -16.2992  -50.5850 H         1 UNK         0.0800 
@<TRIPOS>BOND
     1    1    2 1    
     2    1  127 1    
     3    1  128 1    
     4    1  129 1    
     5    2    3 2    
     6    2    4 am   BACKBONE|DICT|INTERRES
     7    4    5 1    
     8    4  130 1    
     9    5    6 1    
    10    5   65 1    
    11    5  131 1    
    12    6    7 1    
    13    6  132 1    
    14    6  133 1    
    15    7    8 1    
    16    8    9 1    
    17    8  134 1    
    18    8  135 1    
    19    9   10 ar   
    20    9   14 ar   
    21   10   11 ar   
    22   10  136 1    
    23   11   12 ar   
    24   11  126 1    
    25   12   13 ar   
    26   12  137 1    
    27   13   14 ar   
    28   13   15 1    
    29   14  138 1    
    30   15   16 1    
    31   15  139 1    
    32   15  140 1    
    33   16   17 1    
    34   17   18 1    
    35   17  141 1    
    36   17  142 1    
    37   18   19 1    
    38   18   67 1    
    39   18  143 1    
    40   19   20 am   BACKBONE|DICT|INTERRES
    41   19  144 1    
    42   20   21 2    
    43   20   22 1    
    44   22   23 1    
    45   22   24 1    
    46   22  145 1    
    47   23  146 1    
    48   23  147 1    
    49   23  148 1    
    50   24   25 am   BACKBONE|DICT|INTERRES
    51   24  149 1    
    52   25   26 2    
    53   25   27 1    
    54   27   28 1    
    55   27   29 1    
    56   27  150 1    
    57   28  151 1    
    58   28  152 1    
    59   28  153 1    
    60   29   30 am   BACKBONE|DICT|INTERRES
    61   29  154 1    
    62   30   31 2    
    63   30   32 1    
    64   32   33 1    
    65   32   34 1    
    66   32  155 1    
    67   33  156 1    
    68   33  157 1    
    69   33  158 1    
    70   34   35 am   BACKBONE|DICT|INTERRES
    71   34  159 1    
    72   35   36 2    
    73   35   37 1    
    74   37   38 1    
    75   37   39 1    
    76   37  160 1    
    77   38  161 1    
    78   38  162 1    
    79   38  163 1    
    80   39   40 am   BACKBONE|DICT|INTERRES
    81   39  164 1    
    82   40   41 2    
    83   40   42 1    
    84   42   43 1    
    85   42   44 1    
    86   42  165 1    
    87   43  166 1    
    88   43  167 1    
    89   43  168 1    
    90   44   45 am   BACKBONE|DICT|INTERRES
    91   44  169 1    
    92   45   46 2    
    93   45   47 1    
    94   47   48 1    
    95   47   49 1    
    96   47  170 1    
    97   48  171 1    
    98   48  172 1    
    99   48  173 1    
   100   49   50 am   BACKBONE|DICT|INTERRES
   101   49  174 1    
   102   50   51 2    
   103   50   52 1    
   104   52   53 1    
   105   52   54 1    
   106   52  175 1    
   107   53  176 1    
   108   53  177 1    
   109   53  178 1    
   110   54   55 am   BACKBONE|DICT|INTERRES
   111   54  179 1    
   112   55   56 2    
   113   55   57 1    
   114   57   58 1    
   115   57   59 1    
   116   57  180 1    
   117   58  181 1    
   118   58  182 1    
   119   58  183 1    
   120   59   60 am   BACKBONE|DICT|INTERRES
   121   59  184 1    
   122   60   61 2    
   123   60   62 1    
   124   62   63 1    
   125   62   64 1    
   126   62  185 1    
   127   63  186 1    
   128   63  187 1    
   129   63  188 1    
   130   64   65 am   BACKBONE|DICT|INTERRES
   131   64  189 1    
   132   65   66 2    
   133   67   68 2    
   134   67   69 am   BACKBONE|DICT|INTERRES
   135   69   70 1    
   136   69  190 1    
   137   70   71 1    
   138   70   72 1    
   139   70  191 1    
   140   71  192 1    
   141   71  193 1    
   142   71  194 1    
   143   72   73 2    
   144   72   74 am   BACKBONE|DICT|INTERRES
   145   74   75 1    
   146   74  195 1    
   147   75   76 1    
   148   75   77 1    
   149   75  196 1    
   150   76  197 1    
   151   76  198 1    
   152   76  199 1    
   153   77   78 2    
   154   77   79 am   BACKBONE|DICT|INTERRES
   155   79   80 1    
   156   79  200 1    
   157   80   81 1    
   158   80   82 1    
   159   80  201 1    
   160   81  202 1    
   161   81  203 1    
   162   81  204 1    
   163   82   83 2    
   164   82   84 am   BACKBONE|DICT|INTERRES
   165   84   85 1    
   166   84  205 1    
   167   85   86 1    
   168   85   87 1    
   169   85  206 1    
   170   86  207 1    
   171   86  208 1    
   172   86  209 1    
   173   87   88 2    
   174   87   89 am   BACKBONE|DICT|INTERRES
   175   89   90 1    
   176   89  210 1    
   177   90   91 1    
   178   90   92 1    
   179   90  211 1    
   180   91  212 1    
   181   91  213 1    
   182   91  214 1    
   183   92   93 2    
   184   92   94 am   BACKBONE|DICT|INTERRES
   185   94   95 1    
   186   94  215 1    
   187   95   96 1    
   188   95   97 1    
   189   95  216 1    
   190   96  217 1    
   191   96  218 1    
   192   96  219 1    
   193   97   98 2    
   194   97   99 am   BACKBONE|DICT|INTERRES
   195   99  100 1    
   196   99  220 1    
   197  100  101 1    
   198  100  102 1    
   199  100  221 1    
   200  101  222 1    
   201  101  223 1    
   202  101  224 1    
   203  102  103 2    
   204  102  104 am   BACKBONE|DICT|INTERRES
   205  104  105 1    
   206  104  225 1    
   207  105  106 1    
   208  105  107 1    
   209  105  226 1    
   210  106  227 1    
   211  106  228 1    
   212  106  229 1    
   213  107  108 2    
   214  107  109 am   BACKBONE|DICT|INTERRES
   215  109  110 1    
   216  109  230 1    
   217  110  111 1    
   218  110  112 1    
   219  110  231 1    
   220  111  232 1    
   221  111  233 1    
   222  111  234 1    
   223  112  113 2    
   224  112  114 am   BACKBONE|DICT|INTERRES
   225  114  115 1    
   226  114  235 1    
   227  115  116 1    
   228  115  117 1    
   229  115  236 1    
   230  116  237 1    
   231  116  238 1    
   232  116  239 1    
   233  117  118 2    
   234  117  119 am   BACKBONE|DICT|INTERRES
   235  119  120 1    
   236  119  240 1    
   237  120  121 1    
   238  120  124 1    
   239  120  241 1    
   240  121  122 am   BACKBONE|DICT|INTERRES
   241  121  123 2    
   242  122  242 1    
   243  122  243 1    
   244  124  125 1    
   245  124  244 1    
   246  124  245 1    
   247  125  126 1    
   248  126  246 1    
   249  126  247 1    
@<TRIPOS>SUBSTRUCTURE
     1 UNK         1 GROUP             0       ****    0 ROOT    
