@<TRIPOS>MOLECULE
3R540
247   249    1
SMALL
USER_CHARGES


@<TRIPOS>ATOM
      1 CA         -0.1828  -13.0716  -50.0732 C.3       0 UNK        -0.1800 
      2 C           1.2745  -12.8591  -49.6864 C.2       0 UNK         0.5000 
      3 O           2.1300  -12.7479  -50.5637 O.2       0 UNK        -0.5000 
      4 N           1.5489  -12.8002  -48.3779 N.am      1 UNK        -0.5000 
      5 CA          2.8885  -12.6501  -47.7908 C.3       1 UNK         0.1400 
      6 C6          3.3378  -13.9220  -47.0200 C.3       23 UNK        -0.0398 
      7 S7          3.5843  -15.3566  -48.1174 S.3       23 UNK        -0.2404 
      8 C8          2.0294  -16.2708  -47.8849 C.3       23 UNK        -0.0205 
      9 C9          1.8984  -17.3705  -48.9251 C.ar      23 UNK        -0.0193 
     10 C10         1.3587  -17.0770  -50.1800 C.ar      23 UNK        -0.1150 
     11 C11         1.2926  -18.0585  -51.1720 C.ar      23 UNK        -0.0193 
     12 C12         1.7618  -19.3459  -50.8964 C.ar      23 UNK        -0.1150 
     13 C13         2.2834  -19.6595  -49.6376 C.ar      23 UNK        -0.0193 
     14 C14         2.3461  -18.6672  -48.6530 C.ar      23 UNK        -0.1150 
     15 C15         2.8106  -21.0612  -49.3577 C.3       23 UNK        -0.0205 
     16 S16         1.4973  -22.3218  -49.4166 S.3       23 UNK        -0.2404 
     17 C17         0.4198  -21.7790  -48.0536 C.3       23 UNK        -0.0398 
     18 CA         -0.1481  -22.9508  -47.2181 C.3       11 UNK         0.1400 
     19 N          -0.4280  -22.5224  -45.8460 N.am      11 UNK        -0.5000 
     20 C          -0.7892  -23.3239  -44.8363 C.2       10 UNK         0.5000 
     21 O          -0.8726  -24.5475  -44.9317 O.2       10 UNK        -0.5000 
     22 CA         -1.1835  -22.6280  -43.5199 C.3       10 UNK         0.1400 
     23 CB          0.0567  -22.2773  -42.6845 C.3       10 UNK        -0.1800 
     24 N          -1.9782  -21.4206  -43.7600 N.am      10 UNK        -0.5000 
     25 C          -3.2210  -21.4286  -44.2642 C.2       9 UNK         0.5000 
     26 O          -3.8506  -22.4578  -44.5029 O.2       9 UNK        -0.5000 
     27 CA         -3.8407  -20.0653  -44.6181 C.3       9 UNK         0.1400 
     28 CB         -4.5021  -19.4251  -43.3893 C.3       9 UNK        -0.1800 
     29 N          -2.8529  -19.1490  -45.1893 N.am      9 UNK        -0.5000 
     30 C          -2.3084  -19.2996  -46.4066 C.2       8 UNK         0.5000 
     31 O          -2.6251  -20.1961  -47.1855 O.2       8 UNK        -0.5000 
     32 CA         -1.1878  -18.3224  -46.8046 C.3       8 UNK         0.1400 
     33 CB         -1.7751  -17.1147  -47.5495 C.3       8 UNK        -0.1800 
     34 N          -0.3971  -17.8812  -45.6511 N.am      8 UNK        -0.5000 
     35 C           0.4015  -18.6997  -44.9450 C.2       7 UNK         0.5000 
     36 O           0.5734  -19.8817  -45.2380 O.2       7 UNK        -0.5000 
     37 CA          1.0874  -18.1477  -43.6797 C.3       7 UNK         0.1400 
     38 CB          2.5577  -17.8071  -43.9634 C.3       7 UNK        -0.1800 
     39 N           0.4146  -16.9812  -43.1092 N.am      7 UNK        -0.5000 
     40 C          -0.8134  -17.0014  -42.5676 C.2       6 UNK         0.5000 
     41 O          -1.4749  -18.0316  -42.4380 O.2       6 UNK        -0.5000 
     42 CA         -1.4340  -15.6467  -42.1591 C.3       6 UNK         0.1400 
     43 CB         -1.2205  -15.3902  -40.6603 C.3       6 UNK        -0.1800 
     44 N          -0.9125  -14.5056  -42.9180 N.am      6 UNK        -0.5000 
     45 C          -0.9530  -14.3849  -44.2525 C.2       5 UNK         0.5000 
     46 O          -1.5441  -15.1776  -44.9837 O.2       5 UNK        -0.5000 
     47 CA         -0.1372  -13.2473  -44.8973 C.3       5 UNK         0.1400 
     48 CB         -1.0664  -12.1280  -45.3867 C.3       5 UNK        -0.1800 
     49 N           0.9396  -12.6814  -44.0695 N.am      5 UNK        -0.5000 
     50 C           1.9575  -13.3742  -43.5292 C.2       4 UNK         0.5000 
     51 O           2.0582  -14.5968  -43.6325 O.2       4 UNK        -0.5000 
     52 CA          3.0373  -12.5975  -42.7505 C.3       4 UNK         0.1400 
     53 CB          4.4434  -13.1620  -43.0203 C.3       4 UNK        -0.1800 
     54 N           3.0347  -11.1756  -43.0878 N.am      4 UNK        -0.5000 
     55 C           2.5795  -10.1892  -42.3042 C.2       3 UNK         0.5000 
     56 O           2.1066  -10.3719  -41.1821 O.2       3 UNK        -0.5000 
     57 CA          2.6510   -8.7534  -42.8665 C.3       3 UNK         0.1400 
     58 CB          3.8493   -8.0019  -42.2665 C.3       3 UNK        -0.1800 
     59 N           2.7398   -8.6927  -44.3280 N.am      3 UNK        -0.5000 
     60 C           1.7745   -9.0801  -45.1719 C.2       2 UNK         0.5000 
     61 O           0.6835   -9.5081  -44.7961 O.2       2 UNK        -0.5000 
     62 CA          2.0795   -9.0179  -46.6836 C.3       2 UNK         0.1400 
     63 CB          3.3448   -8.2034  -47.0361 C.3       2 UNK        -0.1800 
     64 N           2.1551  -10.3531  -47.2893 N.am      2 UNK        -0.5000 
     65 C           2.9545  -11.3701  -46.9266 C.2       1 UNK         0.5000 
     66 O           3.7199  -11.3183  -45.9624 O.2       1 UNK        -0.5000 
     67 C          -1.3848  -23.5908  -47.8907 C.2       11 UNK         0.5000 
     68 O          -1.2499  -24.5869  -48.6027 O.2       11 UNK        -0.5000 
     69 N          -2.5741  -23.0286  -47.6336 N.am      12 UNK        -0.5000 
     70 CA         -3.8594  -23.5537  -48.0903 C.3       12 UNK         0.1400 
     71 CB         -4.9368  -22.4699  -47.9561 C.3       12 UNK        -0.1800 
     72 C          -4.2679  -24.8378  -47.3482 C.2       12 UNK         0.5000 
     73 O          -4.7638  -25.7669  -47.9821 O.2       12 UNK        -0.5000 
     74 N          -4.0054  -24.9076  -46.0349 N.am      13 UNK        -0.5000 
     75 CA         -4.2077  -26.1077  -45.2145 C.3       13 UNK         0.1400 
     76 CB         -3.9927  -25.7679  -43.7323 C.3       13 UNK        -0.1800 
     77 C          -3.3084  -27.2839  -45.6471 C.2       13 UNK         0.5000 
     78 O          -3.7463  -28.4340  -45.6095 O.2       13 UNK        -0.5000 
     79 N          -2.0892  -26.9660  -46.1028 N.am      14 UNK        -0.5000 
     80 CA         -1.1495  -27.8944  -46.7348 C.3       14 UNK         0.1400 
     81 CB          0.2597  -27.2829  -46.6646 C.3       14 UNK        -0.1800 
     82 C          -1.5139  -28.2443  -48.1957 C.2       14 UNK         0.5000 
     83 O          -0.8668  -29.1144  -48.7789 O.2       14 UNK        -0.5000 
     84 N          -2.5137  -27.5530  -48.7658 N.am      15 UNK        -0.5000 
     85 CA         -3.0247  -27.6388  -50.1399 C.3       15 UNK         0.1400 
     86 CB         -3.5679  -29.0490  -50.4474 C.3       15 UNK        -0.1800 
     87 C          -2.0406  -27.1387  -51.2180 C.2       15 UNK         0.5000 
     88 O          -2.3021  -27.3213  -52.4074 O.2       15 UNK        -0.5000 
     89 N          -0.9510  -26.4808  -50.8039 N.am      16 UNK        -0.5000 
     90 CA          0.0751  -25.9198  -51.6809 C.3       16 UNK         0.1400 
     91 CB          1.3670  -25.7221  -50.8755 C.3       16 UNK        -0.1800 
     92 C          -0.3832  -24.6113  -52.3503 C.2       16 UNK         0.5000 
     93 O          -0.0331  -24.3686  -53.5054 O.2       16 UNK        -0.5000 
     94 N          -1.1983  -23.8233  -51.6359 N.am      17 UNK        -0.5000 
     95 CA         -1.8602  -22.6196  -52.1507 C.3       17 UNK         0.1400 
     96 CB         -1.8665  -21.5373  -51.0585 C.3       17 UNK        -0.1800 
     97 C          -3.2933  -22.9042  -52.6431 C.2       17 UNK         0.5000 
     98 O          -4.0339  -21.9568  -52.9091 O.2       17 UNK        -0.5000 
     99 N          -3.6841  -24.1863  -52.7206 N.am      18 UNK        -0.5000 
    100 CA        -5.0404  -24.6738  -52.9927 C.3       18 UNK         0.1400 
    101 CB        -5.4500  -24.3736  -54.4526 C.3       18 UNK        -0.1800 
    102 C         -6.0243  -24.1424  -51.9285 C.2       18 UNK         0.5000 
    103 O         -5.7733  -24.3389  -50.7410 O.2       18 UNK        -0.5000 
    104 N         -7.0838  -23.4391  -52.3442 N.am      19 UNK        -0.5000 
    105 CA        -8.0467  -22.7669  -51.4668 C.3       19 UNK         0.1400 
    106 CB        -9.4429  -22.8671  -52.1082 C.3       19 UNK        -0.1800 
    107 C         -7.6288  -21.3060  -51.1816 C.2       19 UNK         0.5000 
    108 O         -8.4751  -20.4109  -51.2090 O.2       19 UNK        -0.5000 
    109 N         -6.3236  -21.0887  -50.9523 N.am      20 UNK        -0.5000 
    110 CA        -5.6401  -19.7920  -50.8300 C.3       20 UNK         0.1400 
    111 CB        -6.1051  -19.0257  -49.5736 C.3       20 UNK        -0.1800 
    112 C         -5.7511  -18.9579  -52.1256 C.2       20 UNK         0.5000 
    113 O         -5.9245  -17.7382  -52.0785 O.2       20 UNK        -0.5000 
    114 N         -5.6575  -19.6488  -53.2698 N.am      21 UNK        -0.5000 
    115 CA        -5.8835  -19.1208  -54.6155 C.3       21 UNK         0.1400 
    116 CB        -5.9146  -20.2952  -55.6055 C.3       21 UNK        -0.1800 
    117 C         -4.8484  -18.0692  -55.0516 C.2       21 UNK         0.5000 
    118 O         -5.1709  -17.2016  -55.8642 O.2       21 UNK        -0.5000 
    119 N         -3.6359  -18.1568  -54.4939 N.am      22 UNK        -0.5000 
    120 CA        -2.5522  -17.1828  -54.6793 C.3       22 UNK         0.1400 
    121 C         -2.6714  -15.9017  -53.7977 C.2       22 UNK         0.5000 
    122 N         -3.6594  -15.7788  -52.9172 N.am      22 UNK        -0.7600 
    123 O         -1.8583  -14.9908  -53.9285 O.2       22 UNK        -0.5000 
    124 C124       -1.1653  -17.8647  -54.5710 C.3       23 UNK        -0.0398 
    125 S125       -0.8036  -18.5608  -52.9203 S.3       23 UNK        -0.2404 
    126 C126        0.7632  -17.7140  -52.5547 C.3       23 UNK        -0.0205 
    127 H127       -0.8128  -13.2533  -49.2019 H         1 UNK         0.0600 
    128 H128       -0.2741  -13.9290  -50.7404 H         1 UNK         0.0600 
    129 H129       -0.5646  -12.1934  -50.5937 H         1 UNK         0.0600 
    130 H130        0.7889  -12.8613  -47.7174 H         1 UNK         0.3000 
    131 H131        3.6218  -12.4791  -48.5814 H         1 UNK         0.0600 
    132 H132        4.2911  -13.7532  -46.5167 H         1 UNK         0.0800 
    133 H133        2.6253  -14.1813  -46.2393 H         1 UNK         0.0800 
    134 H134        1.1867  -15.5844  -47.9641 H         1 UNK         0.0800 
    135 H135        1.9961  -16.6906  -46.8804 H         1 UNK         0.0800 
    136 H136        1.0198  -16.0732  -50.3929 H         1 UNK         0.1150 
    137 H137        1.7201  -20.1064  -51.6636 H         1 UNK         0.1150 
    138 H138        2.7640  -18.8954  -47.6824 H         1 UNK         0.1150 
    139 H139        3.3086  -21.1057  -48.3879 H         1 UNK         0.0800 
    140 H140        3.5686  -21.3091  -50.1018 H         1 UNK         0.0800 
    141 H141       -0.3703  -21.1375  -48.4456 H         1 UNK         0.0800 
    142 H142        1.0244  -21.1382  -47.4129 H         1 UNK         0.0800 
    143 H143        0.6175  -23.7262  -47.1449 H         1 UNK         0.0600 
    144 H144       -0.3123  -21.5318  -45.6522 H         1 UNK         0.3000 
    145 H145       -1.7932  -23.3256  -42.9421 H         1 UNK         0.0600 
    146 H146        0.6324  -23.1738  -42.4512 H         1 UNK         0.0600 
    147 H147       -0.2234  -21.8155  -41.7376 H         1 UNK         0.0600 
    148 H148        0.7215  -21.5908  -43.2083 H         1 UNK         0.0600 
    149 H149       -1.5275  -20.5318  -43.5961 H         1 UNK         0.3000 
    150 H150       -4.6176  -20.2351  -45.3666 H         1 UNK         0.0600 
    151 H151       -3.7905  -19.2690  -42.5787 H         1 UNK         0.0600 
    152 H152       -5.2989  -20.0623  -43.0035 H         1 UNK         0.0600 
    153 H153       -4.9476  -18.4614  -43.6366 H         1 UNK         0.0600 
    154 H154       -2.5153  -18.4091  -44.5892 H         1 UNK         0.3000 
    155 H155       -0.5166  -18.8427  -47.4907 H         1 UNK         0.0600 
    156 H156       -1.0060  -16.3899  -47.8102 H         1 UNK         0.0600 
    157 H157       -2.5328  -16.6025  -46.9561 H         1 UNK         0.0600 
    158 H158       -2.2502  -17.4304  -48.4793 H         1 UNK         0.0600 
    159 H159       -0.5522  -16.9308  -45.3332 H         1 UNK         0.3000 
    160 H160        1.0663  -18.9424  -42.9313 H         1 UNK         0.0600 
    161 H161        2.6546  -16.9924  -44.6803 H         1 UNK         0.0600 
    162 H162        3.0886  -18.6684  -44.3711 H         1 UNK         0.0600 
    163 H163        3.0746  -17.5084  -43.0513 H         1 UNK         0.0600 
    164 H164        0.9035  -16.0944  -43.1992 H         1 UNK         0.3000 
    165 H165       -2.5073  -15.7093  -42.3497 H         1 UNK         0.0600 
    166 H166       -1.7268  -14.4797  -40.3391 H         1 UNK         0.0600 
    167 H167       -1.6201  -16.2107  -40.0626 H         1 UNK         0.0600 
    168 H168       -0.1619  -15.2912  -40.4164 H         1 UNK         0.0600 
    169 H169       -0.3963  -13.8134  -42.3960 H         1 UNK         0.3000 
    170 H170        0.3365  -13.6885  -45.7747 H         1 UNK         0.0600 
    171 H171       -0.5427  -11.4462  -46.0559 H         1 UNK         0.0600 
    172 H172       -1.4666  -11.5462  -44.5556 H         1 UNK         0.0600 
    173 H173       -1.9134  -12.5300  -45.9448 H         1 UNK         0.0600 
    174 H174        0.9250  -11.6767  -43.9464 H         1 UNK         0.3000 
    175 H175        2.8200  -12.7383  -41.6902 H         1 UNK         0.0600 
    176 H176        4.5144  -14.2085  -42.7213 H         1 UNK         0.0600 
    177 H177        4.7048  -13.1034  -44.0772 H         1 UNK         0.0600 
    178 H178        5.2006  -12.6151  -42.4583 H         1 UNK         0.0600 
    179 H179        3.3738  -10.9486  -44.0183 H         1 UNK         0.3000 
    180 H180        1.7370   -8.2389  -42.5628 H         1 UNK         0.0600 
    181 H181        4.7961   -8.4619  -42.5524 H         1 UNK         0.0600 
    182 H182        3.8025   -7.9970  -41.1767 H         1 UNK         0.0600 
    183 H183        3.8676   -6.9621  -42.5936 H         1 UNK         0.0600 
    184 H184        3.6180   -8.3790  -44.7149 H         1 UNK         0.3000 
    185 H185        1.2268   -8.5153  -47.1425 H         1 UNK         0.0600 
    186 H186        3.2871   -7.1905  -46.6353 H         1 UNK         0.0600 
    187 H187        4.2557   -8.6647  -46.6529 H         1 UNK         0.0600 
    188 H188        3.4561   -8.1113  -48.1166 H         1 UNK         0.0600 
    189 H189        1.5461  -10.5040  -48.0808 H         1 UNK         0.3000 
    190 H190       -2.6006  -22.1529  -47.1211 H         1 UNK         0.3000 
    191 H191       -3.7596  -23.8007  -49.1488 H         1 UNK         0.0600 
    192 H192       -4.6595  -21.5794  -48.5183 H         1 UNK         0.0600 
    193 H193       -5.8936  -22.8191  -48.3461 H         1 UNK         0.0600 
    194 H194       -5.0910  -22.1765  -46.9181 H         1 UNK         0.0600 
    195 H195       -3.6650  -24.0785  -45.5568 H         1 UNK         0.3000 
    196 H196       -5.2455  -26.4231  -45.3407 H         1 UNK         0.0600 
    197 H197       -4.1936  -26.6345  -43.1014 H         1 UNK         0.0600 
    198 H198       -4.6601  -24.9687  -43.4096 H         1 UNK         0.0600 
    199 H199       -2.9694  -25.4503  -43.5345 H         1 UNK         0.0600 
    200 H200       -1.7812  -26.0029  -46.0134 H         1 UNK         0.3000 
    201 H201       -1.1462  -28.8268  -46.1667 H         1 UNK         0.0600 
    202 H202        1.0057  -27.9647  -47.0745 H         1 UNK         0.0600 
    203 H203        0.5462  -27.0702  -45.6344 H         1 UNK         0.0600 
    204 H204        0.3230  -26.3512  -47.2272 H         1 UNK         0.0600 
    205 H205       -2.9891  -26.8662  -48.1930 H         1 UNK         0.3000 
    206 H206       -3.8711  -26.9524  -50.1840 H         1 UNK         0.0600 
    207 H207       -4.2705  -29.3758  -49.6808 H         1 UNK         0.0600 
    208 H208       -4.0995  -29.0643  -51.3995 H         1 UNK         0.0600 
    209 H209       -2.7694  -29.7884  -50.5102 H         1 UNK         0.0600 
    210 H210       -0.8634  -26.2763  -49.8153 H         1 UNK         0.3000 
    211 H211        0.2841  -26.6377  -52.4770 H         1 UNK         0.0600 
    212 H212        1.1914  -25.1373  -49.9734 H         1 UNK         0.0600 
    213 H213        2.1271  -25.2069  -51.4643 H         1 UNK         0.0600 
    214 H214        1.7854  -26.6809  -50.5689 H         1 UNK         0.0600 
    215 H215       -1.4076  -24.0933  -50.6817 H         1 UNK         0.3000 
    216 H216       -1.3066  -22.2223  -53.0037 H         1 UNK         0.0600 
    217 H217       -2.3518  -20.6260  -51.4069 H         1 UNK         0.0600 
    218 H218       -0.8517  -21.2588  -50.7813 H         1 UNK         0.0600 
    219 H219       -2.3936  -21.8621  -50.1631 H         1 UNK         0.0600 
    220 H220       -3.0050  -24.8963  -52.4881 H         1 UNK         0.3000 
    221 H221       -5.0120  -25.7576  -52.8706 H         1 UNK         0.0600 
    222 H222       -5.5160  -23.3047  -54.6565 H         1 UNK         0.0600 
    223 H223       -4.7261  -24.7944  -55.1505 H         1 UNK         0.0600 
    224 H224       -6.4164  -24.8198  -54.6903 H         1 UNK         0.0600 
    225 H225       -7.1994  -23.2846  -53.3352 H         1 UNK         0.3000 
    226 H226       -8.0897  -23.2789  -50.5032 H         1 UNK         0.0600 
    227 H227       -9.7199  -23.9061  -52.2875 H         1 UNK         0.0600 
    228 H228       -9.4867  -22.3388  -53.0614 H         1 UNK         0.0600 
    229 H229      -10.2066  -22.4388  -51.4577 H         1 UNK         0.0600 
    230 H230       -5.7153  -21.8954  -50.9848 H         1 UNK         0.3000 
    231 H231       -4.5810  -20.0164  -50.7010 H         1 UNK         0.0600 
    232 H232       -7.1368  -18.6852  -49.6635 H         1 UNK         0.0600 
    233 H233       -5.4851  -18.1443  -49.4060 H         1 UNK         0.0600 
    234 H234       -6.0345  -19.6437  -48.6792 H         1 UNK         0.0600 
    235 H235       -5.3843  -20.6256  -53.2070 H         1 UNK         0.3000 
    236 H236       -6.8630  -18.6386  -54.6232 H         1 UNK         0.0600 
    237 H237       -4.9700  -20.8410  -55.6094 H         1 UNK         0.0600 
    238 H238       -6.7080  -20.9999  -55.3558 H         1 UNK         0.0600 
    239 H239       -6.0984  -19.9464  -56.6225 H         1 UNK         0.0600 
    240 H240       -3.4612  -18.8961  -53.8287 H         1 UNK         0.3000 
    241 H241       -2.6238  -16.8160  -55.7051 H         1 UNK         0.0600 
    242 H242       -3.7216  -14.9390  -52.3646 H         1 UNK         0.3800 
    243 H243       -4.3524  -16.5071  -52.7952 H         1 UNK         0.3800 
    244 H244       -0.3827  -17.1615  -54.8607 H         1 UNK         0.0800 
    245 H245       -1.1023  -18.6776  -55.2956 H         1 UNK         0.0800 
    246 H246        1.5076  -17.9934  -53.3017 H         1 UNK         0.0800 
    247 H247        0.6160  -16.6367  -52.6497 H         1 UNK         0.0800 
@<TRIPOS>BOND
     1    1    2 1    
     2    1  127 1    
     3    1  128 1    
     4    1  129 1    
     5    2    3 2    
     6    2    4 am   BACKBONE|DICT|INTERRES
     7    4    5 1    
     8    4  130 1    
     9    5    6 1    
    10    5   65 1    
    11    5  131 1    
    12    6    7 1    
    13    6  132 1    
    14    6  133 1    
    15    7    8 1    
    16    8    9 1    
    17    8  134 1    
    18    8  135 1    
    19    9   10 ar   
    20    9   14 ar   
    21   10   11 ar   
    22   10  136 1    
    23   11   12 ar   
    24   11  126 1    
    25   12   13 ar   
    26   12  137 1    
    27   13   14 ar   
    28   13   15 1    
    29   14  138 1    
    30   15   16 1    
    31   15  139 1    
    32   15  140 1    
    33   16   17 1    
    34   17   18 1    
    35   17  141 1    
    36   17  142 1    
    37   18   19 1    
    38   18   67 1    
    39   18  143 1    
    40   19   20 am   BACKBONE|DICT|INTERRES
    41   19  144 1    
    42   20   21 2    
    43   20   22 1    
    44   22   23 1    
    45   22   24 1    
    46   22  145 1    
    47   23  146 1    
    48   23  147 1    
    49   23  148 1    
    50   24   25 am   BACKBONE|DICT|INTERRES
    51   24  149 1    
    52   25   26 2    
    53   25   27 1    
    54   27   28 1    
    55   27   29 1    
    56   27  150 1    
    57   28  151 1    
    58   28  152 1    
    59   28  153 1    
    60   29   30 am   BACKBONE|DICT|INTERRES
    61   29  154 1    
    62   30   31 2    
    63   30   32 1    
    64   32   33 1    
    65   32   34 1    
    66   32  155 1    
    67   33  156 1    
    68   33  157 1    
    69   33  158 1    
    70   34   35 am   BACKBONE|DICT|INTERRES
    71   34  159 1    
    72   35   36 2    
    73   35   37 1    
    74   37   38 1    
    75   37   39 1    
    76   37  160 1    
    77   38  161 1    
    78   38  162 1    
    79   38  163 1    
    80   39   40 am   BACKBONE|DICT|INTERRES
    81   39  164 1    
    82   40   41 2    
    83   40   42 1    
    84   42   43 1    
    85   42   44 1    
    86   42  165 1    
    87   43  166 1    
    88   43  167 1    
    89   43  168 1    
    90   44   45 am   BACKBONE|DICT|INTERRES
    91   44  169 1    
    92   45   46 2    
    93   45   47 1    
    94   47   48 1    
    95   47   49 1    
    96   47  170 1    
    97   48  171 1    
    98   48  172 1    
    99   48  173 1    
   100   49   50 am   BACKBONE|DICT|INTERRES
   101   49  174 1    
   102   50   51 2    
   103   50   52 1    
   104   52   53 1    
   105   52   54 1    
   106   52  175 1    
   107   53  176 1    
   108   53  177 1    
   109   53  178 1    
   110   54   55 am   BACKBONE|DICT|INTERRES
   111   54  179 1    
   112   55   56 2    
   113   55   57 1    
   114   57   58 1    
   115   57   59 1    
   116   57  180 1    
   117   58  181 1    
   118   58  182 1    
   119   58  183 1    
   120   59   60 am   BACKBONE|DICT|INTERRES
   121   59  184 1    
   122   60   61 2    
   123   60   62 1    
   124   62   63 1    
   125   62   64 1    
   126   62  185 1    
   127   63  186 1    
   128   63  187 1    
   129   63  188 1    
   130   64   65 am   BACKBONE|DICT|INTERRES
   131   64  189 1    
   132   65   66 2    
   133   67   68 2    
   134   67   69 am   BACKBONE|DICT|INTERRES
   135   69   70 1    
   136   69  190 1    
   137   70   71 1    
   138   70   72 1    
   139   70  191 1    
   140   71  192 1    
   141   71  193 1    
   142   71  194 1    
   143   72   73 2    
   144   72   74 am   BACKBONE|DICT|INTERRES
   145   74   75 1    
   146   74  195 1    
   147   75   76 1    
   148   75   77 1    
   149   75  196 1    
   150   76  197 1    
   151   76  198 1    
   152   76  199 1    
   153   77   78 2    
   154   77   79 am   BACKBONE|DICT|INTERRES
   155   79   80 1    
   156   79  200 1    
   157   80   81 1    
   158   80   82 1    
   159   80  201 1    
   160   81  202 1    
   161   81  203 1    
   162   81  204 1    
   163   82   83 2    
   164   82   84 am   BACKBONE|DICT|INTERRES
   165   84   85 1    
   166   84  205 1    
   167   85   86 1    
   168   85   87 1    
   169   85  206 1    
   170   86  207 1    
   171   86  208 1    
   172   86  209 1    
   173   87   88 2    
   174   87   89 am   BACKBONE|DICT|INTERRES
   175   89   90 1    
   176   89  210 1    
   177   90   91 1    
   178   90   92 1    
   179   90  211 1    
   180   91  212 1    
   181   91  213 1    
   182   91  214 1    
   183   92   93 2    
   184   92   94 am   BACKBONE|DICT|INTERRES
   185   94   95 1    
   186   94  215 1    
   187   95   96 1    
   188   95   97 1    
   189   95  216 1    
   190   96  217 1    
   191   96  218 1    
   192   96  219 1    
   193   97   98 2    
   194   97   99 am   BACKBONE|DICT|INTERRES
   195   99  100 1    
   196   99  220 1    
   197  100  101 1    
   198  100  102 1    
   199  100  221 1    
   200  101  222 1    
   201  101  223 1    
   202  101  224 1    
   203  102  103 2    
   204  102  104 am   BACKBONE|DICT|INTERRES
   205  104  105 1    
   206  104  225 1    
   207  105  106 1    
   208  105  107 1    
   209  105  226 1    
   210  106  227 1    
   211  106  228 1    
   212  106  229 1    
   213  107  108 2    
   214  107  109 am   BACKBONE|DICT|INTERRES
   215  109  110 1    
   216  109  230 1    
   217  110  111 1    
   218  110  112 1    
   219  110  231 1    
   220  111  232 1    
   221  111  233 1    
   222  111  234 1    
   223  112  113 2    
   224  112  114 am   BACKBONE|DICT|INTERRES
   225  114  115 1    
   226  114  235 1    
   227  115  116 1    
   228  115  117 1    
   229  115  236 1    
   230  116  237 1    
   231  116  238 1    
   232  116  239 1    
   233  117  118 2    
   234  117  119 am   BACKBONE|DICT|INTERRES
   235  119  120 1    
   236  119  240 1    
   237  120  121 1    
   238  120  124 1    
   239  120  241 1    
   240  121  122 am   BACKBONE|DICT|INTERRES
   241  121  123 2    
   242  122  242 1    
   243  122  243 1    
   244  124  125 1    
   245  124  244 1    
   246  124  245 1    
   247  125  126 1    
   248  126  246 1    
   249  126  247 1    
@<TRIPOS>SUBSTRUCTURE
     1 UNK         1 GROUP             0       ****    0 ROOT    
