@<TRIPOS>MOLECULE
3R540
247   249    1
SMALL
USER_CHARGES


@<TRIPOS>ATOM
      1 CA          2.5856  -12.4493  -50.9813 C.3       0 UNK        -0.1800 
      2 C           1.2158  -12.4299  -50.3177 C.2       0 UNK         0.5000 
      3 O           0.2120  -12.2125  -50.9944 O.2       0 UNK        -0.5000 
      4 N           1.1786  -12.6552  -49.0018 N.am      1 UNK        -0.5000 
      5 CA         -0.0106  -12.7440  -48.1577 C.3       1 UNK         0.1400 
      6 C6         -0.7400  -11.3722  -48.0087 C.3       23 UNK        -0.0398 
      7 S7         -2.3525  -11.4011  -47.1374 S.3       23 UNK        -0.2404 
      8 C8         -3.5335  -11.8432  -48.4581 C.3       23 UNK        -0.0205 
      9 C9         -3.2605  -13.2312  -49.0174 C.ar      23 UNK        -0.0193 
     10 C10        -2.8679  -13.3883  -50.3496 C.ar      23 UNK        -0.1150 
     11 C11        -2.4969  -14.6449  -50.8363 C.ar      23 UNK        -0.0193 
     12 C12        -2.5404  -15.7536  -49.9867 C.ar      23 UNK        -0.1150 
     13 C13        -2.9335  -15.6081  -48.6532 C.ar      23 UNK        -0.0193 
     14 C14        -3.3174  -14.3505  -48.1808 C.ar      23 UNK        -0.1150 
     15 C15        -2.8615  -16.7890  -47.7014 C.3       23 UNK        -0.0205 
     16 S16        -1.1395  -17.0435  -47.1714 S.3       23 UNK        -0.2404 
     17 C17        -1.3423  -18.1201  -45.7198 C.3       23 UNK        -0.0398 
     18 CA         -1.2090  -19.6228  -46.0717 C.3       11 UNK         0.1400 
     19 N          -0.5270  -20.3669  -45.0102 N.am      11 UNK        -0.5000 
     20 C          -0.1384  -21.6466  -45.0942 C.2       10 UNK         0.5000 
     21 O          -0.2497  -22.3320  -46.1099 O.2       10 UNK        -0.5000 
     22 CA          0.4104  -22.2798  -43.8036 C.3       10 UNK         0.1400 
     23 CB          1.9038  -21.9646  -43.6226 C.3       10 UNK        -0.1800 
     24 N          -0.3411  -21.8394  -42.6259 N.am      10 UNK        -0.5000 
     25 C          -1.6075  -22.1981  -42.3661 C.2       9 UNK         0.5000 
     26 O          -2.2494  -22.9810  -43.0642 O.2       9 UNK        -0.5000 
     27 CA         -2.2867  -21.5382  -41.1517 C.3       9 UNK         0.1400 
     28 CB         -1.9460  -22.3008  -39.8629 C.3       9 UNK        -0.1800 
     29 N          -1.9172  -20.1313  -40.9931 N.am      9 UNK        -0.5000 
     30 C          -2.2245  -19.1546  -41.8596 C.2       8 UNK         0.5000 
     31 O          -2.9073  -19.3241  -42.8681 O.2       8 UNK        -0.5000 
     32 CA         -1.5986  -17.7728  -41.5906 C.3       8 UNK         0.1400 
     33 CB         -2.5030  -16.9285  -40.6820 C.3       8 UNK        -0.1800 
     34 N          -0.2616  -17.8757  -40.9990 N.am      8 UNK        -0.5000 
     35 C           0.7887  -18.4099  -41.6336 C.2       7 UNK         0.5000 
     36 O           0.7532  -18.7917  -42.8080 O.2       7 UNK        -0.5000 
     37 CA          2.0543  -18.6353  -40.7985 C.3       7 UNK         0.1400 
     38 CB          1.9081  -19.9047  -39.9359 C.3       7 UNK        -0.1800 
     39 N           3.1735  -18.7724  -41.7182 N.am      7 UNK        -0.5000 
     40 C           4.4737  -18.7326  -41.4103 C.2       6 UNK         0.5000 
     41 O           4.9085  -18.6428  -40.2614 O.2       6 UNK        -0.5000 
     42 CA          5.4576  -18.7749  -42.5973 C.3       6 UNK         0.1400 
     43 CB          5.8594  -20.2254  -42.9069 C.3       6 UNK        -0.1800 
     44 N           4.9305  -18.1534  -43.8180 N.am      6 UNK        -0.5000 
     45 C           4.5933  -16.8611  -43.9321 C.2       5 UNK         0.5000 
     46 O           4.7068  -16.0439  -43.0148 O.2       5 UNK        -0.5000 
     47 CA          3.9954  -16.4383  -45.2899 C.3       5 UNK         0.1400 
     48 CB          2.5575  -16.9704  -45.4254 C.3       5 UNK        -0.1800 
     49 N           3.9732  -14.9865  -45.4679 N.am      5 UNK        -0.5000 
     50 C           5.0468  -14.1883  -45.5530 C.2       4 UNK         0.5000 
     51 O           6.2067  -14.6019  -45.5949 O.2       4 UNK        -0.5000 
     52 CA          4.7838  -12.6716  -45.5989 C.3       4 UNK         0.1400 
     53 CB          4.7419  -12.1772  -47.0539 C.3       4 UNK        -0.1800 
     54 N           3.5265  -12.3170  -44.9360 N.am      4 UNK        -0.5000 
     55 C           3.4127  -11.9591  -43.6492 C.2       3 UNK         0.5000 
     56 O           4.3731  -11.8344  -42.8884 O.2       3 UNK        -0.5000 
     57 CA          1.9916  -11.6765  -43.1172 C.3       3 UNK         0.1400 
     58 CB          1.6812  -10.1737  -43.1943 C.3       3 UNK        -0.1800 
     59 N           0.9480  -12.4106  -43.8345 N.am      3 UNK        -0.5000 
     60 C           0.7079  -13.7217  -43.6982 C.2       2 UNK         0.5000 
     61 O           1.2892  -14.4415  -42.8873 O.2       2 UNK        -0.5000 
     62 CA         -0.3401  -14.3453  -44.6433 C.3       2 UNK         0.1400 
     63 CB         -1.7042  -14.4506  -43.9453 C.3       2 UNK        -0.1800 
     64 N          -0.5197  -13.6527  -45.9240 N.am      2 UNK        -0.5000 
     65 C           0.4316  -13.3924  -46.8284 C.2       1 UNK         0.5000 
     66 O           1.6248  -13.6472  -46.6394 O.2       1 UNK        -0.5000 
     67 C          -2.5773  -20.2494  -46.4191 C.2       11 UNK         0.5000 
     68 O          -2.8811  -20.4508  -47.5955 O.2       11 UNK        -0.5000 
     69 N          -3.3575  -20.5921  -45.3840 N.am      12 UNK        -0.5000 
     70 CA         -4.6365  -21.2908  -45.5004 C.3       12 UNK         0.1400 
     71 CB         -5.3272  -21.3425  -44.1299 C.3       12 UNK        -0.1800 
     72 C          -4.4887  -22.7014  -46.0966 C.2       12 UNK         0.5000 
     73 O          -5.2819  -23.0717  -46.9595 O.2       12 UNK        -0.5000 
     74 N          -3.4592  -23.4455  -45.6669 N.am      13 UNK        -0.5000 
     75 CA         -3.1137  -24.7656  -46.1989 C.3       13 UNK         0.1400 
     76 CB         -2.0054  -25.3997  -45.3456 C.3       13 UNK        -0.1800 
     77 C          -2.7075  -24.7281  -47.6841 C.2       13 UNK         0.5000 
     78 O          -3.0862  -25.6281  -48.4326 O.2       13 UNK        -0.5000 
     79 N          -1.9808  -23.6766  -48.0915 N.am      14 UNK        -0.5000 
     80 CA         -1.6374  -23.4002  -49.4863 C.3       14 UNK         0.1400 
     81 CB         -0.6112  -22.2596  -49.5620 C.3       14 UNK        -0.1800 
     82 C          -2.8851  -23.0915  -50.3340 C.2       14 UNK         0.5000 
     83 O          -3.0636  -23.6870  -51.3989 O.2       14 UNK        -0.5000 
     84 N          -3.7470  -22.1988  -49.8279 N.am      15 UNK        -0.5000 
     85 CA         -5.0144  -21.8180  -50.4551 C.3       15 UNK         0.1400 
     86 CB         -5.6432  -20.6588  -49.6685 C.3       15 UNK        -0.1800 
     87 C          -6.0072  -22.9895  -50.5951 C.2       15 UNK         0.5000 
     88 O          -6.7397  -23.0461  -51.5836 O.2       15 UNK        -0.5000 
     89 N          -5.9889  -23.9242  -49.6354 N.am      16 UNK        -0.5000 
     90 CA         -6.7748  -25.1592  -49.6061 C.3       16 UNK         0.1400 
     91 CB         -6.8077  -25.6975  -48.1647 C.3       16 UNK        -0.1800 
     92 C          -6.2773  -26.2131  -50.6213 C.2       16 UNK         0.5000 
     93 O          -5.8834  -27.3151  -50.2378 O.2       16 UNK        -0.5000 
     94 N          -6.3206  -25.8460  -51.9078 N.am      17 UNK        -0.5000 
     95 CA         -6.0931  -26.6575  -53.1098 C.3       17 UNK         0.1400 
     96 CB         -7.0797  -27.8418  -53.1648 C.3       17 UNK        -0.1800 
     97 C          -4.6427  -27.1226  -53.3634 C.2       17 UNK         0.5000 
     98 O          -4.3907  -27.6857  -54.4296 O.2       17 UNK        -0.5000 
     99 N          -3.7118  -26.8874  -52.4281 N.am      18 UNK        -0.5000 
    100 CA        -2.3026  -27.2669  -52.5652 C.3       18 UNK         0.1400 
    101 CB        -1.6241  -27.2573  -51.1886 C.3       18 UNK        -0.1800 
    102 C         -1.5660  -26.3672  -53.5742 C.2       18 UNK         0.5000 
    103 O         -0.9891  -26.8733  -54.5375 O.2       18 UNK        -0.5000 
    104 N         -1.6464  -25.0494  -53.3566 N.am      19 UNK        -0.5000 
    105 CA        -1.2849  -24.0166  -54.3283 C.3       19 UNK         0.1400 
    106 CB        -0.5921  -22.8495  -53.6076 C.3       19 UNK        -0.1800 
    107 C         -2.5425  -23.5224  -55.0654 C.2       19 UNK         0.5000 
    108 O         -2.4483  -23.1411  -56.2313 O.2       19 UNK        -0.5000 
    109 N         -3.6936  -23.5523  -54.3730 N.am      20 UNK        -0.5000 
    110 CA        -5.0626  -23.2757  -54.8325 C.3       20 UNK         0.1400 
    111 CB        -5.4345  -24.1618  -56.0384 C.3       20 UNK        -0.1800 
    112 C         -5.3834  -21.7966  -55.1255 C.2       20 UNK         0.5000 
    113 O         -6.5541  -21.4193  -55.0637 O.2       20 UNK        -0.5000 
    114 N         -4.3698  -20.9837  -55.4307 N.am      21 UNK        -0.5000 
    115 CA        -4.4784  -19.5669  -55.7550 C.3       21 UNK         0.1400 
    116 CB        -4.9283  -19.4030  -57.2200 C.3       21 UNK        -0.1800 
    117 C         -3.1254  -18.8849  -55.5094 C.2       21 UNK         0.5000 
    118 O         -2.1155  -19.5648  -55.3063 O.2       21 UNK        -0.5000 
    119 N         -3.1341  -17.5487  -55.5478 N.am      22 UNK        -0.5000 
    120 CA        -1.9502  -16.6892  -55.3764 C.3       22 UNK         0.1400 
    121 C         -0.9721  -16.6718  -56.5898 C.2       22 UNK         0.5000 
    122 N         -1.3257  -17.2220  -57.7451 N.am      22 UNK        -0.7600 
    123 O          0.1345  -16.1514  -56.4778 O.2       22 UNK        -0.5000 
    124 C124       -2.3519  -15.2447  -54.9815 C.3       23 UNK        -0.0398 
    125 S125       -3.3097  -15.1735  -53.4286 S.3       23 UNK        -0.2404 
    126 C126       -1.9769  -14.7881  -52.2565 C.3       23 UNK        -0.0205 
    127 H127        2.6179  -13.2199  -51.7515 H         1 UNK         0.0600 
    128 H128        3.3817  -12.6515  -50.2641 H         1 UNK         0.0600 
    129 H129        2.7881  -11.4869  -51.4513 H         1 UNK         0.0600 
    130 H130        2.0267  -12.8816  -48.4963 H         1 UNK         0.3000 
    131 H131       -0.6681  -13.4653  -48.6370 H         1 UNK         0.0600 
    132 H132       -0.0909  -10.6652  -47.4899 H         1 UNK         0.0800 
    133 H133       -0.9173  -10.9340  -48.9909 H         1 UNK         0.0800 
    134 H134       -3.4939  -11.0872  -49.2439 H         1 UNK         0.0800 
    135 H135       -4.5460  -11.8162  -48.0534 H         1 UNK         0.0800 
    136 H136       -2.7993  -12.5252  -50.9970 H         1 UNK         0.1150 
    137 H137       -2.2258  -16.7223  -50.3494 H         1 UNK         0.1150 
    138 H138       -3.6002  -14.2291  -47.1445 H         1 UNK         0.1150 
    139 H139       -3.4987  -16.6144  -46.8332 H         1 UNK         0.0800 
    140 H140       -3.2345  -17.6899  -48.1911 H         1 UNK         0.0800 
    141 H141       -2.2730  -17.8917  -45.1971 H         1 UNK         0.0800 
    142 H142       -0.5496  -17.8293  -45.0294 H         1 UNK         0.0800 
    143 H143       -0.5762  -19.7211  -46.9567 H         1 UNK         0.0600 
    144 H144       -0.3428  -19.8664  -44.1478 H         1 UNK         0.3000 
    145 H145        0.3036  -23.3631  -43.8894 H         1 UNK         0.0600 
    146 H146        2.2970  -22.4187  -42.7130 H         1 UNK         0.0600 
    147 H147        2.4850  -22.3567  -44.4581 H         1 UNK         0.0600 
    148 H148        2.0938  -20.8934  -43.5717 H         1 UNK         0.0600 
    149 H149        0.1041  -21.1592  -42.0302 H         1 UNK         0.3000 
    150 H150       -3.3666  -21.5889  -41.3047 H         1 UNK         0.0600 
    151 H151       -2.2268  -23.3517  -39.9461 H         1 UNK         0.0600 
    152 H152       -2.4828  -21.8894  -39.0079 H         1 UNK         0.0600 
    153 H153       -0.8789  -22.2625  -39.6402 H         1 UNK         0.0600 
    154 H154       -1.3596  -19.8974  -40.1856 H         1 UNK         0.3000 
    155 H155       -1.5053  -17.2643  -42.5519 H         1 UNK         0.0600 
    156 H156       -2.6242  -17.3824  -39.6977 H         1 UNK         0.0600 
    157 H157       -2.0963  -15.9267  -40.5426 H         1 UNK         0.0600 
    158 H158       -3.4969  -16.8168  -41.1176 H         1 UNK         0.0600 
    159 H159       -0.1645  -17.5794  -40.0383 H         1 UNK         0.3000 
    160 H160        2.2178  -17.7630  -40.1625 H         1 UNK         0.0600 
    161 H161        1.7895  -20.7976  -40.5505 H         1 UNK         0.0600 
    162 H162        1.0415  -19.8390  -39.2772 H         1 UNK         0.0600 
    163 H163        2.7791  -20.0560  -39.2986 H         1 UNK         0.0600 
    164 H164        2.8950  -18.8185  -42.6901 H         1 UNK         0.3000 
    165 H165        6.3538  -18.2252  -42.3023 H         1 UNK         0.0600 
    166 H166        6.6170  -20.2676  -43.6897 H         1 UNK         0.0600 
    167 H167        6.2788  -20.7109  -42.0246 H         1 UNK         0.0600 
    168 H168        5.0045  -20.8197  -43.2325 H         1 UNK         0.0600 
    169 H169        4.8106  -18.7629  -44.6140 H         1 UNK         0.3000 
    170 H170        4.6083  -16.8639  -46.0869 H         1 UNK         0.0600 
    171 H171        2.5377  -18.0607  -45.4457 H         1 UNK         0.0600 
    172 H172        1.9359  -16.6536  -44.5877 H         1 UNK         0.0600 
    173 H173        2.0861  -16.6222  -46.3450 H         1 UNK         0.0600 
    174 H174        3.0595  -14.5525  -45.5014 H         1 UNK         0.3000 
    175 H175        5.6172  -12.1734  -45.0992 H         1 UNK         0.0600 
    176 H176        5.6894  -12.3724  -47.5577 H         1 UNK         0.0600 
    177 H177        3.9597  -12.6731  -47.6280 H         1 UNK         0.0600 
    178 H178        4.5642  -11.1027  -47.1011 H         1 UNK         0.0600 
    179 H179        2.6840  -12.4620  -45.4802 H         1 UNK         0.3000 
    180 H180        1.9664  -11.9758  -42.0671 H         1 UNK         0.0600 
    181 H181        1.6788   -9.8151  -44.2245 H         1 UNK         0.0600 
    182 H182        2.4242   -9.5928  -42.6463 H         1 UNK         0.0600 
    183 H183        0.7081   -9.9488  -42.7574 H         1 UNK         0.0600 
    184 H184        0.4098  -11.8929  -44.5134 H         1 UNK         0.3000 
    185 H185        0.0009  -15.3557  -44.8694 H         1 UNK         0.0600 
    186 H186       -1.6109  -14.9195  -42.9656 H         1 UNK         0.0600 
    187 H187       -2.1533  -13.4683  -43.7940 H         1 UNK         0.0600 
    188 H188       -2.3998  -15.0531  -44.5301 H         1 UNK         0.0600 
    189 H189       -1.4649  -13.3713  -46.1465 H         1 UNK         0.3000 
    190 H190       -3.0667  -20.3345  -44.4444 H         1 UNK         0.3000 
    191 H191       -5.2691  -20.7104  -46.1749 H         1 UNK         0.0600 
    192 H192       -4.7389  -21.9004  -43.4017 H         1 UNK         0.0600 
    193 H193       -6.3024  -21.8254  -44.2032 H         1 UNK         0.0600 
    194 H194       -5.4887  -20.3406  -43.7318 H         1 UNK         0.0600 
    195 H195       -2.8871  -23.0989  -44.9028 H         1 UNK         0.3000 
    196 H196       -4.0017  -25.3954  -46.1166 H         1 UNK         0.0600 
    197 H197       -1.7592  -26.3989  -45.7069 H         1 UNK         0.0600 
    198 H198       -2.3157  -25.4978  -44.3053 H         1 UNK         0.0600 
    199 H199       -1.0904  -24.8086  -45.3687 H         1 UNK         0.0600 
    200 H200       -1.6515  -23.0129  -47.3979 H         1 UNK         0.3000 
    201 H201       -1.1608  -24.2901  -49.8963 H         1 UNK         0.0600 
    202 H202        0.2868  -22.5015  -48.9932 H         1 UNK         0.0600 
    203 H203       -1.0081  -21.3231  -49.1723 H         1 UNK         0.0600 
    204 H204       -0.3036  -22.0796  -50.5923 H         1 UNK         0.0600 
    205 H205       -3.5110  -21.7324  -48.9563 H         1 UNK         0.3000 
    206 H206       -4.7878  -21.4612  -51.4621 H         1 UNK         0.0600 
    207 H207       -6.5691  -20.3246  -50.1381 H         1 UNK         0.0600 
    208 H208       -5.8797  -20.9499  -48.6449 H         1 UNK         0.0600 
    209 H209       -4.9714  -19.8012  -49.6250 H         1 UNK         0.0600 
    210 H210       -5.3973  -23.7590  -48.8273 H         1 UNK         0.3000 
    211 H211       -7.8017  -24.9131  -49.8840 H         1 UNK         0.0600 
    212 H212       -5.8081  -25.9432  -47.8057 H         1 UNK         0.0600 
    213 H213       -7.4146  -26.6011  -48.0959 H         1 UNK         0.0600 
    214 H214       -7.2391  -24.9667  -47.4807 H         1 UNK         0.0600 
    215 H215       -6.6045  -24.8847  -52.0791 H         1 UNK         0.3000 
    216 H216       -6.3431  -26.0028  -53.9439 H         1 UNK         0.0600 
    217 H217       -7.0221  -28.3555  -54.1252 H         1 UNK         0.0600 
    218 H218       -8.1090  -27.5049  -53.0415 H         1 UNK         0.0600 
    219 H219       -6.8721  -28.5805  -52.3903 H         1 UNK         0.0600 
    220 H220       -3.9908  -26.4398  -51.5661 H         1 UNK         0.3000 
    221 H221       -2.2582  -28.2905  -52.9435 H         1 UNK         0.0600 
    222 H222       -1.7046  -26.2845  -50.7099 H         1 UNK         0.0600 
    223 H223       -2.0790  -27.9904  -50.5223 H         1 UNK         0.0600 
    224 H224       -0.5643  -27.5017  -51.2697 H         1 UNK         0.0600 
    225 H225       -2.1491  -24.7214  -52.5351 H         1 UNK         0.3000 
    226 H226       -0.5919  -24.4196  -55.0696 H         1 UNK         0.0600 
    227 H227        0.2789  -23.1912  -53.0483 H         1 UNK         0.0600 
    228 H228       -0.2481  -22.1026  -54.3244 H         1 UNK         0.0600 
    229 H229       -1.2625  -22.3440  -52.9125 H         1 UNK         0.0600 
    230 H230       -3.6204  -23.7895  -53.3902 H         1 UNK         0.3000 
    231 H231       -5.7068  -23.5670  -54.0032 H         1 UNK         0.0600 
    232 H232       -6.5062  -24.1174  -56.2356 H         1 UNK         0.0600 
    233 H233       -5.1761  -25.2062  -55.8662 H         1 UNK         0.0600 
    234 H234       -4.9259  -23.8416  -56.9482 H         1 UNK         0.0600 
    235 H235       -3.4278  -21.3579  -55.4685 H         1 UNK         0.3000 
    236 H236       -5.2117  -19.1030  -55.0918 H         1 UNK         0.0600 
    237 H237       -5.9000  -19.8664  -57.3913 H         1 UNK         0.0600 
    238 H238       -5.0248  -18.3515  -57.4920 H         1 UNK         0.0600 
    239 H239       -4.2165  -19.8587  -57.9094 H         1 UNK         0.0600 
    240 H240       -4.0054  -17.0662  -55.7129 H         1 UNK         0.3000 
    241 H241       -1.3719  -17.1013  -54.5470 H         1 UNK         0.0600 
    242 H242       -0.6806  -17.2066  -58.5196 H         1 UNK         0.3800 
    243 H243       -2.2277  -17.6562  -57.8531 H         1 UNK         0.3800 
    244 H244       -1.4698  -14.6096  -54.8802 H         1 UNK         0.0800 
    245 H245       -2.9532  -14.7926  -55.7719 H         1 UNK         0.0800 
    246 H246       -1.2192  -15.5722  -52.2975 H         1 UNK         0.0800 
    247 H247       -1.4796  -13.8655  -52.5605 H         1 UNK         0.0800 
@<TRIPOS>BOND
     1    1    2 1    
     2    1  127 1    
     3    1  128 1    
     4    1  129 1    
     5    2    3 2    
     6    2    4 am   BACKBONE|DICT|INTERRES
     7    4    5 1    
     8    4  130 1    
     9    5    6 1    
    10    5   65 1    
    11    5  131 1    
    12    6    7 1    
    13    6  132 1    
    14    6  133 1    
    15    7    8 1    
    16    8    9 1    
    17    8  134 1    
    18    8  135 1    
    19    9   10 ar   
    20    9   14 ar   
    21   10   11 ar   
    22   10  136 1    
    23   11   12 ar   
    24   11  126 1    
    25   12   13 ar   
    26   12  137 1    
    27   13   14 ar   
    28   13   15 1    
    29   14  138 1    
    30   15   16 1    
    31   15  139 1    
    32   15  140 1    
    33   16   17 1    
    34   17   18 1    
    35   17  141 1    
    36   17  142 1    
    37   18   19 1    
    38   18   67 1    
    39   18  143 1    
    40   19   20 am   BACKBONE|DICT|INTERRES
    41   19  144 1    
    42   20   21 2    
    43   20   22 1    
    44   22   23 1    
    45   22   24 1    
    46   22  145 1    
    47   23  146 1    
    48   23  147 1    
    49   23  148 1    
    50   24   25 am   BACKBONE|DICT|INTERRES
    51   24  149 1    
    52   25   26 2    
    53   25   27 1    
    54   27   28 1    
    55   27   29 1    
    56   27  150 1    
    57   28  151 1    
    58   28  152 1    
    59   28  153 1    
    60   29   30 am   BACKBONE|DICT|INTERRES
    61   29  154 1    
    62   30   31 2    
    63   30   32 1    
    64   32   33 1    
    65   32   34 1    
    66   32  155 1    
    67   33  156 1    
    68   33  157 1    
    69   33  158 1    
    70   34   35 am   BACKBONE|DICT|INTERRES
    71   34  159 1    
    72   35   36 2    
    73   35   37 1    
    74   37   38 1    
    75   37   39 1    
    76   37  160 1    
    77   38  161 1    
    78   38  162 1    
    79   38  163 1    
    80   39   40 am   BACKBONE|DICT|INTERRES
    81   39  164 1    
    82   40   41 2    
    83   40   42 1    
    84   42   43 1    
    85   42   44 1    
    86   42  165 1    
    87   43  166 1    
    88   43  167 1    
    89   43  168 1    
    90   44   45 am   BACKBONE|DICT|INTERRES
    91   44  169 1    
    92   45   46 2    
    93   45   47 1    
    94   47   48 1    
    95   47   49 1    
    96   47  170 1    
    97   48  171 1    
    98   48  172 1    
    99   48  173 1    
   100   49   50 am   BACKBONE|DICT|INTERRES
   101   49  174 1    
   102   50   51 2    
   103   50   52 1    
   104   52   53 1    
   105   52   54 1    
   106   52  175 1    
   107   53  176 1    
   108   53  177 1    
   109   53  178 1    
   110   54   55 am   BACKBONE|DICT|INTERRES
   111   54  179 1    
   112   55   56 2    
   113   55   57 1    
   114   57   58 1    
   115   57   59 1    
   116   57  180 1    
   117   58  181 1    
   118   58  182 1    
   119   58  183 1    
   120   59   60 am   BACKBONE|DICT|INTERRES
   121   59  184 1    
   122   60   61 2    
   123   60   62 1    
   124   62   63 1    
   125   62   64 1    
   126   62  185 1    
   127   63  186 1    
   128   63  187 1    
   129   63  188 1    
   130   64   65 am   BACKBONE|DICT|INTERRES
   131   64  189 1    
   132   65   66 2    
   133   67   68 2    
   134   67   69 am   BACKBONE|DICT|INTERRES
   135   69   70 1    
   136   69  190 1    
   137   70   71 1    
   138   70   72 1    
   139   70  191 1    
   140   71  192 1    
   141   71  193 1    
   142   71  194 1    
   143   72   73 2    
   144   72   74 am   BACKBONE|DICT|INTERRES
   145   74   75 1    
   146   74  195 1    
   147   75   76 1    
   148   75   77 1    
   149   75  196 1    
   150   76  197 1    
   151   76  198 1    
   152   76  199 1    
   153   77   78 2    
   154   77   79 am   BACKBONE|DICT|INTERRES
   155   79   80 1    
   156   79  200 1    
   157   80   81 1    
   158   80   82 1    
   159   80  201 1    
   160   81  202 1    
   161   81  203 1    
   162   81  204 1    
   163   82   83 2    
   164   82   84 am   BACKBONE|DICT|INTERRES
   165   84   85 1    
   166   84  205 1    
   167   85   86 1    
   168   85   87 1    
   169   85  206 1    
   170   86  207 1    
   171   86  208 1    
   172   86  209 1    
   173   87   88 2    
   174   87   89 am   BACKBONE|DICT|INTERRES
   175   89   90 1    
   176   89  210 1    
   177   90   91 1    
   178   90   92 1    
   179   90  211 1    
   180   91  212 1    
   181   91  213 1    
   182   91  214 1    
   183   92   93 2    
   184   92   94 am   BACKBONE|DICT|INTERRES
   185   94   95 1    
   186   94  215 1    
   187   95   96 1    
   188   95   97 1    
   189   95  216 1    
   190   96  217 1    
   191   96  218 1    
   192   96  219 1    
   193   97   98 2    
   194   97   99 am   BACKBONE|DICT|INTERRES
   195   99  100 1    
   196   99  220 1    
   197  100  101 1    
   198  100  102 1    
   199  100  221 1    
   200  101  222 1    
   201  101  223 1    
   202  101  224 1    
   203  102  103 2    
   204  102  104 am   BACKBONE|DICT|INTERRES
   205  104  105 1    
   206  104  225 1    
   207  105  106 1    
   208  105  107 1    
   209  105  226 1    
   210  106  227 1    
   211  106  228 1    
   212  106  229 1    
   213  107  108 2    
   214  107  109 am   BACKBONE|DICT|INTERRES
   215  109  110 1    
   216  109  230 1    
   217  110  111 1    
   218  110  112 1    
   219  110  231 1    
   220  111  232 1    
   221  111  233 1    
   222  111  234 1    
   223  112  113 2    
   224  112  114 am   BACKBONE|DICT|INTERRES
   225  114  115 1    
   226  114  235 1    
   227  115  116 1    
   228  115  117 1    
   229  115  236 1    
   230  116  237 1    
   231  116  238 1    
   232  116  239 1    
   233  117  118 2    
   234  117  119 am   BACKBONE|DICT|INTERRES
   235  119  120 1    
   236  119  240 1    
   237  120  121 1    
   238  120  124 1    
   239  120  241 1    
   240  121  122 am   BACKBONE|DICT|INTERRES
   241  121  123 2    
   242  122  242 1    
   243  122  243 1    
   244  124  125 1    
   245  124  244 1    
   246  124  245 1    
   247  125  126 1    
   248  126  246 1    
   249  126  247 1    
@<TRIPOS>SUBSTRUCTURE
     1 UNK         1 GROUP             0       ****    0 ROOT    
