@<TRIPOS>MOLECULE
3R540
247   249    1
SMALL
USER_CHARGES


@<TRIPOS>ATOM
      1 CA          2.5226  -10.9945  -48.6291 C.3       0 UNK        -0.1800 
      2 C           2.1071  -12.0356  -47.5994 C.2       0 UNK         0.5000 
      3 O           2.2266  -11.7929  -46.3999 O.2       0 UNK        -0.5000 
      4 N           1.6261  -13.1945  -48.0630 N.am      1 UNK        -0.5000 
      5 CA          1.0967  -14.2826  -47.2352 C.3       1 UNK         0.1400 
      6 C6          0.9988  -15.6127  -48.0242 C.3       23 UNK        -0.0398 
      7 S7          0.0987  -15.4756  -49.6100 S.3       23 UNK        -0.2404 
      8 C8          1.3730  -16.0024  -50.7969 C.3       23 UNK        -0.0205 
      9 C9          1.5481  -17.5136  -50.8006 C.ar      23 UNK        -0.0193 
     10 C10         0.6238  -18.3136  -51.4764 C.ar      23 UNK        -0.1150 
     11 C11         0.7858  -19.6992  -51.5191 C.ar      23 UNK        -0.0193 
     12 C12         1.8829  -20.2845  -50.8831 C.ar      23 UNK        -0.1150 
     13 C13         2.8091  -19.5007  -50.1873 C.ar      23 UNK        -0.0193 
     14 C14         2.6348  -18.1124  -50.1536 C.ar      23 UNK        -0.1150 
     15 C15         4.0290  -20.1306  -49.5178 C.3       23 UNK        -0.0205 
     16 S16         3.6888  -21.6954  -48.6369 S.3       23 UNK        -0.2404 
     17 C17         2.7333  -21.1182  -47.1954 C.3       23 UNK        -0.0398 
     18 CA          1.4414  -21.9391  -46.9496 C.3       11 UNK         0.1400 
     19 N           0.9681  -21.8052  -45.5666 N.am      11 UNK        -0.5000 
     20 C          -0.0824  -22.4512  -45.0370 C.2       10 UNK         0.5000 
     21 O          -0.7521  -23.2870  -45.6419 O.2       10 UNK        -0.5000 
     22 CA         -0.4878  -22.0649  -43.6034 C.3       10 UNK         0.1400 
     23 CB          0.3691  -22.8144  -42.5728 C.3       10 UNK        -0.1800 
     24 N          -0.4108  -20.6237  -43.3616 N.am      10 UNK        -0.5000 
     25 C          -1.1494  -19.7021  -43.9967 C.2       9 UNK         0.5000 
     26 O          -2.0142  -19.9732  -44.8282 O.2       9 UNK        -0.5000 
     27 CA         -0.8256  -18.2260  -43.7011 C.3       9 UNK         0.1400 
     28 CB         -1.4392  -17.7818  -42.3645 C.3       9 UNK        -0.1800 
     29 N           0.6145  -17.9634  -43.6984 N.am      9 UNK        -0.5000 
     30 C           1.4153  -18.1345  -44.7605 C.2       8 UNK         0.5000 
     31 O           1.0080  -18.4387  -45.8815 O.2       8 UNK        -0.5000 
     32 CA          2.9259  -17.9861  -44.5164 C.3       8 UNK         0.1400 
     33 CB          3.3573  -16.5139  -44.5928 C.3       8 UNK        -0.1800 
     34 N           3.3196  -18.5522  -43.2259 N.am      8 UNK        -0.5000 
     35 C           3.3689  -19.8673  -42.9687 C.2       7 UNK         0.5000 
     36 O           3.1137  -20.7333  -43.8046 O.2       7 UNK        -0.5000 
     37 CA          3.7196  -20.2835  -41.5279 C.3       7 UNK         0.1400 
     38 CB          5.2412  -20.2820  -41.3196 C.3       7 UNK        -0.1800 
     39 N           3.0922  -19.4229  -40.5245 N.am      7 UNK        -0.5000 
     40 C           1.7701  -19.3333  -40.3214 C.2       6 UNK         0.5000 
     41 O           0.9422  -20.0146  -40.9228 O.2       6 UNK        -0.5000 
     42 CA          1.2863  -18.2694  -39.3179 C.3       6 UNK         0.1400 
     43 CB          1.1577  -18.8754  -37.9128 C.3       6 UNK        -0.1800 
     44 N           2.1480  -17.0854  -39.2585 N.am      6 UNK        -0.5000 
     45 C           2.4013  -16.2675  -40.2886 C.2       5 UNK         0.5000 
     46 O           1.9475  -16.4339  -41.4248 O.2       5 UNK        -0.5000 
     47 CA          3.3941  -15.1251  -40.0062 C.3       5 UNK         0.1400 
     48 CB          4.8362  -15.6421  -40.1348 C.3       5 UNK        -0.1800 
     49 N           3.2285  -13.9888  -40.9108 N.am      5 UNK        -0.5000 
     50 C           2.1589  -13.1858  -40.9636 C.2       4 UNK         0.5000 
     51 O           1.1847  -13.2967  -40.2152 O.2       4 UNK        -0.5000 
     52 CA          2.1841  -12.0588  -42.0121 C.3       4 UNK         0.1400 
     53 CB          3.1623  -12.3107  -43.1813 C.3       4 UNK        -0.1800 
     54 N           0.8308  -11.8605  -42.5186 N.am      4 UNK        -0.5000 
     55 C           0.3571  -10.7571  -43.1068 C.2       3 UNK         0.5000 
     56 O           1.0232   -9.7306  -43.2549 O.2       3 UNK        -0.5000 
     57 CA         -1.0970  -10.8235  -43.6283 C.3       3 UNK         0.1400 
     58 CB         -1.4322   -9.6714  -44.5927 C.3       3 UNK        -0.1800 
     59 N          -1.3634  -12.0904  -44.3116 N.am      3 UNK        -0.5000 
     60 C          -1.7260  -13.2397  -43.7334 C.2       2 UNK         0.5000 
     61 O          -1.9525  -13.3468  -42.5287 O.2       2 UNK        -0.5000 
     62 CA         -1.7651  -14.4967  -44.6233 C.3       2 UNK         0.1400 
     63 CB         -3.0882  -14.6109  -45.4033 C.3       2 UNK        -0.1800 
     64 N          -0.5909  -14.6433  -45.4975 N.am      2 UNK        -0.5000 
     65 C          -0.2443  -13.9079  -46.5650 C.2       1 UNK         0.5000 
     66 O          -0.9197  -12.9713  -47.0006 O.2       1 UNK        -0.5000 
     67 C           0.3369  -21.5924  -47.9700 C.2       11 UNK         0.5000 
     68 O           0.0987  -22.3679  -48.8971 O.2       11 UNK        -0.5000 
     69 N          -0.3496  -20.4636  -47.7411 N.am      12 UNK        -0.5000 
     70 CA         -1.5027  -20.0296  -48.5248 C.3       12 UNK         0.1400 
     71 CB         -1.8768  -18.5930  -48.1324 C.3       12 UNK        -0.1800 
     72 C          -2.7001  -20.9854  -48.3829 C.2       12 UNK         0.5000 
     73 O          -3.2397  -21.4371  -49.3930 O.2       12 UNK        -0.5000 
     74 N          -3.0741  -21.2991  -47.1339 N.am      13 UNK        -0.5000 
     75 CA         -4.2180  -22.1448  -46.7873 C.3       13 UNK         0.1400 
     76 CB         -4.3899  -22.1851  -45.2626 C.3       13 UNK        -0.1800 
     77 C          -4.1444  -23.5725  -47.3578 C.2       13 UNK         0.5000 
     78 O          -5.1732  -24.1079  -47.7756 O.2       13 UNK        -0.5000 
     79 N          -2.9329  -24.1455  -47.3948 N.am      14 UNK        -0.5000 
     80 CA         -2.6426  -25.4762  -47.9318 C.3       14 UNK         0.1400 
     81 CB         -1.1670  -25.8168  -47.6744 C.3       14 UNK        -0.1800 
     82 C          -2.9751  -25.6388  -49.4271 C.2       14 UNK         0.5000 
     83 O          -3.3063  -26.7463  -49.8519 O.2       14 UNK        -0.5000 
     84 N          -2.9293  -24.5424  -50.1955 N.am      15 UNK        -0.5000 
     85 CA         -3.2702  -24.4989  -51.6180 C.3       15 UNK         0.1400 
     86 CB         -2.4301  -23.4041  -52.2904 C.3       15 UNK        -0.1800 
     87 C          -4.7880  -24.3168  -51.8329 C.2       15 UNK         0.5000 
     88 O          -5.2097  -23.4373  -52.5860 O.2       15 UNK        -0.5000 
     89 N          -5.5834  -25.1497  -51.1450 N.am      16 UNK        -0.5000 
     90 CA         -7.0489  -25.2026  -51.1560 C.3       16 UNK         0.1400 
     91 CB         -7.5503  -25.7358  -52.5148 C.3       16 UNK        -0.1800 
     92 C          -7.6872  -23.8521  -50.7740 C.2       16 UNK         0.5000 
     93 O          -8.4742  -23.3028  -51.5447 O.2       16 UNK        -0.5000 
     94 N          -7.2863  -23.3088  -49.6142 N.am      17 UNK        -0.5000 
     95 CA         -7.6625  -21.9814  -49.1043 C.3       17 UNK         0.1400 
     96 CB         -9.1702  -21.9151  -48.7808 C.3       17 UNK        -0.1800 
     97 C          -7.1889  -20.8355  -50.0279 C.2       17 UNK         0.5000 
     98 O          -7.8655  -19.8135  -50.1491 O.2       17 UNK        -0.5000 
     99 N          -6.0364  -21.0558  -50.6760 N.am      18 UNK        -0.5000 
    100 CA        -5.3759  -20.2196  -51.6817 C.3       18 UNK         0.1400 
    101 CB        -4.9781  -18.8507  -51.0929 C.3       18 UNK        -0.1800 
    102 C         -6.1549  -20.0890  -53.0080 C.2       18 UNK         0.5000 
    103 O         -5.8409  -19.1963  -53.7979 O.2       18 UNK        -0.5000 
    104 N         -7.1379  -20.9684  -53.2510 N.am      19 UNK        -0.5000 
    105 CA        -7.9356  -20.9840  -54.4771 C.3       19 UNK         0.1400 
    106 CB        -9.3082  -21.6097  -54.1874 C.3       19 UNK        -0.1800 
    107 C         -7.2425  -21.7314  -55.6304 C.2       19 UNK         0.5000 
    108 O         -7.5344  -21.4353  -56.7903 O.2       19 UNK        -0.5000 
    109 N         -6.3564  -22.6834  -55.3102 N.am      20 UNK        -0.5000 
    110 CA        -5.5818  -23.4478  -56.2852 C.3       20 UNK         0.1400 
    111 CB        -5.4958  -24.9094  -55.8184 C.3       20 UNK        -0.1800 
    112 C         -4.1756  -22.8471  -56.4114 C.2       20 UNK         0.5000 
    113 O         -3.6338  -22.3669  -55.4151 O.2       20 UNK        -0.5000 
    114 N         -3.5977  -22.9180  -57.6196 N.am      21 UNK        -0.5000 
    115 CA        -2.2340  -22.5014  -57.9722 C.3       21 UNK         0.1400 
    116 CB        -1.2176  -23.5338  -57.4323 C.3       21 UNK        -0.1800 
    117 C         -1.9267  -21.0471  -57.5481 C.2       21 UNK         0.5000 
    118 O         -2.4128  -20.1141  -58.1890 O.2       21 UNK        -0.5000 
    119 N         -1.1450  -20.8898  -56.4743 N.am      22 UNK        -0.5000 
    120 CA        -0.8447  -19.6239  -55.7896 C.3       22 UNK         0.1400 
    121 C         -2.0442  -18.9725  -55.0373 C.2       22 UNK         0.5000 
    122 N         -3.1482  -19.6710  -54.8104 N.am      22 UNK        -0.7600 
    123 O         -1.9738  -17.8026  -54.6715 O.2       22 UNK        -0.5000 
    124 C124        0.4032  -19.7607  -54.8753 C.3       23 UNK        -0.0398 
    125 S125        0.3851  -21.2399  -53.7955 S.3       23 UNK        -0.2404 
    126 C126       -0.2387  -20.5719  -52.2229 C.3       23 UNK        -0.0205 
    127 H127        1.9398  -10.0831  -48.4957 H         1 UNK         0.0600 
    128 H128        2.3707  -11.3494  -49.6488 H         1 UNK         0.0600 
    129 H129        3.5772  -10.7472  -48.5083 H         1 UNK         0.0600 
    130 H130        1.5058  -13.3195  -49.0578 H         1 UNK         0.3000 
    131 H131        1.8104  -14.4354  -46.4239 H         1 UNK         0.0600 
    132 H132        2.0067  -15.9827  -48.2118 H         1 UNK         0.0800 
    133 H133        0.5208  -16.3883  -47.4264 H         1 UNK         0.0800 
    134 H134        1.0773  -15.6743  -51.7946 H         1 UNK         0.0800 
    135 H135        2.3168  -15.4992  -50.5815 H         1 UNK         0.0800 
    136 H136       -0.2228  -17.8547  -51.9686 H         1 UNK         0.1150 
    137 H137        2.0064  -21.3574  -50.9263 H         1 UNK         0.1150 
    138 H138        3.3555  -17.4947  -49.6368 H         1 UNK         0.1150 
    139 H139        4.7742  -20.3262  -50.2897 H         1 UNK         0.0800 
    140 H140        4.4893  -19.4303  -48.8190 H         1 UNK         0.0800 
    141 H141        2.5128  -20.0545  -47.2921 H         1 UNK         0.0800 
    142 H142        3.3991  -21.2080  -46.3374 H         1 UNK         0.0800 
    143 H143        1.6825  -22.9961  -47.0814 H         1 UNK         0.0600 
    144 H144        1.4960  -21.1782  -44.9695 H         1 UNK         0.3000 
    145 H145       -1.5261  -22.3682  -43.4590 H         1 UNK         0.0600 
    146 H146        0.0294  -22.6120  -41.5569 H         1 UNK         0.0600 
    147 H147        0.3103  -23.8927  -42.7263 H         1 UNK         0.0600 
    148 H148        1.4194  -22.5301  -42.6367 H         1 UNK         0.0600 
    149 H149        0.2352  -20.3213  -42.6370 H         1 UNK         0.3000 
    150 H150       -1.2687  -17.6273  -44.4991 H         1 UNK         0.0600 
    151 H151       -2.5282  -17.8168  -42.4096 H         1 UNK         0.0600 
    152 H152       -1.1538  -16.7608  -42.1104 H         1 UNK         0.0600 
    153 H153       -1.1287  -18.4257  -41.5426 H         1 UNK         0.0600 
    154 H154        1.0313  -17.6738  -42.8200 H         1 UNK         0.3000 
    155 H155        3.4495  -18.5318  -45.3043 H         1 UNK         0.0600 
    156 H156        2.8018  -15.8856  -43.8960 H         1 UNK         0.0600 
    157 H157        4.4186  -16.4018  -44.3706 H         1 UNK         0.0600 
    158 H158        3.1973  -16.1199  -45.5959 H         1 UNK         0.0600 
    159 H159        3.4689  -17.8989  -42.4705 H         1 UNK         0.3000 
    160 H160        3.3546  -21.3016  -41.3773 H         1 UNK         0.0600 
    161 H161        5.6635  -19.2822  -41.4288 H         1 UNK         0.0600 
    162 H162        5.7349  -20.9284  -42.0466 H         1 UNK         0.0600 
    163 H163        5.5035  -20.6510  -40.3279 H         1 UNK         0.0600 
    164 H164        3.7031  -18.8319  -39.9811 H         1 UNK         0.3000 
    165 H165        0.2964  -17.9404  -39.6391 H         1 UNK         0.0600 
    166 H166        0.7318  -18.1582  -37.2108 H         1 UNK         0.0600 
    167 H167        0.5016  -19.7469  -37.9223 H         1 UNK         0.0600 
    168 H168        2.1241  -19.1962  -37.5219 H         1 UNK         0.0600 
    169 H169        2.5725  -16.8881  -38.3635 H         1 UNK         0.3000 
    170 H170        3.2348  -14.7705  -38.9858 H         1 UNK         0.0600 
    171 H171        5.0470  -16.0013  -41.1432 H         1 UNK         0.0600 
    172 H172        5.5580  -14.8593  -39.9006 H         1 UNK         0.0600 
    173 H173        5.0238  -16.4673  -39.4466 H         1 UNK         0.0600 
    174 H174        3.9685  -13.8421  -41.5807 H         1 UNK         0.3000 
    175 H175        2.4953  -11.1541  -41.4862 H         1 UNK         0.0600 
    176 H176        3.1504  -11.4805  -43.8869 H         1 UNK         0.0600 
    177 H177        2.9059  -13.2159  -43.7333 H         1 UNK         0.0600 
    178 H178        4.1920  -12.4039  -42.8353 H         1 UNK         0.0600 
    179 H179        0.1900  -12.6255  -42.3438 H         1 UNK         0.3000 
    180 H180       -1.7548  -10.7360  -42.7613 H         1 UNK         0.0600 
    181 H181       -0.7878   -9.6862  -45.4728 H         1 UNK         0.0600 
    182 H182       -1.3083   -8.7025  -44.1075 H         1 UNK         0.0600 
    183 H183       -2.4660   -9.7313  -44.9336 H         1 UNK         0.0600 
    184 H184       -1.1666  -12.1185  -45.3084 H         1 UNK         0.3000 
    185 H185       -1.7269  -15.3462  -43.9432 H         1 UNK         0.0600 
    186 H186       -3.1191  -15.5269  -45.9935 H         1 UNK         0.0600 
    187 H187       -3.9380  -14.6352  -44.7201 H         1 UNK         0.0600 
    188 H188       -3.2423  -13.7699  -46.0794 H         1 UNK         0.0600 
    189 H189        0.0477  -15.3685  -45.2057 H         1 UNK         0.3000 
    190 H190       -0.0751  -19.8728  -46.9638 H         1 UNK         0.3000 
    191 H191       -1.2129  -20.0220  -49.5752 H         1 UNK         0.0600 
    192 H192       -2.7243  -18.2322  -48.7146 H         1 UNK         0.0600 
    193 H193       -2.1409  -18.5106  -47.0782 H         1 UNK         0.0600 
    194 H194       -1.0456  -17.9164  -48.3212 H         1 UNK         0.0600 
    195 H195       -2.5778  -20.8733  -46.3539 H         1 UNK         0.3000 
    196 H196       -5.1001  -21.6659  -47.2110 H         1 UNK         0.0600 
    197 H197       -5.2589  -22.7815  -44.9818 H         1 UNK         0.0600 
    198 H198       -4.5371  -21.1850  -44.8546 H         1 UNK         0.0600 
    199 H199       -3.5191  -22.6224  -44.7743 H         1 UNK         0.0600 
    200 H200       -2.1485  -23.6473  -46.9830 H         1 UNK         0.3000 
    201 H201       -3.2581  -26.1924  -47.3840 H         1 UNK         0.0600 
    202 H202       -0.9495  -25.8427  -46.6066 H         1 UNK         0.0600 
    203 H203       -0.5012  -25.0854  -48.1346 H         1 UNK         0.0600 
    204 H204       -0.9120  -26.7969  -48.0795 H         1 UNK         0.0600 
    205 H205       -2.7106  -23.6539  -49.7608 H         1 UNK         0.3000 
    206 H206       -2.9950  -25.4479  -52.0824 H         1 UNK         0.0600 
    207 H207       -1.3674  -23.5554  -52.1023 H         1 UNK         0.0600 
    208 H208       -2.5662  -23.4191  -53.3702 H         1 UNK         0.0600 
    209 H209       -2.7001  -22.4100  -51.9346 H         1 UNK         0.0600 
    210 H210       -5.1241  -25.8265  -50.5472 H         1 UNK         0.3000 
    211 H211       -7.3444  -25.9171  -50.3866 H         1 UNK         0.0600 
    212 H212       -7.3229  -25.0472  -53.3291 H         1 UNK         0.0600 
    213 H213       -8.6313  -25.8794  -52.5022 H         1 UNK         0.0600 
    214 H214       -7.0971  -26.6978  -52.7536 H         1 UNK         0.0600 
    215 H215       -6.6014  -23.8088  -49.0519 H         1 UNK         0.3000 
    216 H216       -7.1310  -21.8543  -48.1627 H         1 UNK         0.0600 
    217 H217       -9.4155  -20.9908  -48.2567 H         1 UNK         0.0600 
    218 H218       -9.4721  -22.7413  -48.1373 H         1 UNK         0.0600 
    219 H219       -9.7833  -21.9492  -49.6817 H         1 UNK         0.0600 
    220 H220       -5.5701  -21.9356  -50.5041 H         1 UNK         0.3000 
    221 H221       -4.4529  -20.7424  -51.9347 H         1 UNK         0.0600 
    222 H222       -5.8464  -18.2126  -50.9275 H         1 UNK         0.0600 
    223 H223       -4.4623  -18.9683  -50.1414 H         1 UNK         0.0600 
    224 H224       -4.3030  -18.3179  -51.7636 H         1 UNK         0.0600 
    225 H225       -7.3326  -21.6934  -52.5704 H         1 UNK         0.3000 
    226 H226       -8.1035  -19.9545  -54.8006 H         1 UNK         0.0600 
    227 H227       -9.7952  -21.1266  -53.3400 H         1 UNK         0.0600 
    228 H228       -9.9704  -21.5063  -55.0477 H         1 UNK         0.0600 
    229 H229       -9.2268  -22.6746  -53.9678 H         1 UNK         0.0600 
    230 H230       -6.0929  -22.8136  -54.3377 H         1 UNK         0.3000 
    231 H231       -6.0687  -23.4286  -57.2623 H         1 UNK         0.0600 
    232 H232       -4.9900  -24.9975  -54.8565 H         1 UNK         0.0600 
    233 H233       -4.9421  -25.5164  -56.5356 H         1 UNK         0.0600 
    234 H234       -6.4878  -25.3496  -55.7173 H         1 UNK         0.0600 
    235 H235       -4.1370  -23.3026  -58.3824 H         1 UNK         0.3000 
    236 H236       -2.1727  -22.5199  -59.0613 H         1 UNK         0.0600 
    237 H237       -1.3989  -24.5176  -57.8651 H         1 UNK         0.0600 
    238 H238       -0.1956  -23.2541  -57.6916 H         1 UNK         0.0600 
    239 H239       -1.2706  -23.6400  -56.3480 H         1 UNK         0.0600 
    240 H240       -0.8330  -21.7178  -55.9873 H         1 UNK         0.3000 
    241 H241       -0.5841  -18.9067  -56.5701 H         1 UNK         0.0600 
    242 H242       -3.2109  -20.6506  -55.0838 H         1 UNK         0.3800 
    243 H243       -3.9529  -19.2316  -54.3805 H         1 UNK         0.3800 
    244 H244        1.2887  -19.8459  -55.5062 H         1 UNK         0.0800 
    245 H245        0.5649  -18.8591  -54.2832 H         1 UNK         0.0800 
    246 H246       -0.4874  -21.4034  -51.5632 H         1 UNK         0.0800 
    247 H247       -1.1705  -20.0303  -52.3914 H         1 UNK         0.0800 
@<TRIPOS>BOND
     1    1    2 1    
     2    1  127 1    
     3    1  128 1    
     4    1  129 1    
     5    2    3 2    
     6    2    4 am   BACKBONE|DICT|INTERRES
     7    4    5 1    
     8    4  130 1    
     9    5    6 1    
    10    5   65 1    
    11    5  131 1    
    12    6    7 1    
    13    6  132 1    
    14    6  133 1    
    15    7    8 1    
    16    8    9 1    
    17    8  134 1    
    18    8  135 1    
    19    9   10 ar   
    20    9   14 ar   
    21   10   11 ar   
    22   10  136 1    
    23   11   12 ar   
    24   11  126 1    
    25   12   13 ar   
    26   12  137 1    
    27   13   14 ar   
    28   13   15 1    
    29   14  138 1    
    30   15   16 1    
    31   15  139 1    
    32   15  140 1    
    33   16   17 1    
    34   17   18 1    
    35   17  141 1    
    36   17  142 1    
    37   18   19 1    
    38   18   67 1    
    39   18  143 1    
    40   19   20 am   BACKBONE|DICT|INTERRES
    41   19  144 1    
    42   20   21 2    
    43   20   22 1    
    44   22   23 1    
    45   22   24 1    
    46   22  145 1    
    47   23  146 1    
    48   23  147 1    
    49   23  148 1    
    50   24   25 am   BACKBONE|DICT|INTERRES
    51   24  149 1    
    52   25   26 2    
    53   25   27 1    
    54   27   28 1    
    55   27   29 1    
    56   27  150 1    
    57   28  151 1    
    58   28  152 1    
    59   28  153 1    
    60   29   30 am   BACKBONE|DICT|INTERRES
    61   29  154 1    
    62   30   31 2    
    63   30   32 1    
    64   32   33 1    
    65   32   34 1    
    66   32  155 1    
    67   33  156 1    
    68   33  157 1    
    69   33  158 1    
    70   34   35 am   BACKBONE|DICT|INTERRES
    71   34  159 1    
    72   35   36 2    
    73   35   37 1    
    74   37   38 1    
    75   37   39 1    
    76   37  160 1    
    77   38  161 1    
    78   38  162 1    
    79   38  163 1    
    80   39   40 am   BACKBONE|DICT|INTERRES
    81   39  164 1    
    82   40   41 2    
    83   40   42 1    
    84   42   43 1    
    85   42   44 1    
    86   42  165 1    
    87   43  166 1    
    88   43  167 1    
    89   43  168 1    
    90   44   45 am   BACKBONE|DICT|INTERRES
    91   44  169 1    
    92   45   46 2    
    93   45   47 1    
    94   47   48 1    
    95   47   49 1    
    96   47  170 1    
    97   48  171 1    
    98   48  172 1    
    99   48  173 1    
   100   49   50 am   BACKBONE|DICT|INTERRES
   101   49  174 1    
   102   50   51 2    
   103   50   52 1    
   104   52   53 1    
   105   52   54 1    
   106   52  175 1    
   107   53  176 1    
   108   53  177 1    
   109   53  178 1    
   110   54   55 am   BACKBONE|DICT|INTERRES
   111   54  179 1    
   112   55   56 2    
   113   55   57 1    
   114   57   58 1    
   115   57   59 1    
   116   57  180 1    
   117   58  181 1    
   118   58  182 1    
   119   58  183 1    
   120   59   60 am   BACKBONE|DICT|INTERRES
   121   59  184 1    
   122   60   61 2    
   123   60   62 1    
   124   62   63 1    
   125   62   64 1    
   126   62  185 1    
   127   63  186 1    
   128   63  187 1    
   129   63  188 1    
   130   64   65 am   BACKBONE|DICT|INTERRES
   131   64  189 1    
   132   65   66 2    
   133   67   68 2    
   134   67   69 am   BACKBONE|DICT|INTERRES
   135   69   70 1    
   136   69  190 1    
   137   70   71 1    
   138   70   72 1    
   139   70  191 1    
   140   71  192 1    
   141   71  193 1    
   142   71  194 1    
   143   72   73 2    
   144   72   74 am   BACKBONE|DICT|INTERRES
   145   74   75 1    
   146   74  195 1    
   147   75   76 1    
   148   75   77 1    
   149   75  196 1    
   150   76  197 1    
   151   76  198 1    
   152   76  199 1    
   153   77   78 2    
   154   77   79 am   BACKBONE|DICT|INTERRES
   155   79   80 1    
   156   79  200 1    
   157   80   81 1    
   158   80   82 1    
   159   80  201 1    
   160   81  202 1    
   161   81  203 1    
   162   81  204 1    
   163   82   83 2    
   164   82   84 am   BACKBONE|DICT|INTERRES
   165   84   85 1    
   166   84  205 1    
   167   85   86 1    
   168   85   87 1    
   169   85  206 1    
   170   86  207 1    
   171   86  208 1    
   172   86  209 1    
   173   87   88 2    
   174   87   89 am   BACKBONE|DICT|INTERRES
   175   89   90 1    
   176   89  210 1    
   177   90   91 1    
   178   90   92 1    
   179   90  211 1    
   180   91  212 1    
   181   91  213 1    
   182   91  214 1    
   183   92   93 2    
   184   92   94 am   BACKBONE|DICT|INTERRES
   185   94   95 1    
   186   94  215 1    
   187   95   96 1    
   188   95   97 1    
   189   95  216 1    
   190   96  217 1    
   191   96  218 1    
   192   96  219 1    
   193   97   98 2    
   194   97   99 am   BACKBONE|DICT|INTERRES
   195   99  100 1    
   196   99  220 1    
   197  100  101 1    
   198  100  102 1    
   199  100  221 1    
   200  101  222 1    
   201  101  223 1    
   202  101  224 1    
   203  102  103 2    
   204  102  104 am   BACKBONE|DICT|INTERRES
   205  104  105 1    
   206  104  225 1    
   207  105  106 1    
   208  105  107 1    
   209  105  226 1    
   210  106  227 1    
   211  106  228 1    
   212  106  229 1    
   213  107  108 2    
   214  107  109 am   BACKBONE|DICT|INTERRES
   215  109  110 1    
   216  109  230 1    
   217  110  111 1    
   218  110  112 1    
   219  110  231 1    
   220  111  232 1    
   221  111  233 1    
   222  111  234 1    
   223  112  113 2    
   224  112  114 am   BACKBONE|DICT|INTERRES
   225  114  115 1    
   226  114  235 1    
   227  115  116 1    
   228  115  117 1    
   229  115  236 1    
   230  116  237 1    
   231  116  238 1    
   232  116  239 1    
   233  117  118 2    
   234  117  119 am   BACKBONE|DICT|INTERRES
   235  119  120 1    
   236  119  240 1    
   237  120  121 1    
   238  120  124 1    
   239  120  241 1    
   240  121  122 am   BACKBONE|DICT|INTERRES
   241  121  123 2    
   242  122  242 1    
   243  122  243 1    
   244  124  125 1    
   245  124  244 1    
   246  124  245 1    
   247  125  126 1    
   248  126  246 1    
   249  126  247 1    
@<TRIPOS>SUBSTRUCTURE
     1 UNK         1 GROUP             0       ****    0 ROOT    
