@<TRIPOS>MOLECULE
3R540
247   249    1
SMALL
USER_CHARGES


@<TRIPOS>ATOM
      1 CA          5.7084   -9.7467  -44.2137 C.3       0 UNK        -0.1800 
      2 C           4.3288  -10.0125  -44.7972 C.2       0 UNK         0.5000 
      3 O           3.6901   -9.0948  -45.3116 O.2       0 UNK        -0.5000 
      4 N           3.8540  -11.2595  -44.6938 N.am      1 UNK        -0.5000 
      5 CA          2.5712  -11.7879  -45.1816 C.3       1 UNK         0.1400 
      6 C6          2.3564  -11.5942  -46.7059 C.3       23 UNK        -0.0398 
      7 S7          1.4555  -12.9888  -47.4587 S.3       23 UNK        -0.2404 
      8 C8         -0.1478  -12.2208  -47.8245 C.3       23 UNK        -0.0205 
      9 C9         -1.1157  -13.2259  -48.4287 C.ar      23 UNK        -0.0193 
     10 C10        -0.9923  -13.6029  -49.7702 C.ar      23 UNK        -0.1150 
     11 C11        -1.8965  -14.5053  -50.3383 C.ar      23 UNK        -0.0193 
     12 C12        -2.9412  -15.0105  -49.5622 C.ar      23 UNK        -0.1150 
     13 C13        -3.0578  -14.6661  -48.2142 C.ar      23 UNK        -0.0193 
     14 C14        -2.1419  -13.7720  -47.6514 C.ar      23 UNK        -0.1150 
     15 C15        -4.1727  -15.2621  -47.3701 C.3       23 UNK        -0.0205 
     16 S16        -3.6867  -16.8603  -46.6493 S.3       23 UNK        -0.2404 
     17 C17        -3.8278  -17.9812  -48.0887 C.3       23 UNK        -0.0398 
     18 CA         -3.6735  -19.5026  -47.8169 C.3       11 UNK         0.1400 
     19 N          -2.2792  -19.9556  -47.8365 N.am      11 UNK        -0.5000 
     20 C          -1.9197  -21.2341  -48.0294 C.2       10 UNK         0.5000 
     21 O          -2.7218  -22.1458  -48.2232 O.2       10 UNK        -0.5000 
     22 CA         -0.4232  -21.5753  -47.9705 C.3       10 UNK         0.1400 
     23 CB          0.2588  -21.2510  -49.3079 C.3       10 UNK        -0.1800 
     24 N           0.2701  -20.9098  -46.8696 N.am      10 UNK        -0.5000 
     25 C          -0.0037  -21.1018  -45.5706 C.2       9 UNK         0.5000 
     26 O          -0.8602  -21.8855  -45.1595 O.2       9 UNK        -0.5000 
     27 CA          0.7737  -20.2330  -44.5647 C.3       9 UNK         0.1400 
     28 CB          2.1895  -20.7819  -44.3353 C.3       9 UNK        -0.1800 
     29 N           0.8491  -18.8347  -44.9871 N.am      9 UNK        -0.5000 
     30 C          -0.2158  -18.0323  -45.1263 C.2       8 UNK         0.5000 
     31 O          -1.3618  -18.3720  -44.8365 O.2       8 UNK        -0.5000 
     32 CA          0.0387  -16.6403  -45.7319 C.3       8 UNK         0.1400 
     33 CB          0.5289  -15.6556  -44.6610 C.3       8 UNK        -0.1800 
     34 N           0.9941  -16.6903  -46.8387 N.am      8 UNK        -0.5000 
     35 C           0.7466  -17.2781  -48.0184 C.2       7 UNK         0.5000 
     36 O          -0.3205  -17.8222  -48.3011 O.2       7 UNK        -0.5000 
     37 CA          1.9125  -17.3214  -49.0247 C.3       7 UNK         0.1400 
     38 CB          2.0293  -15.9999  -49.7976 C.3       7 UNK        -0.1800 
     39 N           3.1967  -17.6186  -48.3867 N.am      7 UNK        -0.5000 
     40 C           3.5056  -18.7854  -47.8029 C.2       6 UNK         0.5000 
     41 O           2.7532  -19.7574  -47.7800 O.2       6 UNK        -0.5000 
     42 CA          4.8626  -18.8594  -47.0755 C.3       6 UNK         0.1400 
     43 CB          5.9827  -19.2390  -48.0553 C.3       6 UNK        -0.1800 
     44 N           5.2127  -17.6101  -46.3922 N.am      6 UNK        -0.5000 
     45 C           4.4967  -17.0722  -45.3968 C.2       5 UNK         0.5000 
     46 O           3.4881  -17.6016  -44.9197 O.2       5 UNK        -0.5000 
     47 CA          4.9402  -15.6904  -44.8941 C.3       5 UNK         0.1400 
     48 CB          4.7024  -14.6368  -45.9959 C.3       5 UNK        -0.1800 
     49 N           4.1688  -15.3966  -43.6875 N.am      5 UNK        -0.5000 
     50 C           4.2512  -14.3236  -42.8978 C.2       4 UNK         0.5000 
     51 O           4.9917  -13.3586  -43.1106 O.2       4 UNK        -0.5000 
     52 CA          3.3489  -14.3289  -41.6551 C.3       4 UNK         0.1400 
     53 CB          3.9560  -15.2104  -40.5468 C.3       4 UNK        -0.1800 
     54 N           3.1947  -12.9550  -41.1882 N.am      4 UNK        -0.5000 
     55 C           2.2829  -12.5114  -40.3146 C.2       3 UNK         0.5000 
     56 O           1.4454  -13.2298  -39.7682 O.2       3 UNK        -0.5000 
     57 CA          2.2909  -10.9988  -40.0352 C.3       3 UNK         0.1400 
     58 CB          3.6757  -10.4995  -39.5854 C.3       3 UNK        -0.1800 
     59 N           1.8795  -10.2803  -41.2378 N.am      3 UNK        -0.5000 
     60 C           0.6088  -10.0238  -41.5793 C.2       2 UNK         0.5000 
     61 O          -0.3583  -10.2259  -40.8442 O.2       2 UNK        -0.5000 
     62 CA          0.3835   -9.4752  -43.0025 C.3       2 UNK         0.1400 
     63 CB          0.4983   -7.9436  -43.0214 C.3       2 UNK        -0.1800 
     64 N           1.3299  -10.0418  -43.9656 N.am      2 UNK        -0.5000 
     65 C           1.3616  -11.3268  -44.3420 C.2       1 UNK         0.5000 
     66 O           0.5128  -12.1506  -44.0025 O.2       1 UNK        -0.5000 
     67 C          -4.4348  -20.0111  -46.5728 C.2       11 UNK         0.5000 
     68 O          -5.5942  -20.4048  -46.7018 O.2       11 UNK        -0.5000 
     69 N          -3.7644  -20.0485  -45.4101 N.am      12 UNK        -0.5000 
     70 CA         -4.3055  -20.5735  -44.1540 C.3       12 UNK         0.1400 
     71 CB         -3.3563  -20.2294  -42.9966 C.3       12 UNK        -0.1800 
     72 C          -4.5711  -22.0888  -44.2105 C.2       12 UNK         0.5000 
     73 O          -5.6029  -22.5458  -43.7177 O.2       12 UNK        -0.5000 
     74 N          -3.6554  -22.8332  -44.8446 N.am      13 UNK        -0.5000 
     75 CA         -3.7924  -24.2646  -45.1223 C.3       13 UNK         0.1400 
     76 CB         -2.3946  -24.8448  -45.3915 C.3       13 UNK        -0.1800 
     77 C          -4.7232  -24.5677  -46.3143 C.2       13 UNK         0.5000 
     78 O          -5.0499  -25.7343  -46.5387 O.2       13 UNK        -0.5000 
     79 N          -5.0731  -23.5339  -47.0953 N.am      14 UNK        -0.5000 
     80 CA         -5.7943  -23.5691  -48.3732 C.3       14 UNK         0.1400 
     81 CB         -7.2756  -23.9306  -48.1420 C.3       14 UNK        -0.1800 
     82 C          -5.1114  -24.4853  -49.4114 C.2       14 UNK         0.5000 
     83 O          -5.7972  -25.1725  -50.1660 O.2       14 UNK        -0.5000 
     84 N          -3.7707  -24.5357  -49.3665 N.am      15 UNK        -0.5000 
     85 CA         -2.8775  -25.4542  -50.0833 C.3       15 UNK         0.1400 
     86 CB         -2.7359  -25.0223  -51.5543 C.3       15 UNK        -0.1800 
     87 C          -3.2467  -26.9483  -49.9194 C.2       15 UNK         0.5000 
     88 O          -3.0761  -27.7288  -50.8563 O.2       15 UNK        -0.5000 
     89 N          -3.7570  -27.3106  -48.7308 N.am      16 UNK        -0.5000 
     90 CA         -4.3278  -28.6140  -48.3728 C.3       16 UNK         0.1400 
     91 CB         -3.2675  -29.7344  -48.4307 C.3       16 UNK        -0.1800 
     92 C          -5.6063  -28.9254  -49.1811 C.2       16 UNK         0.5000 
     93 O          -5.7792  -30.0441  -49.6679 O.2       16 UNK        -0.5000 
     94 N          -6.4732  -27.9081  -49.2940 N.am      17 UNK        -0.5000 
     95 CA         -7.7304  -27.8642  -50.0448 C.3       17 UNK         0.1400 
     96 CB         -8.7518  -28.8781  -49.4869 C.3       17 UNK        -0.1800 
     97 C          -7.4983  -27.9930  -51.5634 C.2       17 UNK         0.5000 
     98 O          -8.0152  -28.9156  -52.1978 O.2       17 UNK        -0.5000 
     99 N          -6.7160  -27.0592  -52.1159 N.am      18 UNK        -0.5000 
    100 CA        -6.3928  -26.9655  -53.5364 C.3       18 UNK         0.1400 
    101 CB        -5.0380  -27.6468  -53.7948 C.3       18 UNK        -0.1800 
    102 C         -6.3583  -25.4952  -53.9802 C.2       18 UNK         0.5000 
    103 O         -6.2056  -24.5930  -53.1554 O.2       18 UNK        -0.5000 
    104 N         -6.4577  -25.2791  -55.2971 N.am      19 UNK        -0.5000 
    105 CA        -6.4014  -23.9602  -55.9386 C.3       19 UNK         0.1400 
    106 CB        -7.0585  -24.0660  -57.3248 C.3       19 UNK        -0.1800 
    107 C         -4.9722  -23.3838  -56.0547 C.2       19 UNK         0.5000 
    108 O         -4.8112  -22.2573  -56.5241 O.2       19 UNK        -0.5000 
    109 N         -3.9610  -24.1643  -55.6495 N.am      20 UNK        -0.5000 
    110 CA        -2.5358  -23.8439  -55.7429 C.3       20 UNK         0.1400 
    111 CB        -1.7335  -25.1353  -55.5170 C.3       20 UNK        -0.1800 
    112 C         -2.0529  -22.7333  -54.7869 C.2       20 UNK         0.5000 
    113 O         -0.9370  -22.2424  -54.9696 O.2       20 UNK        -0.5000 
    114 N         -2.8689  -22.3593  -53.7889 N.am      21 UNK        -0.5000 
    115 CA        -2.5811  -21.3077  -52.8093 C.3       21 UNK         0.1400 
    116 CB        -3.7322  -21.2209  -51.7929 C.3       21 UNK        -0.1800 
    117 C         -2.3277  -19.9478  -53.4898 C.2       21 UNK         0.5000 
    118 O         -3.2455  -19.3896  -54.0942 O.2       21 UNK        -0.5000 
    119 N         -1.0761  -19.4782  -53.4088 N.am      22 UNK        -0.5000 
    120 CA        -0.5448  -18.2834  -54.0926 C.3       22 UNK         0.1400 
    121 C         -0.4245  -18.4294  -55.6423 C.2       22 UNK         0.5000 
    122 N         -0.4620  -19.6324  -56.2037 N.am      22 UNK        -0.7600 
    123 O         -0.2590  -17.4410  -56.3525 O.2       22 UNK        -0.5000 
    124 C124       -1.2405  -16.9576  -53.6698 C.3       23 UNK        -0.0398 
    125 S125       -1.1760  -16.6766  -51.8708 S.3       23 UNK        -0.2404 
    126 C126       -1.7509  -14.9527  -51.7833 C.3       23 UNK        -0.0205 
    127 H127        6.1451  -10.6478  -43.7819 H         1 UNK         0.0600 
    128 H128        5.6460   -8.9901  -43.4315 H         1 UNK         0.0600 
    129 H129        6.3799   -9.3819  -44.9907 H         1 UNK         0.0600 
    130 H130        4.4286  -11.9509  -44.2163 H         1 UNK         0.3000 
    131 H131        2.6532  -12.8581  -44.9929 H         1 UNK         0.0600 
    132 H132        1.8671  -10.6445  -46.9294 H         1 UNK         0.0800 
    133 H133        3.3215  -11.5510  -47.2125 H         1 UNK         0.0800 
    134 H134       -0.5620  -11.7958  -46.9088 H         1 UNK         0.0800 
    135 H135       -0.0045  -11.3904  -48.5174 H         1 UNK         0.0800 
    136 H136       -0.1861  -13.1989  -50.3663 H         1 UNK         0.1150 
    137 H137       -3.6463  -15.6994  -50.0050 H         1 UNK         0.1150 
    138 H138       -2.2303  -13.4991  -46.6091 H         1 UNK         0.1150 
    139 H139       -4.4290  -14.5774  -46.5603 H         1 UNK         0.0800 
    140 H140       -5.0799  -15.3812  -47.9643 H         1 UNK         0.0800 
    141 H141       -3.0986  -17.6776  -48.8403 H         1 UNK         0.0800 
    142 H142       -4.8057  -17.8044  -48.5387 H         1 UNK         0.0800 
    143 H143       -4.1503  -19.9945  -48.6680 H         1 UNK         0.0600 
    144 H144       -1.5623  -19.2423  -47.7333 H         1 UNK         0.3000 
    145 H145       -0.3395  -22.6514  -47.8048 H         1 UNK         0.0600 
    146 H146        1.3016  -21.5682  -49.3054 H         1 UNK         0.0600 
    147 H147       -0.2349  -21.7675  -50.1319 H         1 UNK         0.0600 
    148 H148        0.2335  -20.1837  -49.5269 H         1 UNK         0.0600 
    149 H149        1.0278  -20.2829  -47.1255 H         1 UNK         0.3000 
    150 H150        0.2391  -20.2659  -43.6132 H         1 UNK         0.0600 
    151 H151        2.1543  -21.8115  -43.9773 H         1 UNK         0.0600 
    152 H152        2.7234  -20.1943  -43.5883 H         1 UNK         0.0600 
    153 H153        2.7804  -20.7730  -45.2509 H         1 UNK         0.0600 
    154 H154        1.7723  -18.4652  -45.1935 H         1 UNK         0.3000 
    155 H155       -0.9052  -16.2618  -46.1261 H         1 UNK         0.0600 
    156 H156       -0.2070  -15.5532  -43.8627 H         1 UNK         0.0600 
    157 H157        0.6876  -14.6637  -45.0815 H         1 UNK         0.0600 
    158 H158        1.4616  -15.9827  -44.2054 H         1 UNK         0.0600 
    159 H159        1.9072  -16.2986  -46.6719 H         1 UNK         0.3000 
    160 H160        1.6953  -18.1146  -49.7432 H         1 UNK         0.0600 
    161 H161        2.3802  -15.1895  -49.1598 H         1 UNK         0.0600 
    162 H162        1.0666  -15.6975  -50.2088 H         1 UNK         0.0600 
    163 H163        2.7241  -16.0930  -50.6321 H         1 UNK         0.0600 
    164 H164        3.8772  -16.8743  -48.3636 H         1 UNK         0.3000 
    165 H165        4.7900  -19.6449  -46.3205 H         1 UNK         0.0600 
    166 H166        6.9313  -19.3760  -47.5360 H         1 UNK         0.0600 
    167 H167        5.7541  -20.1765  -48.5642 H         1 UNK         0.0600 
    168 H168        6.1255  -18.4759  -48.8214 H         1 UNK         0.0600 
    169 H169        6.0300  -17.1235  -46.7316 H         1 UNK         0.3000 
    170 H170        5.9997  -15.7317  -44.6352 H         1 UNK         0.0600 
    171 H171        5.2559  -14.8792  -46.9035 H         1 UNK         0.0600 
    172 H172        3.6491  -14.5775  -46.2666 H         1 UNK         0.0600 
    173 H173        5.0347  -13.6456  -45.6930 H         1 UNK         0.0600 
    174 H174        3.5429  -16.1554  -43.4426 H         1 UNK         0.3000 
    175 H175        2.3683  -14.7156  -41.9410 H         1 UNK         0.0600 
    176 H176        4.9242  -14.8296  -40.2192 H         1 UNK         0.0600 
    177 H177        3.3052  -15.2623  -39.6742 H         1 UNK         0.0600 
    178 H178        4.1056  -16.2333  -40.8945 H         1 UNK         0.0600 
    179 H179        3.8539  -12.3114  -41.6056 H         1 UNK         0.3000 
    180 H180        1.5855  -10.8004  -39.2251 H         1 UNK         0.0600 
    181 H181        3.6345   -9.4496  -39.2950 H         1 UNK         0.0600 
    182 H182        4.4268  -10.5952  -40.3702 H         1 UNK         0.0600 
    183 H183        4.0297  -11.0608  -38.7197 H         1 UNK         0.0600 
    184 H184        2.5980  -10.0819  -41.9168 H         1 UNK         0.3000 
    185 H185       -0.6270   -9.7494  -43.3127 H         1 UNK         0.0600 
    186 H186        1.4984   -7.6103  -42.7412 H         1 UNK         0.0600 
    187 H187        0.2772   -7.5444  -44.0115 H         1 UNK         0.0600 
    188 H188       -0.2073   -7.4908  -42.3236 H         1 UNK         0.0600 
    189 H189        2.0620   -9.4318  -44.3182 H         1 UNK         0.3000 
    190 H190       -2.8304  -19.6506  -45.3704 H         1 UNK         0.3000 
    191 H191       -5.2597  -20.0761  -43.9680 H         1 UNK         0.0600 
    192 H192       -2.3663  -20.6615  -43.1450 H         1 UNK         0.0600 
    193 H193       -3.2377  -19.1506  -42.8937 H         1 UNK         0.0600 
    194 H194       -3.7418  -20.6060  -42.0484 H         1 UNK         0.0600 
    195 H195       -2.7984  -22.3893  -45.1626 H         1 UNK         0.3000 
    196 H196       -4.2084  -24.7598  -44.2426 H         1 UNK         0.0600 
    197 H197       -1.7300  -24.6803  -44.5431 H         1 UNK         0.0600 
    198 H198       -1.9338  -24.3890  -46.2691 H         1 UNK         0.0600 
    199 H199       -2.4400  -25.9209  -45.5641 H         1 UNK         0.0600 
    200 H200       -4.7176  -22.6240  -46.8351 H         1 UNK         0.3000 
    201 H201       -5.7526  -22.5583  -48.7813 H         1 UNK         0.0600 
    202 H202       -7.8483  -23.8480  -49.0665 H         1 UNK         0.0600 
    203 H203       -7.7341  -23.2585  -47.4164 H         1 UNK         0.0600 
    204 H204       -7.3916  -24.9505  -47.7742 H         1 UNK         0.0600 
    205 H205       -3.3140  -23.8621  -48.7560 H         1 UNK         0.3000 
    206 H206       -1.8967  -25.3452  -49.6184 H         1 UNK         0.0600 
    207 H207       -2.3190  -24.0191  -51.6181 H         1 UNK         0.0600 
    208 H208       -3.6948  -25.0263  -52.0719 H         1 UNK         0.0600 
    209 H209       -2.0592  -25.6805  -52.0995 H         1 UNK         0.0600 
    210 H210       -3.9020  -26.5859  -48.0364 H         1 UNK         0.3000 
    211 H211       -4.6455  -28.5255  -47.3328 H         1 UNK         0.0600 
    212 H212       -2.3839  -29.4713  -47.8492 H         1 UNK         0.0600 
    213 H213       -3.6627  -30.6630  -48.0177 H         1 UNK         0.0600 
    214 H214       -2.9481  -29.9447  -49.4515 H         1 UNK         0.0600 
    215 H215       -6.1785  -27.0140  -48.9240 H         1 UNK         0.3000 
    216 H216       -8.1448  -26.8678  -49.8828 H         1 UNK         0.0600 
    217 H217       -9.7193  -28.7618  -49.9766 H         1 UNK         0.0600 
    218 H218       -8.4331  -29.9094  -49.6398 H         1 UNK         0.0600 
    219 H219       -8.9093  -28.7306  -48.4185 H         1 UNK         0.0600 
    220 H220       -6.3563  -26.3010  -51.5349 H         1 UNK         0.3000 
    221 H221       -7.1639  -27.4679  -54.1243 H         1 UNK         0.0600 
    222 H222       -4.2282  -27.1424  -53.2675 H         1 UNK         0.0600 
    223 H223       -5.0506  -28.6860  -53.4653 H         1 UNK         0.0600 
    224 H224       -4.7899  -27.6469  -54.8567 H         1 UNK         0.0600 
    225 H225       -6.5698  -26.0695  -55.9165 H         1 UNK         0.3000 
    226 H226       -6.9838  -23.2561  -55.3405 H         1 UNK         0.0600 
    227 H227       -8.0874  -24.4184  -57.2481 H         1 UNK         0.0600 
    228 H228       -7.0877  -23.0954  -57.8218 H         1 UNK         0.0600 
    229 H229       -6.5153  -24.7518  -57.9761 H         1 UNK         0.0600 
    230 H230       -4.1924  -25.0722  -55.2768 H         1 UNK         0.3000 
    231 H231       -2.3369  -23.4951  -56.7584 H         1 UNK         0.0600 
    232 H232       -0.6612  -24.9526  -55.5992 H         1 UNK         0.0600 
    233 H233       -1.9885  -25.8929  -56.2582 H         1 UNK         0.0600 
    234 H234       -1.9198  -25.5571  -54.5291 H         1 UNK         0.0600 
    235 H235       -3.7763  -22.7972  -53.7288 H         1 UNK         0.3000 
    236 H236       -1.6808  -21.6022  -52.2663 H         1 UNK         0.0600 
    237 H237       -3.5389  -20.4412  -51.0553 H         1 UNK         0.0600 
    238 H238       -4.6812  -20.9883  -52.2775 H         1 UNK         0.0600 
    239 H239       -3.8556  -22.1565  -51.2481 H         1 UNK         0.0600 
    240 H240       -0.3871  -20.0284  -52.9174 H         1 UNK         0.3000 
    241 H241        0.4906  -18.2093  -53.7586 H         1 UNK         0.0600 
    242 H242       -0.3688  -19.7109  -57.2037 H         1 UNK         0.3800 
    243 H243       -0.5851  -20.4726  -55.6457 H         1 UNK         0.3800 
    244 H244       -0.7569  -16.1069  -54.1527 H         1 UNK         0.0800 
    245 H245       -2.2813  -16.9411  -53.9951 H         1 UNK         0.0800 
    246 H246       -1.0511  -14.3089  -52.3182 H         1 UNK         0.0800 
    247 H247       -2.7127  -14.8614  -52.2902 H         1 UNK         0.0800 
@<TRIPOS>BOND
     1    1    2 1    
     2    1  127 1    
     3    1  128 1    
     4    1  129 1    
     5    2    3 2    
     6    2    4 am   BACKBONE|DICT|INTERRES
     7    4    5 1    
     8    4  130 1    
     9    5    6 1    
    10    5   65 1    
    11    5  131 1    
    12    6    7 1    
    13    6  132 1    
    14    6  133 1    
    15    7    8 1    
    16    8    9 1    
    17    8  134 1    
    18    8  135 1    
    19    9   10 ar   
    20    9   14 ar   
    21   10   11 ar   
    22   10  136 1    
    23   11   12 ar   
    24   11  126 1    
    25   12   13 ar   
    26   12  137 1    
    27   13   14 ar   
    28   13   15 1    
    29   14  138 1    
    30   15   16 1    
    31   15  139 1    
    32   15  140 1    
    33   16   17 1    
    34   17   18 1    
    35   17  141 1    
    36   17  142 1    
    37   18   19 1    
    38   18   67 1    
    39   18  143 1    
    40   19   20 am   BACKBONE|DICT|INTERRES
    41   19  144 1    
    42   20   21 2    
    43   20   22 1    
    44   22   23 1    
    45   22   24 1    
    46   22  145 1    
    47   23  146 1    
    48   23  147 1    
    49   23  148 1    
    50   24   25 am   BACKBONE|DICT|INTERRES
    51   24  149 1    
    52   25   26 2    
    53   25   27 1    
    54   27   28 1    
    55   27   29 1    
    56   27  150 1    
    57   28  151 1    
    58   28  152 1    
    59   28  153 1    
    60   29   30 am   BACKBONE|DICT|INTERRES
    61   29  154 1    
    62   30   31 2    
    63   30   32 1    
    64   32   33 1    
    65   32   34 1    
    66   32  155 1    
    67   33  156 1    
    68   33  157 1    
    69   33  158 1    
    70   34   35 am   BACKBONE|DICT|INTERRES
    71   34  159 1    
    72   35   36 2    
    73   35   37 1    
    74   37   38 1    
    75   37   39 1    
    76   37  160 1    
    77   38  161 1    
    78   38  162 1    
    79   38  163 1    
    80   39   40 am   BACKBONE|DICT|INTERRES
    81   39  164 1    
    82   40   41 2    
    83   40   42 1    
    84   42   43 1    
    85   42   44 1    
    86   42  165 1    
    87   43  166 1    
    88   43  167 1    
    89   43  168 1    
    90   44   45 am   BACKBONE|DICT|INTERRES
    91   44  169 1    
    92   45   46 2    
    93   45   47 1    
    94   47   48 1    
    95   47   49 1    
    96   47  170 1    
    97   48  171 1    
    98   48  172 1    
    99   48  173 1    
   100   49   50 am   BACKBONE|DICT|INTERRES
   101   49  174 1    
   102   50   51 2    
   103   50   52 1    
   104   52   53 1    
   105   52   54 1    
   106   52  175 1    
   107   53  176 1    
   108   53  177 1    
   109   53  178 1    
   110   54   55 am   BACKBONE|DICT|INTERRES
   111   54  179 1    
   112   55   56 2    
   113   55   57 1    
   114   57   58 1    
   115   57   59 1    
   116   57  180 1    
   117   58  181 1    
   118   58  182 1    
   119   58  183 1    
   120   59   60 am   BACKBONE|DICT|INTERRES
   121   59  184 1    
   122   60   61 2    
   123   60   62 1    
   124   62   63 1    
   125   62   64 1    
   126   62  185 1    
   127   63  186 1    
   128   63  187 1    
   129   63  188 1    
   130   64   65 am   BACKBONE|DICT|INTERRES
   131   64  189 1    
   132   65   66 2    
   133   67   68 2    
   134   67   69 am   BACKBONE|DICT|INTERRES
   135   69   70 1    
   136   69  190 1    
   137   70   71 1    
   138   70   72 1    
   139   70  191 1    
   140   71  192 1    
   141   71  193 1    
   142   71  194 1    
   143   72   73 2    
   144   72   74 am   BACKBONE|DICT|INTERRES
   145   74   75 1    
   146   74  195 1    
   147   75   76 1    
   148   75   77 1    
   149   75  196 1    
   150   76  197 1    
   151   76  198 1    
   152   76  199 1    
   153   77   78 2    
   154   77   79 am   BACKBONE|DICT|INTERRES
   155   79   80 1    
   156   79  200 1    
   157   80   81 1    
   158   80   82 1    
   159   80  201 1    
   160   81  202 1    
   161   81  203 1    
   162   81  204 1    
   163   82   83 2    
   164   82   84 am   BACKBONE|DICT|INTERRES
   165   84   85 1    
   166   84  205 1    
   167   85   86 1    
   168   85   87 1    
   169   85  206 1    
   170   86  207 1    
   171   86  208 1    
   172   86  209 1    
   173   87   88 2    
   174   87   89 am   BACKBONE|DICT|INTERRES
   175   89   90 1    
   176   89  210 1    
   177   90   91 1    
   178   90   92 1    
   179   90  211 1    
   180   91  212 1    
   181   91  213 1    
   182   91  214 1    
   183   92   93 2    
   184   92   94 am   BACKBONE|DICT|INTERRES
   185   94   95 1    
   186   94  215 1    
   187   95   96 1    
   188   95   97 1    
   189   95  216 1    
   190   96  217 1    
   191   96  218 1    
   192   96  219 1    
   193   97   98 2    
   194   97   99 am   BACKBONE|DICT|INTERRES
   195   99  100 1    
   196   99  220 1    
   197  100  101 1    
   198  100  102 1    
   199  100  221 1    
   200  101  222 1    
   201  101  223 1    
   202  101  224 1    
   203  102  103 2    
   204  102  104 am   BACKBONE|DICT|INTERRES
   205  104  105 1    
   206  104  225 1    
   207  105  106 1    
   208  105  107 1    
   209  105  226 1    
   210  106  227 1    
   211  106  228 1    
   212  106  229 1    
   213  107  108 2    
   214  107  109 am   BACKBONE|DICT|INTERRES
   215  109  110 1    
   216  109  230 1    
   217  110  111 1    
   218  110  112 1    
   219  110  231 1    
   220  111  232 1    
   221  111  233 1    
   222  111  234 1    
   223  112  113 2    
   224  112  114 am   BACKBONE|DICT|INTERRES
   225  114  115 1    
   226  114  235 1    
   227  115  116 1    
   228  115  117 1    
   229  115  236 1    
   230  116  237 1    
   231  116  238 1    
   232  116  239 1    
   233  117  118 2    
   234  117  119 am   BACKBONE|DICT|INTERRES
   235  119  120 1    
   236  119  240 1    
   237  120  121 1    
   238  120  124 1    
   239  120  241 1    
   240  121  122 am   BACKBONE|DICT|INTERRES
   241  121  123 2    
   242  122  242 1    
   243  122  243 1    
   244  124  125 1    
   245  124  244 1    
   246  124  245 1    
   247  125  126 1    
   248  126  246 1    
   249  126  247 1    
@<TRIPOS>SUBSTRUCTURE
     1 UNK         1 GROUP             0       ****    0 ROOT    
