@<TRIPOS>MOLECULE
3R540
247   249    1
SMALL
USER_CHARGES


@<TRIPOS>ATOM
      1 CA          2.1724  -11.6434  -43.8999 C.3       0 UNK        -0.1800 
      2 C           1.5173  -10.6843  -44.8850 C.2       0 UNK         0.5000 
      3 O           1.9772   -9.5532  -45.0356 O.2       0 UNK        -0.5000 
      4 N           0.4614  -11.1442  -45.5719 N.am      1 UNK        -0.5000 
      5 CA         -0.2645  -10.4249  -46.6323 C.3       1 UNK         0.1400 
      6 C6         -1.5145  -11.2177  -47.1009 C.3       23 UNK        -0.0398 
      7 S7         -1.1425  -12.9119  -47.6915 S.3       23 UNK        -0.2404 
      8 C8         -2.7413  -13.7401  -47.4530 C.3       23 UNK        -0.0205 
      9 C9         -2.7190  -15.1397  -48.0472 C.ar      23 UNK        -0.0193 
     10 C10        -3.3690  -15.4020  -49.2560 C.ar      23 UNK        -0.1150 
     11 C11        -3.3522  -16.6862  -49.8068 C.ar      23 UNK        -0.0193 
     12 C12        -2.6816  -17.7147  -49.1380 C.ar      23 UNK        -0.1150 
     13 C13        -2.0242  -17.4649  -47.9310 C.ar      23 UNK        -0.0193 
     14 C14        -2.0478  -16.1754  -47.3909 C.ar      23 UNK        -0.1150 
     15 C15        -1.2680  -18.5774  -47.2205 C.3       23 UNK        -0.0205 
     16 S16        -2.0205  -19.0036  -45.6232 S.3       23 UNK        -0.2404 
     17 C17        -3.4022  -20.0883  -46.1289 C.3       23 UNK        -0.0398 
     18 CA         -3.0863  -21.5836  -45.8825 C.3       11 UNK         0.1400 
     19 N          -2.6600  -21.8302  -44.4981 N.am      11 UNK        -0.5000 
     20 C          -2.2052  -22.9791  -43.9828 C.2       10 UNK         0.5000 
     21 O          -2.2568  -24.0557  -44.5797 O.2       10 UNK        -0.5000 
     22 CA         -1.5594  -22.8930  -42.5851 C.3       10 UNK         0.1400 
     23 CB         -0.9131  -24.2219  -42.1554 C.3       10 UNK        -0.1800 
     24 N          -0.5418  -21.8414  -42.5396 N.am      10 UNK        -0.5000 
     25 C          -0.7614  -20.5338  -42.3692 C.2       9 UNK         0.5000 
     26 O          -1.8858  -20.0645  -42.1913 O.2       9 UNK        -0.5000 
     27 CA          0.4516  -19.5840  -42.4447 C.3       9 UNK         0.1400 
     28 CB          1.2228  -19.5635  -41.1127 C.3       9 UNK        -0.1800 
     29 N           1.3643  -19.7947  -43.5785 N.am      9 UNK        -0.5000 
     30 C           2.1262  -20.8606  -43.8696 C.2       8 UNK         0.5000 
     31 O           2.1416  -21.9063  -43.2194 O.2       8 UNK        -0.5000 
     32 CA          3.0543  -20.7139  -45.0823 C.3       8 UNK         0.1400 
     33 CB          2.2573  -20.6992  -46.3980 C.3       8 UNK        -0.1800 
     34 N           3.8363  -19.4852  -44.9574 N.am      8 UNK        -0.5000 
     35 C           5.0716  -19.4277  -44.4432 C.2       7 UNK         0.5000 
     36 O           5.7120  -20.4159  -44.0816 O.2       7 UNK        -0.5000 
     37 CA          5.7050  -18.0322  -44.3094 C.3       7 UNK         0.1400 
     38 CB          6.2053  -17.5276  -45.6723 C.3       7 UNK        -0.1800 
     39 N           4.8038  -17.0378  -43.7291 N.am      7 UNK        -0.5000 
     40 C           4.4061  -17.0107  -42.4491 C.2       6 UNK         0.5000 
     41 O           4.7112  -17.8674  -41.6194 O.2       6 UNK        -0.5000 
     42 CA          3.5312  -15.8202  -42.0190 C.3       6 UNK         0.1400 
     43 CB          4.3952  -14.5726  -41.7739 C.3       6 UNK        -0.1800 
     44 N           2.5310  -15.5157  -43.0399 N.am      6 UNK        -0.5000 
     45 C           1.2209  -15.7676  -42.9246 C.2       5 UNK         0.5000 
     46 O           0.6947  -16.1711  -41.8878 O.2       5 UNK        -0.5000 
     47 CA          0.3343  -15.5429  -44.1692 C.3       5 UNK         0.1400 
     48 CB         -0.5945  -14.3369  -43.9627 C.3       5 UNK        -0.1800 
     49 N           1.0788  -15.3834  -45.4248 N.am      5 UNK        -0.5000 
     50 C           1.7690  -16.3677  -46.0158 C.2       4 UNK         0.5000 
     51 O           1.8718  -17.4997  -45.5420 O.2       4 UNK        -0.5000 
     52 CA          2.5144  -16.0214  -47.3190 C.3       4 UNK         0.1400 
     53 CB          1.5563  -16.0768  -48.5187 C.3       4 UNK        -0.1800 
     54 N           3.2082  -14.7279  -47.3244 N.am      4 UNK        -0.5000 
     55 C           4.0505  -14.2535  -46.3963 C.2       3 UNK         0.5000 
     56 O           4.2471  -14.8061  -45.3152 O.2       3 UNK        -0.5000 
     57 CA          4.7849  -12.9299  -46.6957 C.3       3 UNK         0.1400 
     58 CB          6.1616  -13.1977  -47.3311 C.3       3 UNK        -0.1800 
     59 N           4.0049  -11.9549  -47.4723 N.am      3 UNK        -0.5000 
     60 C           3.5937  -12.0140  -48.7487 C.2       2 UNK         0.5000 
     61 O           3.8690  -12.9340  -49.5192 O.2       2 UNK        -0.5000 
     62 CA          2.5896  -10.9263  -49.1591 C.3       2 UNK         0.1400 
     63 CB          2.0380  -11.0982  -50.5874 C.3       2 UNK        -0.1800 
     64 N           1.5105  -11.0058  -48.1859 N.am      2 UNK        -0.5000 
     65 C           0.6490  -10.0531  -47.8245 C.2       1 UNK         0.5000 
     66 O           0.5826   -8.9388  -48.3449 O.2       1 UNK        -0.5000 
     67 C          -4.2507  -22.4810  -46.3523 C.2       11 UNK         0.5000 
     68 O          -4.3478  -22.7686  -47.5465 O.2       11 UNK        -0.5000 
     69 N          -5.0718  -22.9626  -45.4085 N.am      12 UNK        -0.5000 
     70 CA         -6.1291  -23.9522  -45.6291 C.3       12 UNK         0.1400 
     71 CB         -6.8923  -24.1710  -44.3148 C.3       12 UNK        -0.1800 
     72 C          -5.6147  -25.2973  -46.1834 C.2       12 UNK         0.5000 
     73 O          -6.3431  -25.9609  -46.9208 O.2       12 UNK        -0.5000 
     74 N          -4.3707  -25.6562  -45.8418 N.am      13 UNK        -0.5000 
     75 CA         -3.6768  -26.8406  -46.3380 C.3       13 UNK         0.1400 
     76 CB         -3.1055  -27.6269  -45.1468 C.3       13 UNK        -0.1800 
     77 C          -2.5573  -26.4410  -47.3106 C.2       13 UNK         0.5000 
     78 O          -2.4871  -26.9864  -48.4113 O.2       13 UNK        -0.5000 
     79 N          -1.7121  -25.4860  -46.8978 N.am      14 UNK        -0.5000 
     80 CA         -0.4840  -25.0870  -47.5892 C.3       14 UNK         0.1400 
     81 CB          0.3450  -24.1890  -46.6588 C.3       14 UNK        -0.1800 
     82 C          -0.7163  -24.3928  -48.9429 C.2       14 UNK         0.5000 
     83 O           0.1100  -24.5432  -49.8432 O.2       14 UNK        -0.5000 
     84 N          -1.8342  -23.6669  -49.0665 N.am      15 UNK        -0.5000 
     85 CA         -2.2822  -23.0240  -50.3033 C.3       15 UNK         0.1400 
     86 CB         -2.3823  -21.5072  -50.0757 C.3       15 UNK        -0.1800 
     87 C          -3.6238  -23.6058  -50.7856 C.2       15 UNK         0.5000 
     88 O          -4.2413  -23.0308  -51.6849 O.2       15 UNK        -0.5000 
     89 N          -4.0659  -24.7126  -50.1670 N.am      16 UNK        -0.5000 
     90 CA         -5.3227  -25.4263  -50.4109 C.3       16 UNK         0.1400 
     91 CB         -5.2521  -26.1610  -51.7655 C.3       16 UNK        -0.1800 
     92 C          -6.5712  -24.5267  -50.2732 C.2       16 UNK         0.5000 
     93 O          -7.5068  -24.6489  -51.0634 O.2       16 UNK        -0.5000 
     94 N          -6.5417  -23.6041  -49.2981 N.am      17 UNK        -0.5000 
     95 CA         -7.5500  -22.5673  -49.0429 C.3       17 UNK         0.1400 
     96 CB         -8.8980  -23.1872  -48.6172 C.3       17 UNK        -0.1800 
     97 C          -7.6721  -21.5800  -50.2224 C.2       17 UNK         0.5000 
     98 O          -8.7771  -21.2030  -50.6138 O.2       17 UNK        -0.5000 
     99 N          -6.5059  -21.2057  -50.7670 N.am      18 UNK        -0.5000 
    100 CA        -6.2646  -20.3223  -51.9114 C.3       18 UNK         0.1400 
    101 CB        -6.9637  -18.9569  -51.7499 C.3       18 UNK        -0.1800 
    102 C         -6.5424  -20.9616  -53.2856 C.2       18 UNK         0.5000 
    103 O         -6.3528  -20.2877  -54.2995 O.2       18 UNK        -0.5000 
    104 N         -6.9160  -22.2499  -53.3291 N.am      19 UNK        -0.5000 
    105 CA        -7.1141  -23.0047  -54.5713 C.3       19 UNK         0.1400 
    106 CB        -7.8264  -24.3308  -54.2719 C.3       19 UNK        -0.1800 
    107 C         -5.8054  -23.2491  -55.3500 C.2       19 UNK         0.5000 
    108 O         -5.8561  -23.4313  -56.5665 O.2       19 UNK        -0.5000 
    109 N         -4.6581  -23.1991  -54.6562 N.am      20 UNK        -0.5000 
    110 CA        -3.3179  -23.2474  -55.2463 C.3       20 UNK         0.1400 
    111 CB        -2.3618  -23.9372  -54.2586 C.3       20 UNK        -0.1800 
    112 C         -2.7946  -21.8494  -55.6495 C.2       20 UNK         0.5000 
    113 O         -1.5857  -21.6898  -55.8266 O.2       20 UNK        -0.5000 
    114 N         -3.6887  -20.8511  -55.7521 N.am      21 UNK        -0.5000 
    115 CA        -3.4268  -19.4546  -56.1291 C.3       21 UNK         0.1400 
    116 CB        -3.0083  -19.3624  -57.6112 C.3       21 UNK        -0.1800 
    117 C         -2.4367  -18.7518  -55.1760 C.2       21 UNK         0.5000 
    118 O         -1.5831  -17.9804  -55.6171 O.2       21 UNK        -0.5000 
    119 N         -2.5664  -19.0694  -53.8819 N.am      22 UNK        -0.5000 
    120 CA        -1.6929  -18.6396  -52.7763 C.3       22 UNK         0.1400 
    121 C         -0.2808  -19.3023  -52.7672 C.2       22 UNK         0.5000 
    122 N          0.0063  -20.2904  -53.6080 N.am      22 UNK        -0.7600 
    123 O          0.5646  -18.9399  -51.9546 O.2       22 UNK        -0.5000 
    124 C124       -1.6225  -17.0973  -52.5737 C.3       23 UNK        -0.0398 
    125 S125       -3.2402  -16.2432  -52.5600 S.3       23 UNK        -0.2404 
    126 C126       -4.0785  -16.9651  -51.1128 C.3       23 UNK        -0.0205 
    127 H127        2.1712  -12.6642  -44.2806 H         1 UNK         0.0600 
    128 H128        3.2097  -11.3595  -43.7215 H         1 UNK         0.0600 
    129 H129        1.6464  -11.6253  -42.9455 H         1 UNK         0.0600 
    130 H130        0.1099  -12.0686  -45.3763 H         1 UNK         0.3000 
    131 H131       -0.6127   -9.4851  -46.1986 H         1 UNK         0.0600 
    132 H132       -2.2215  -11.2872  -46.2729 H         1 UNK         0.0800 
    133 H133       -2.0392  -10.6778  -47.8913 H         1 UNK         0.0800 
    134 H134       -3.5281  -13.1426  -47.9160 H         1 UNK         0.0800 
    135 H135       -2.9792  -13.7938  -46.3901 H         1 UNK         0.0800 
    136 H136       -3.8873  -14.6069  -49.7735 H         1 UNK         0.1150 
    137 H137       -2.6690  -18.7093  -49.5570 H         1 UNK         0.1150 
    138 H138       -1.5397  -15.9784  -46.4588 H         1 UNK         0.1150 
    139 H139       -1.1930  -19.4704  -47.8425 H         1 UNK         0.0800 
    140 H140       -0.2463  -18.2493  -47.0409 H         1 UNK         0.0800 
    141 H141       -4.2853  -19.7876  -45.5624 H         1 UNK         0.0800 
    142 H142       -3.6398  -19.9076  -47.1786 H         1 UNK         0.0800 
    143 H143       -2.2344  -21.8430  -46.5140 H         1 UNK         0.0600 
    144 H144       -2.5713  -21.0025  -43.9180 H         1 UNK         0.3000 
    145 H145       -2.3527  -22.6581  -41.8729 H         1 UNK         0.0600 
    146 H146       -0.4880  -24.1473  -41.1544 H         1 UNK         0.0600 
    147 H147       -1.6474  -25.0284  -42.1361 H         1 UNK         0.0600 
    148 H148       -0.1148  -24.5187  -42.8370 H         1 UNK         0.0600 
    149 H149        0.4185  -22.1239  -42.7261 H         1 UNK         0.3000 
    150 H150        0.0346  -18.5892  -42.5977 H         1 UNK         0.0600 
    151 H151        0.5587  -19.3216  -40.2821 H         1 UNK         0.0600 
    152 H152        2.0093  -18.8091  -41.1276 H         1 UNK         0.0600 
    153 H153        1.6851  -20.5262  -40.8930 H         1 UNK         0.0600 
    154 H154        1.4275  -19.0089  -44.2175 H         1 UNK         0.3000 
    155 H155        3.7173  -21.5814  -45.1095 H         1 UNK         0.0600 
    156 H156        1.7167  -21.6347  -46.5311 H         1 UNK         0.0600 
    157 H157        2.9182  -20.5811  -47.2566 H         1 UNK         0.0600 
    158 H158        1.5217  -19.8968  -46.4309 H         1 UNK         0.0600 
    159 H159        3.3514  -18.6226  -45.1855 H         1 UNK         0.3000 
    160 H160        6.5700  -18.1237  -43.6490 H         1 UNK         0.0600 
    161 H161        5.3854  -17.3876  -46.3768 H         1 UNK         0.0600 
    162 H162        6.7252  -16.5745  -45.5728 H         1 UNK         0.0600 
    163 H163        6.9052  -18.2352  -46.1184 H         1 UNK         0.0600 
    164 H164        4.5482  -16.2609  -44.3340 H         1 UNK         0.3000 
    165 H165        3.0520  -16.0869  -41.0747 H         1 UNK         0.0600 
    166 H166        3.7872  -13.7375  -41.4257 H         1 UNK         0.0600 
    167 H167        5.1516  -14.7653  -41.0121 H         1 UNK         0.0600 
    168 H168        4.9134  -14.2525  -42.6786 H         1 UNK         0.0600 
    169 H169        2.8910  -15.1989  -43.9331 H         1 UNK         0.3000 
    170 H170       -0.2939  -16.4307  -44.2725 H         1 UNK         0.0600 
    171 H171       -1.2568  -14.5023  -43.1120 H         1 UNK         0.0600 
    172 H172       -0.0382  -13.4238  -43.7617 H         1 UNK         0.0600 
    173 H173       -1.2277  -14.1670  -44.8314 H         1 UNK         0.0600 
    174 H174        1.0482  -14.4825  -45.8750 H         1 UNK         0.3000 
    175 H175        3.2768  -16.7883  -47.4649 H         1 UNK         0.0600 
    176 H176        0.7617  -15.3341  -48.4372 H         1 UNK         0.0600 
    177 H177        2.0850  -15.8969  -49.4550 H         1 UNK         0.0600 
    178 H178        1.0847  -17.0561  -48.6028 H         1 UNK         0.0600 
    179 H179        3.1783  -14.2140  -48.1991 H         1 UNK         0.3000 
    180 H180        4.9617  -12.4564  -45.7286 H         1 UNK         0.0600 
    181 H181        6.7723  -13.8255  -46.6808 H         1 UNK         0.0600 
    182 H182        6.0787  -13.7109  -48.2894 H         1 UNK         0.0600 
    183 H183        6.7085  -12.2690  -47.4930 H         1 UNK         0.0600 
    184 H184        3.6927  -11.1547  -46.9391 H         1 UNK         0.3000 
    185 H185        3.0879   -9.9582  -49.0782 H         1 UNK         0.0600 
    186 H186        2.8429  -11.0698  -51.3226 H         1 UNK         0.0600 
    187 H187        1.5154  -12.0485  -50.7041 H         1 UNK         0.0600 
    188 H188        1.3393  -10.3005  -50.8397 H         1 UNK         0.0600 
    189 H189        1.4514  -11.8851  -47.6930 H         1 UNK         0.3000 
    190 H190       -4.9092  -22.6825  -44.4524 H         1 UNK         0.3000 
    191 H191       -6.8247  -23.5386  -46.3589 H         1 UNK         0.0600 
    192 H192       -7.7062  -24.8846  -44.4500 H         1 UNK         0.0600 
    193 H193       -7.3339  -23.2414  -43.9551 H         1 UNK         0.0600 
    194 H194       -6.2407  -24.5601  -43.5313 H         1 UNK         0.0600 
    195 H195       -3.8256  -25.0310  -45.2569 H         1 UNK         0.3000 
    196 H196       -4.3647  -27.4975  -46.8744 H         1 UNK         0.0600 
    197 H197       -2.5598  -28.5086  -45.4854 H         1 UNK         0.0600 
    198 H198       -3.9026  -27.9712  -44.4878 H         1 UNK         0.0600 
    199 H199       -2.4196  -27.0228  -44.5512 H         1 UNK         0.0600 
    200 H200       -1.8640  -25.0592  -45.9857 H         1 UNK         0.3000 
    201 H201        0.0921  -25.9941  -47.7833 H         1 UNK         0.0600 
    202 H202        0.5560  -24.6865  -45.7119 H         1 UNK         0.0600 
    203 H203       -0.1701  -23.2541  -46.4369 H         1 UNK         0.0600 
    204 H204        1.3038  -23.9400  -47.1147 H         1 UNK         0.0600 
    205 H205       -2.4709  -23.6022  -48.2824 H         1 UNK         0.3000 
    206 H206       -1.5663  -23.1954  -51.1085 H         1 UNK         0.0600 
    207 H207       -1.4098  -21.0837  -49.8246 H         1 UNK         0.0600 
    208 H208       -2.7330  -21.0060  -50.9763 H         1 UNK         0.0600 
    209 H209       -3.0765  -21.2589  -49.2741 H         1 UNK         0.0600 
    210 H210       -3.4613  -25.1304  -49.4734 H         1 UNK         0.3000 
    211 H211       -5.4075  -26.1814  -49.6282 H         1 UNK         0.0600 
    212 H212       -5.1503  -25.4650  -52.5981 H         1 UNK         0.0600 
    213 H213       -6.1480  -26.7578  -51.9398 H         1 UNK         0.0600 
    214 H214       -4.4009  -26.8411  -51.7968 H         1 UNK         0.0600 
    215 H215       -5.7042  -23.5418  -48.7265 H         1 UNK         0.3000 
    216 H216       -7.1783  -21.9819  -48.2009 H         1 UNK         0.0600 
    217 H217       -8.7689  -23.8966  -47.8000 H         1 UNK         0.0600 
    218 H218       -9.3833  -23.7125  -49.4402 H         1 UNK         0.0600 
    219 H219       -9.5881  -22.4163  -48.2729 H         1 UNK         0.0600 
    220 H220       -5.6743  -21.6555  -50.4090 H         1 UNK         0.3000 
    221 H221       -5.1903  -20.1375  -51.8973 H         1 UNK         0.0600 
    222 H222       -8.0436  -19.0344  -51.8765 H         1 UNK         0.0600 
    223 H223       -6.7703  -18.5256  -50.7678 H         1 UNK         0.0600 
    224 H224       -6.6046  -18.2458  -52.4948 H         1 UNK         0.0600 
    225 H225       -7.0300  -22.7583  -52.4620 H         1 UNK         0.3000 
    226 H226       -7.7693  -22.4141  -55.2152 H         1 UNK         0.0600 
    227 H227       -8.7513  -24.1685  -53.7181 H         1 UNK         0.0600 
    228 H228       -8.0864  -24.8490  -55.1957 H         1 UNK         0.0600 
    229 H229       -7.1992  -25.0035  -53.6890 H         1 UNK         0.0600 
    230 H230       -4.6984  -23.0566  -53.6511 H         1 UNK         0.3000 
    231 H231       -3.3476  -23.8532  -56.1541 H         1 UNK         0.0600 
    232 H232       -2.1415  -23.2955  -53.4067 H         1 UNK         0.0600 
    233 H233       -2.7789  -24.8716  -53.8824 H         1 UNK         0.0600 
    234 H234       -1.4116  -24.1755  -54.7378 H         1 UNK         0.0600 
    235 H235       -4.6556  -21.0586  -55.5354 H         1 UNK         0.3000 
    236 H236       -4.3752  -18.9262  -56.0216 H         1 UNK         0.0600 
    237 H237       -3.7369  -19.8523  -58.2571 H         1 UNK         0.0600 
    238 H238       -2.9376  -18.3230  -57.9338 H         1 UNK         0.0600 
    239 H239       -2.0375  -19.8264  -57.7881 H         1 UNK         0.0600 
    240 H240       -3.2883  -19.7303  -53.6400 H         1 UNK         0.3000 
    241 H241       -2.1668  -19.0397  -51.8841 H         1 UNK         0.0600 
    242 H242        0.9223  -20.7079  -53.5729 H         1 UNK         0.3800 
    243 H243       -0.6534  -20.6027  -54.3103 H         1 UNK         0.3800 
    244 H244       -1.0183  -16.6444  -53.3608 H         1 UNK         0.0800 
    245 H245       -1.1117  -16.8608  -51.6387 H         1 UNK         0.0800 
    246 H246       -4.2047  -18.0362  -51.2633 H         1 UNK         0.0800 
    247 H247       -5.0849  -16.5487  -51.0528 H         1 UNK         0.0800 
@<TRIPOS>BOND
     1    1    2 1    
     2    1  127 1    
     3    1  128 1    
     4    1  129 1    
     5    2    3 2    
     6    2    4 am   BACKBONE|DICT|INTERRES
     7    4    5 1    
     8    4  130 1    
     9    5    6 1    
    10    5   65 1    
    11    5  131 1    
    12    6    7 1    
    13    6  132 1    
    14    6  133 1    
    15    7    8 1    
    16    8    9 1    
    17    8  134 1    
    18    8  135 1    
    19    9   10 ar   
    20    9   14 ar   
    21   10   11 ar   
    22   10  136 1    
    23   11   12 ar   
    24   11  126 1    
    25   12   13 ar   
    26   12  137 1    
    27   13   14 ar   
    28   13   15 1    
    29   14  138 1    
    30   15   16 1    
    31   15  139 1    
    32   15  140 1    
    33   16   17 1    
    34   17   18 1    
    35   17  141 1    
    36   17  142 1    
    37   18   19 1    
    38   18   67 1    
    39   18  143 1    
    40   19   20 am   BACKBONE|DICT|INTERRES
    41   19  144 1    
    42   20   21 2    
    43   20   22 1    
    44   22   23 1    
    45   22   24 1    
    46   22  145 1    
    47   23  146 1    
    48   23  147 1    
    49   23  148 1    
    50   24   25 am   BACKBONE|DICT|INTERRES
    51   24  149 1    
    52   25   26 2    
    53   25   27 1    
    54   27   28 1    
    55   27   29 1    
    56   27  150 1    
    57   28  151 1    
    58   28  152 1    
    59   28  153 1    
    60   29   30 am   BACKBONE|DICT|INTERRES
    61   29  154 1    
    62   30   31 2    
    63   30   32 1    
    64   32   33 1    
    65   32   34 1    
    66   32  155 1    
    67   33  156 1    
    68   33  157 1    
    69   33  158 1    
    70   34   35 am   BACKBONE|DICT|INTERRES
    71   34  159 1    
    72   35   36 2    
    73   35   37 1    
    74   37   38 1    
    75   37   39 1    
    76   37  160 1    
    77   38  161 1    
    78   38  162 1    
    79   38  163 1    
    80   39   40 am   BACKBONE|DICT|INTERRES
    81   39  164 1    
    82   40   41 2    
    83   40   42 1    
    84   42   43 1    
    85   42   44 1    
    86   42  165 1    
    87   43  166 1    
    88   43  167 1    
    89   43  168 1    
    90   44   45 am   BACKBONE|DICT|INTERRES
    91   44  169 1    
    92   45   46 2    
    93   45   47 1    
    94   47   48 1    
    95   47   49 1    
    96   47  170 1    
    97   48  171 1    
    98   48  172 1    
    99   48  173 1    
   100   49   50 am   BACKBONE|DICT|INTERRES
   101   49  174 1    
   102   50   51 2    
   103   50   52 1    
   104   52   53 1    
   105   52   54 1    
   106   52  175 1    
   107   53  176 1    
   108   53  177 1    
   109   53  178 1    
   110   54   55 am   BACKBONE|DICT|INTERRES
   111   54  179 1    
   112   55   56 2    
   113   55   57 1    
   114   57   58 1    
   115   57   59 1    
   116   57  180 1    
   117   58  181 1    
   118   58  182 1    
   119   58  183 1    
   120   59   60 am   BACKBONE|DICT|INTERRES
   121   59  184 1    
   122   60   61 2    
   123   60   62 1    
   124   62   63 1    
   125   62   64 1    
   126   62  185 1    
   127   63  186 1    
   128   63  187 1    
   129   63  188 1    
   130   64   65 am   BACKBONE|DICT|INTERRES
   131   64  189 1    
   132   65   66 2    
   133   67   68 2    
   134   67   69 am   BACKBONE|DICT|INTERRES
   135   69   70 1    
   136   69  190 1    
   137   70   71 1    
   138   70   72 1    
   139   70  191 1    
   140   71  192 1    
   141   71  193 1    
   142   71  194 1    
   143   72   73 2    
   144   72   74 am   BACKBONE|DICT|INTERRES
   145   74   75 1    
   146   74  195 1    
   147   75   76 1    
   148   75   77 1    
   149   75  196 1    
   150   76  197 1    
   151   76  198 1    
   152   76  199 1    
   153   77   78 2    
   154   77   79 am   BACKBONE|DICT|INTERRES
   155   79   80 1    
   156   79  200 1    
   157   80   81 1    
   158   80   82 1    
   159   80  201 1    
   160   81  202 1    
   161   81  203 1    
   162   81  204 1    
   163   82   83 2    
   164   82   84 am   BACKBONE|DICT|INTERRES
   165   84   85 1    
   166   84  205 1    
   167   85   86 1    
   168   85   87 1    
   169   85  206 1    
   170   86  207 1    
   171   86  208 1    
   172   86  209 1    
   173   87   88 2    
   174   87   89 am   BACKBONE|DICT|INTERRES
   175   89   90 1    
   176   89  210 1    
   177   90   91 1    
   178   90   92 1    
   179   90  211 1    
   180   91  212 1    
   181   91  213 1    
   182   91  214 1    
   183   92   93 2    
   184   92   94 am   BACKBONE|DICT|INTERRES
   185   94   95 1    
   186   94  215 1    
   187   95   96 1    
   188   95   97 1    
   189   95  216 1    
   190   96  217 1    
   191   96  218 1    
   192   96  219 1    
   193   97   98 2    
   194   97   99 am   BACKBONE|DICT|INTERRES
   195   99  100 1    
   196   99  220 1    
   197  100  101 1    
   198  100  102 1    
   199  100  221 1    
   200  101  222 1    
   201  101  223 1    
   202  101  224 1    
   203  102  103 2    
   204  102  104 am   BACKBONE|DICT|INTERRES
   205  104  105 1    
   206  104  225 1    
   207  105  106 1    
   208  105  107 1    
   209  105  226 1    
   210  106  227 1    
   211  106  228 1    
   212  106  229 1    
   213  107  108 2    
   214  107  109 am   BACKBONE|DICT|INTERRES
   215  109  110 1    
   216  109  230 1    
   217  110  111 1    
   218  110  112 1    
   219  110  231 1    
   220  111  232 1    
   221  111  233 1    
   222  111  234 1    
   223  112  113 2    
   224  112  114 am   BACKBONE|DICT|INTERRES
   225  114  115 1    
   226  114  235 1    
   227  115  116 1    
   228  115  117 1    
   229  115  236 1    
   230  116  237 1    
   231  116  238 1    
   232  116  239 1    
   233  117  118 2    
   234  117  119 am   BACKBONE|DICT|INTERRES
   235  119  120 1    
   236  119  240 1    
   237  120  121 1    
   238  120  124 1    
   239  120  241 1    
   240  121  122 am   BACKBONE|DICT|INTERRES
   241  121  123 2    
   242  122  242 1    
   243  122  243 1    
   244  124  125 1    
   245  124  244 1    
   246  124  245 1    
   247  125  126 1    
   248  126  246 1    
   249  126  247 1    
@<TRIPOS>SUBSTRUCTURE
     1 UNK         1 GROUP             0       ****    0 ROOT    
