@<TRIPOS>MOLECULE
3R540
247   249    1
SMALL
USER_CHARGES


@<TRIPOS>ATOM
      1 CA         -0.0507  -11.6534  -52.3629 C.3       0 UNK        -0.1800 
      2 C           0.9227  -11.6706  -51.1924 C.2       0 UNK         0.5000 
      3 O           1.8254  -10.8359  -51.1313 O.2       0 UNK        -0.5000 
      4 N           0.7406  -12.6207  -50.2669 N.am      1 UNK        -0.5000 
      5 CA          1.5701  -12.8038  -49.0680 C.3       1 UNK         0.1400 
      6 C6          1.4036  -14.2275  -48.4788 C.3       23 UNK        -0.0398 
      7 S7          2.4345  -15.4436  -49.3667 S.3       23 UNK        -0.2404 
      8 C8          1.3518  -15.9956  -50.7228 C.3       23 UNK        -0.0205 
      9 C9          0.3665  -17.0639  -50.2804 C.ar      23 UNK        -0.0193 
     10 C10        -0.9678  -16.7422  -50.0174 C.ar      23 UNK        -0.1150 
     11 C11        -1.8853  -17.7420  -49.6791 C.ar      23 UNK        -0.0193 
     12 C12        -1.4453  -19.0634  -49.5587 C.ar      23 UNK        -0.1150 
     13 C13        -0.1093  -19.3932  -49.7995 C.ar      23 UNK        -0.0193 
     14 C14         0.7881  -18.3905  -50.1727 C.ar      23 UNK        -0.1150 
     15 C15         0.3732  -20.8254  -49.6486 C.3       23 UNK        -0.0205 
     16 S16         1.4509  -20.9777  -48.1957 S.3       23 UNK        -0.2404 
     17 C17         1.7238  -22.7723  -48.1026 C.3       23 UNK        -0.0398 
     18 CA          0.8561  -23.5097  -47.0540 C.3       11 UNK         0.1400 
     19 N           0.8994  -22.9296  -45.7062 N.am      11 UNK        -0.5000 
     20 C           0.5835  -23.6297  -44.6062 C.2       10 UNK         0.5000 
     21 O           0.2535  -24.8165  -44.6308 O.2       10 UNK        -0.5000 
     22 CA          0.5925  -22.8832  -43.2609 C.3       10 UNK         0.1400 
     23 CB          2.0256  -22.6384  -42.7649 C.3       10 UNK        -0.1800 
     24 N          -0.1477  -21.6233  -43.3092 N.am      10 UNK        -0.5000 
     25 C          -1.4695  -21.5357  -43.5169 C.2       9 UNK         0.5000 
     26 O          -2.1994  -22.5107  -43.6896 O.2       9 UNK        -0.5000 
     27 CA         -2.0824  -20.1254  -43.5646 C.3       9 UNK         0.1400 
     28 CB         -2.3942  -19.6252  -42.1465 C.3       9 UNK        -0.1800 
     29 N          -1.2353  -19.1541  -44.2543 N.am      9 UNK        -0.5000 
     30 C          -0.8811  -19.2361  -45.5447 C.2       8 UNK         0.5000 
     31 O          -1.2594  -20.1309  -46.2982 O.2       8 UNK        -0.5000 
     32 CA          0.0979  -18.1665  -46.0599 C.3       8 UNK         0.1400 
     33 CB         -0.6296  -16.8368  -46.3008 C.3       8 UNK        -0.1800 
     34 N           1.2250  -17.9479  -45.1522 N.am      8 UNK        -0.5000 
     35 C           2.0930  -18.8911  -44.7541 C.2       7 UNK         0.5000 
     36 O           2.0642  -20.0650  -45.1217 O.2       7 UNK        -0.5000 
     37 CA          3.1355  -18.4588  -43.7117 C.3       7 UNK         0.1400 
     38 CB          4.2724  -17.6577  -44.3640 C.3       7 UNK        -0.1800 
     39 N           2.5223  -17.6743  -42.6411 N.am      7 UNK        -0.5000 
     40 C           1.6828  -18.1786  -41.7251 C.2       6 UNK         0.5000 
     41 O           1.3803  -19.3700  -41.6532 O.2       6 UNK        -0.5000 
     42 CA          1.0456  -17.1714  -40.7507 C.3       6 UNK         0.1400 
     43 CB          1.9915  -16.8765  -39.5771 C.3       6 UNK        -0.1800 
     44 N           0.6763  -15.9152  -41.4060 N.am      6 UNK        -0.5000 
     45 C          -0.2884  -15.8032  -42.3298 C.2       5 UNK         0.5000 
     46 O          -0.9855  -16.7440  -42.7049 O.2       5 UNK        -0.5000 
     47 CA         -0.4857  -14.4182  -42.9682 C.3       5 UNK         0.1400 
     48 CB         -1.4604  -13.5713  -42.1375 C.3       5 UNK        -0.1800 
     49 N           0.7620  -13.6776  -43.1456 N.am      5 UNK        -0.5000 
     50 C           1.7799  -14.0347  -43.9387 C.2       4 UNK         0.5000 
     51 O           1.8064  -15.0940  -44.5683 O.2       4 UNK        -0.5000 
     52 CA          2.9486  -13.0293  -44.0403 C.3       4 UNK         0.1400 
     53 CB          3.9788  -13.4159  -45.1162 C.3       4 UNK        -0.1800 
     54 N           2.4721  -11.6661  -44.2971 N.am      4 UNK        -0.5000 
     55 C           1.9911  -10.8289  -43.3657 C.2       3 UNK         0.5000 
     56 O           1.9293  -11.1188  -42.1702 O.2       3 UNK        -0.5000 
     57 CA          1.4480   -9.4642  -43.8319 C.3       3 UNK         0.1400 
     58 CB          2.5141   -8.3732  -43.6511 C.3       3 UNK        -0.1800 
     59 N           0.9854   -9.4499  -45.2195 N.am      3 UNK        -0.5000 
     60 C          -0.0618  -10.1324  -45.7036 C.2       2 UNK         0.5000 
     61 O          -0.7827  -10.8599  -45.0196 O.2       2 UNK        -0.5000 
     62 CA         -0.3492   -9.9862  -47.2134 C.3       2 UNK         0.1400 
     63 CB          0.2245   -8.6905  -47.8292 C.3       2 UNK        -0.1800 
     64 N           0.0945  -11.1427  -47.9992 N.am      2 UNK        -0.5000 
     65 C           1.3124  -11.7098  -48.0086 C.2       1 UNK         0.5000 
     66 O           2.2303  -11.3832  -47.2545 O.2       1 UNK        -0.5000 
     67 C          -0.5848  -23.7658  -47.5397 C.2       11 UNK         0.5000 
     68 O          -0.8077  -24.7758  -48.2053 O.2       11 UNK        -0.5000 
     69 N          -1.5473  -22.9081  -47.1657 N.am      12 UNK        -0.5000 
     70 CA         -2.9714  -23.1151  -47.4459 C.3       12 UNK         0.1400 
     71 CB         -3.7759  -21.8579  -47.0880 C.3       12 UNK        -0.1800 
     72 C          -3.5558  -24.3499  -46.7362 C.2       12 UNK         0.5000 
     73 O          -4.4107  -25.0185  -47.3126 O.2       12 UNK        -0.5000 
     74 N          -3.0822  -24.6427  -45.5172 N.am      13 UNK        -0.5000 
     75 CA         -3.4448  -25.8429  -44.7632 C.3       13 UNK         0.1400 
     76 CB         -3.0626  -25.6573  -43.2868 C.3       13 UNK        -0.1800 
     77 C          -2.8017  -27.1213  -45.3332 C.2       13 UNK         0.5000 
     78 O          -3.4265  -28.1817  -45.2851 O.2       13 UNK        -0.5000 
     79 N          -1.5682  -27.0069  -45.8465 N.am      14 UNK        -0.5000 
     80 CA         -0.8314  -28.1032  -46.4773 C.3       14 UNK         0.1400 
     81 CB          0.6551  -27.7285  -46.5809 C.3       14 UNK        -0.1800 
     82 C          -1.4015  -28.4744  -47.8593 C.2       14 UNK         0.5000 
     83 O          -1.5625  -29.6594  -48.1560 O.2       14 UNK        -0.5000 
     84 N          -1.6952  -27.4543  -48.6739 N.am      15 UNK        -0.5000 
     85 CA         -2.3343  -27.5713  -49.9826 C.3       15 UNK         0.1400 
     86 CB         -1.9945  -26.3075  -50.7942 C.3       15 UNK        -0.1800 
     87 C          -3.8614  -27.7475  -49.8619 C.2       15 UNK         0.5000 
     88 O          -4.4196  -27.7161  -48.7635 O.2       15 UNK        -0.5000 
     89 N          -4.5337  -27.8786  -51.0118 N.am      16 UNK        -0.5000 
     90 CA         -5.9927  -27.8488  -51.1319 C.3       16 UNK         0.1400 
     91 CB         -6.4006  -28.6108  -52.4058 C.3       16 UNK        -0.1800 
     92 C          -6.4944  -26.3888  -51.1221 C.2       16 UNK         0.5000 
     93 O          -6.9566  -25.8883  -52.1477 O.2       16 UNK        -0.5000 
     94 N          -6.3137  -25.7119  -49.9778 N.am      17 UNK        -0.5000 
     95 CA         -6.6012  -24.2971  -49.6886 C.3       17 UNK         0.1400 
     96 CB         -8.0771  -23.9487  -49.9712 C.3       17 UNK        -0.1800 
     97 C          -5.6432  -23.2913  -50.3648 C.2       17 UNK         0.5000 
     98 O          -5.7447  -22.0959  -50.0865 O.2       17 UNK        -0.5000 
     99 N          -4.7337  -23.7787  -51.2226 N.am      18 UNK        -0.5000 
    100 CA        -3.7990  -23.0542  -52.0919 C.3       18 UNK         0.1400 
    101 CB        -2.7823  -22.2175  -51.2899 C.3       18 UNK        -0.1800 
    102 C         -4.5205  -22.2259  -53.1709 C.2       18 UNK         0.5000 
    103 O         -4.4423  -22.5748  -54.3493 O.2       18 UNK        -0.5000 
    104 N         -5.2239  -21.1705  -52.7402 N.am      19 UNK        -0.5000 
    105 CA        -6.0970  -20.2526  -53.4813 C.3       19 UNK         0.1400 
    106 CB        -7.3150  -20.9988  -54.0573 C.3       19 UNK        -0.1800 
    107 C         -5.3990  -19.4072  -54.5641 C.2       19 UNK         0.5000 
    108 O         -5.5107  -18.1825  -54.5379 O.2       19 UNK        -0.5000 
    109 N         -4.6919  -20.0607  -55.4927 N.am      20 UNK        -0.5000 
    110 CA        -4.0059  -19.4439  -56.6306 C.3       20 UNK         0.1400 
    111 CB        -3.5827  -20.5461  -57.6135 C.3       20 UNK        -0.1800 
    112 C         -2.7924  -18.5874  -56.2238 C.2       20 UNK         0.5000 
    113 O         -2.4548  -17.6374  -56.9308 O.2       20 UNK        -0.5000 
    114 N         -2.1659  -18.9345  -55.0921 N.am      21 UNK        -0.5000 
    115 CA        -1.0576  -18.1895  -54.4942 C.3       21 UNK         0.1400 
    116 CB        -0.2993  -19.1241  -53.5389 C.3       21 UNK        -0.1800 
    117 C         -1.5214  -16.9241  -53.7459 C.2       21 UNK         0.5000 
    118 O         -0.7156  -16.0155  -53.5399 O.2       21 UNK        -0.5000 
    119 N         -2.7939  -16.8991  -53.3327 N.am      22 UNK        -0.5000 
    120 CA        -3.3992  -15.8276  -52.5352 C.3       22 UNK         0.1400 
    121 C         -3.7320  -14.5570  -53.3665 C.2       22 UNK         0.5000 
    122 N         -3.8655  -13.4072  -52.7179 N.am      22 UNK        -0.7600 
    123 O         -3.9012  -14.5985  -54.5832 O.2       22 UNK        -0.5000 
    124 C124       -4.6362  -16.3227  -51.7395 C.3       23 UNK        -0.0398 
    125 S125       -4.3973  -17.8971  -50.8354 S.3       23 UNK        -0.2404 
    126 C126       -3.3486  -17.4074  -49.4269 C.3       23 UNK        -0.0205 
    127 H127       -0.7531  -12.4864  -52.3208 H         1 UNK         0.0600 
    128 H128        0.4940  -11.7194  -53.3046 H         1 UNK         0.0600 
    129 H129       -0.6220  -10.7253  -52.3625 H         1 UNK         0.0600 
    130 H130       -0.0197  -13.2735  -50.3813 H         1 UNK         0.3000 
    131 H131        2.6143  -12.6790  -49.3644 H         1 UNK         0.0600 
    132 H132        1.7208  -14.2632  -47.4350 H         1 UNK         0.0800 
    133 H133        0.3590  -14.5399  -48.4822 H         1 UNK         0.0800 
    134 H134        0.8297  -15.1509  -51.1706 H         1 UNK         0.0800 
    135 H135        1.9780  -16.4034  -51.5176 H         1 UNK         0.0800 
    136 H136       -1.2913  -15.7151  -50.0892 H         1 UNK         0.1150 
    137 H137       -2.1453  -19.8343  -49.2722 H         1 UNK         0.1150 
    138 H138        1.8208  -18.6429  -50.3681 H         1 UNK         0.1150 
    139 H139       -0.4738  -21.5031  -49.5433 H         1 UNK         0.0800 
    140 H140        0.9144  -21.1289  -50.5457 H         1 UNK         0.0800 
    141 H141        1.6047  -23.2174  -49.0922 H         1 UNK         0.0800 
    142 H142        2.7746  -22.9154  -47.8482 H         1 UNK         0.0800 
    143 H143        1.3058  -24.5016  -46.9709 H         1 UNK         0.0600 
    144 H144        1.1513  -21.9486  -45.6302 H         1 UNK         0.3000 
    145 H145        0.0962  -23.5245  -42.5293 H         1 UNK         0.0600 
    146 H146        2.0268  -22.1682  -41.7814 H         1 UNK         0.0600 
    147 H147        2.5716  -23.5784  -42.6765 H         1 UNK         0.0600 
    148 H148        2.5887  -21.9969  -43.4418 H         1 UNK         0.0600 
    149 H149        0.3852  -20.7735  -43.1719 H         1 UNK         0.3000 
    150 H150       -3.0232  -20.1919  -44.1141 H         1 UNK         0.0600 
    151 H151       -3.0242  -20.3358  -41.6100 H         1 UNK         0.0600 
    152 H152       -2.9272  -18.6747  -42.1728 H         1 UNK         0.0600 
    153 H153       -1.4849  -19.4830  -41.5614 H         1 UNK         0.0600 
    154 H154       -0.9250  -18.3550  -43.7080 H         1 UNK         0.3000 
    155 H155        0.5026  -18.5053  -47.0138 H         1 UNK         0.0600 
    156 H156       -1.4456  -16.9616  -47.0115 H         1 UNK         0.0600 
    157 H157        0.0489  -16.0884  -46.7060 H         1 UNK         0.0600 
    158 H158       -1.0591  -16.4387  -45.3832 H         1 UNK         0.0600 
    159 H159        1.3545  -16.9987  -44.8154 H         1 UNK         0.3000 
    160 H160        3.5663  -19.3605  -43.2707 H         1 UNK         0.0600 
    161 H161        3.9049  -16.7549  -44.8512 H         1 UNK         0.0600 
    162 H162        4.7782  -18.2541  -45.1244 H         1 UNK         0.0600 
    163 H163        5.0219  -17.3634  -43.6293 H         1 UNK         0.0600 
    164 H164        2.6765  -16.6775  -42.6617 H         1 UNK         0.3000 
    165 H165        0.1367  -17.6260  -40.3505 H         1 UNK         0.0600 
    166 H166        1.5177  -16.2240  -38.8435 H         1 UNK         0.0600 
    167 H167        2.2699  -17.7961  -39.0606 H         1 UNK         0.0600 
    168 H168        2.9119  -16.3953  -39.9102 H         1 UNK         0.0600 
    169 H169        1.2015  -15.0910  -41.1537 H         1 UNK         0.3000 
    170 H170       -0.9240  -14.5657  -43.9565 H         1 UNK         0.0600 
    171 H171       -2.4127  -14.0871  -42.0067 H         1 UNK         0.0600 
    172 H172       -1.0629  -13.3558  -41.1450 H         1 UNK         0.0600 
    173 H173       -1.6710  -12.6207  -42.6285 H         1 UNK         0.0600 
    174 H174        0.8418  -12.7930  -42.6571 H         1 UNK         0.3000 
    175 H175        3.4645  -13.0462  -43.0781 H         1 UNK         0.0600 
    176 H176        3.5296  -13.4740  -46.1069 H         1 UNK         0.0600 
    177 H177        4.7918  -12.6913  -45.1610 H         1 UNK         0.0600 
    178 H178        4.4248  -14.3869  -44.9004 H         1 UNK         0.0600 
    179 H179        2.4328  -11.3840  -45.2726 H         1 UNK         0.3000 
    180 H180        0.5961   -9.2184  -43.1947 H         1 UNK         0.0600 
    181 H181        3.3839   -8.5524  -44.2846 H         1 UNK         0.0600 
    182 H182        2.8627   -8.3342  -42.6181 H         1 UNK         0.0600 
    183 H183        2.1167   -7.3879  -43.8955 H         1 UNK         0.0600 
    184 H184        1.5369   -8.9090  -45.8695 H         1 UNK         0.3000 
    185 H185       -1.4348   -9.9411  -47.3116 H         1 UNK         0.0600 
    186 H186       -0.0960   -7.8108  -47.2694 H         1 UNK         0.0600 
    187 H187        1.3148   -8.6923  -47.8567 H         1 UNK         0.0600 
    188 H188       -0.1254   -8.5622  -48.8537 H         1 UNK         0.0600 
    189 H189       -0.5872  -11.5050  -48.6497 H         1 UNK         0.3000 
    190 H190       -1.2990  -22.0563  -46.6688 H         1 UNK         0.3000 
    191 H191       -3.0773  -23.2831  -48.5184 H         1 UNK         0.0600 
    192 H192       -3.6769  -21.6054  -46.0324 H         1 UNK         0.0600 
    193 H193       -4.8373  -22.0008  -47.2947 H         1 UNK         0.0600 
    194 H194       -3.4486  -20.9995  -47.6733 H         1 UNK         0.0600 
    195 H195       -2.4430  -23.9963  -45.0664 H         1 UNK         0.3000 
    196 H196       -4.5286  -25.9665  -44.8162 H         1 UNK         0.0600 
    197 H197       -3.3257  -26.5384  -42.7003 H         1 UNK         0.0600 
    198 H198       -3.5865  -24.8075  -42.8490 H         1 UNK         0.0600 
    199 H199       -1.9922  -25.4884  -43.1656 H         1 UNK         0.0600 
    200 H200       -1.1010  -26.1103  -45.7912 H         1 UNK         0.3000 
    201 H201       -0.9116  -28.9823  -45.8343 H         1 UNK         0.0600 
    202 H202        1.0730  -27.4950  -45.6014 H         1 UNK         0.0600 
    203 H203        0.8094  -26.8634  -47.2257 H         1 UNK         0.0600 
    204 H204        1.2360  -28.5533  -46.9955 H         1 UNK         0.0600 
    205 H205       -1.5130  -26.5067  -48.3536 H         1 UNK         0.3000 
    206 H206       -1.9291  -28.4426  -50.5009 H         1 UNK         0.0600 
    207 H207       -0.9166  -26.1527  -50.8482 H         1 UNK         0.0600 
    208 H208       -2.3589  -26.3750  -51.8195 H         1 UNK         0.0600 
    209 H209       -2.4337  -25.4160  -50.3448 H         1 UNK         0.0600 
    210 H210       -4.0183  -27.8934  -51.8801 H         1 UNK         0.3000 
    211 H211       -6.4436  -28.3618  -50.2795 H         1 UNK         0.0600 
    212 H212       -5.9697  -28.1633  -53.3023 H         1 UNK         0.0600 
    213 H213       -7.4845  -28.6143  -52.5279 H         1 UNK         0.0600 
    214 H214       -6.0766  -29.6507  -52.3622 H         1 UNK         0.0600 
    215 H215       -5.8459  -26.2067  -49.2231 H         1 UNK         0.3000 
    216 H216       -6.4521  -24.1768  -48.6160 H         1 UNK         0.0600 
    217 H217       -8.3220  -22.9583  -49.5855 H         1 UNK         0.0600 
    218 H218       -8.7507  -24.6581  -49.4907 H         1 UNK         0.0600 
    219 H219       -8.2994  -23.9403  -51.0385 H         1 UNK         0.0600 
    220 H220       -4.7867  -24.7715  -51.3952 H         1 UNK         0.3000 
    221 H221       -3.2312  -23.8213  -52.6209 H         1 UNK         0.0600 
    222 H222       -3.2615  -21.4725  -50.6553 H         1 UNK         0.0600 
    223 H223       -2.1709  -22.8572  -50.6545 H         1 UNK         0.0600 
    224 H224       -2.1027  -21.6854  -51.9566 H         1 UNK         0.0600 
    225 H225       -5.2400  -21.0416  -51.7328 H         1 UNK         0.3000 
    226 H226       -6.4733  -19.5496  -52.7363 H         1 UNK         0.0600 
    227 H227       -7.8664  -21.5146  -53.2709 H         1 UNK         0.0600 
    228 H228       -8.0058  -20.3047  -54.5375 H         1 UNK         0.0600 
    229 H229       -7.0261  -21.7398  -54.8032 H         1 UNK         0.0600 
    230 H230       -4.6153  -21.0705  -55.3925 H         1 UNK         0.3000 
    231 H231       -4.7162  -18.7872  -57.1371 H         1 UNK         0.0600 
    232 H232       -3.0853  -20.1223  -58.4869 H         1 UNK         0.0600 
    233 H233       -4.4461  -21.1069  -57.9721 H         1 UNK         0.0600 
    234 H234       -2.8922  -21.2527  -57.1513 H         1 UNK         0.0600 
    235 H235       -2.5073  -19.7359  -54.5830 H         1 UNK         0.3000 
    236 H236       -0.3722  -17.8779  -55.2853 H         1 UNK         0.0600 
    237 H237        0.0651  -20.0116  -54.0562 H         1 UNK         0.0600 
    238 H238        0.5675  -18.6200  -53.1100 H         1 UNK         0.0600 
    239 H239       -0.9307  -19.4502  -52.7113 H         1 UNK         0.0600 
    240 H240       -3.4144  -17.6483  -53.6022 H         1 UNK         0.3000 
    241 H241       -2.6526  -15.5147  -51.8086 H         1 UNK         0.0600 
    242 H242       -4.0946  -12.5781  -53.2441 H         1 UNK         0.3800 
    243 H243       -3.7537  -13.3395  -51.7188 H         1 UNK         0.3800 
    244 H244       -4.9611  -15.5625  -51.0275 H         1 UNK         0.0800 
    245 H245       -5.4779  -16.4698  -52.4182 H         1 UNK         0.0800 
    246 H246       -3.4754  -16.3466  -49.2073 H         1 UNK         0.0800 
    247 H247       -3.6861  -17.9433  -48.5383 H         1 UNK         0.0800 
@<TRIPOS>BOND
     1    1    2 1    
     2    1  127 1    
     3    1  128 1    
     4    1  129 1    
     5    2    3 2    
     6    2    4 am   BACKBONE|DICT|INTERRES
     7    4    5 1    
     8    4  130 1    
     9    5    6 1    
    10    5   65 1    
    11    5  131 1    
    12    6    7 1    
    13    6  132 1    
    14    6  133 1    
    15    7    8 1    
    16    8    9 1    
    17    8  134 1    
    18    8  135 1    
    19    9   10 ar   
    20    9   14 ar   
    21   10   11 ar   
    22   10  136 1    
    23   11   12 ar   
    24   11  126 1    
    25   12   13 ar   
    26   12  137 1    
    27   13   14 ar   
    28   13   15 1    
    29   14  138 1    
    30   15   16 1    
    31   15  139 1    
    32   15  140 1    
    33   16   17 1    
    34   17   18 1    
    35   17  141 1    
    36   17  142 1    
    37   18   19 1    
    38   18   67 1    
    39   18  143 1    
    40   19   20 am   BACKBONE|DICT|INTERRES
    41   19  144 1    
    42   20   21 2    
    43   20   22 1    
    44   22   23 1    
    45   22   24 1    
    46   22  145 1    
    47   23  146 1    
    48   23  147 1    
    49   23  148 1    
    50   24   25 am   BACKBONE|DICT|INTERRES
    51   24  149 1    
    52   25   26 2    
    53   25   27 1    
    54   27   28 1    
    55   27   29 1    
    56   27  150 1    
    57   28  151 1    
    58   28  152 1    
    59   28  153 1    
    60   29   30 am   BACKBONE|DICT|INTERRES
    61   29  154 1    
    62   30   31 2    
    63   30   32 1    
    64   32   33 1    
    65   32   34 1    
    66   32  155 1    
    67   33  156 1    
    68   33  157 1    
    69   33  158 1    
    70   34   35 am   BACKBONE|DICT|INTERRES
    71   34  159 1    
    72   35   36 2    
    73   35   37 1    
    74   37   38 1    
    75   37   39 1    
    76   37  160 1    
    77   38  161 1    
    78   38  162 1    
    79   38  163 1    
    80   39   40 am   BACKBONE|DICT|INTERRES
    81   39  164 1    
    82   40   41 2    
    83   40   42 1    
    84   42   43 1    
    85   42   44 1    
    86   42  165 1    
    87   43  166 1    
    88   43  167 1    
    89   43  168 1    
    90   44   45 am   BACKBONE|DICT|INTERRES
    91   44  169 1    
    92   45   46 2    
    93   45   47 1    
    94   47   48 1    
    95   47   49 1    
    96   47  170 1    
    97   48  171 1    
    98   48  172 1    
    99   48  173 1    
   100   49   50 am   BACKBONE|DICT|INTERRES
   101   49  174 1    
   102   50   51 2    
   103   50   52 1    
   104   52   53 1    
   105   52   54 1    
   106   52  175 1    
   107   53  176 1    
   108   53  177 1    
   109   53  178 1    
   110   54   55 am   BACKBONE|DICT|INTERRES
   111   54  179 1    
   112   55   56 2    
   113   55   57 1    
   114   57   58 1    
   115   57   59 1    
   116   57  180 1    
   117   58  181 1    
   118   58  182 1    
   119   58  183 1    
   120   59   60 am   BACKBONE|DICT|INTERRES
   121   59  184 1    
   122   60   61 2    
   123   60   62 1    
   124   62   63 1    
   125   62   64 1    
   126   62  185 1    
   127   63  186 1    
   128   63  187 1    
   129   63  188 1    
   130   64   65 am   BACKBONE|DICT|INTERRES
   131   64  189 1    
   132   65   66 2    
   133   67   68 2    
   134   67   69 am   BACKBONE|DICT|INTERRES
   135   69   70 1    
   136   69  190 1    
   137   70   71 1    
   138   70   72 1    
   139   70  191 1    
   140   71  192 1    
   141   71  193 1    
   142   71  194 1    
   143   72   73 2    
   144   72   74 am   BACKBONE|DICT|INTERRES
   145   74   75 1    
   146   74  195 1    
   147   75   76 1    
   148   75   77 1    
   149   75  196 1    
   150   76  197 1    
   151   76  198 1    
   152   76  199 1    
   153   77   78 2    
   154   77   79 am   BACKBONE|DICT|INTERRES
   155   79   80 1    
   156   79  200 1    
   157   80   81 1    
   158   80   82 1    
   159   80  201 1    
   160   81  202 1    
   161   81  203 1    
   162   81  204 1    
   163   82   83 2    
   164   82   84 am   BACKBONE|DICT|INTERRES
   165   84   85 1    
   166   84  205 1    
   167   85   86 1    
   168   85   87 1    
   169   85  206 1    
   170   86  207 1    
   171   86  208 1    
   172   86  209 1    
   173   87   88 2    
   174   87   89 am   BACKBONE|DICT|INTERRES
   175   89   90 1    
   176   89  210 1    
   177   90   91 1    
   178   90   92 1    
   179   90  211 1    
   180   91  212 1    
   181   91  213 1    
   182   91  214 1    
   183   92   93 2    
   184   92   94 am   BACKBONE|DICT|INTERRES
   185   94   95 1    
   186   94  215 1    
   187   95   96 1    
   188   95   97 1    
   189   95  216 1    
   190   96  217 1    
   191   96  218 1    
   192   96  219 1    
   193   97   98 2    
   194   97   99 am   BACKBONE|DICT|INTERRES
   195   99  100 1    
   196   99  220 1    
   197  100  101 1    
   198  100  102 1    
   199  100  221 1    
   200  101  222 1    
   201  101  223 1    
   202  101  224 1    
   203  102  103 2    
   204  102  104 am   BACKBONE|DICT|INTERRES
   205  104  105 1    
   206  104  225 1    
   207  105  106 1    
   208  105  107 1    
   209  105  226 1    
   210  106  227 1    
   211  106  228 1    
   212  106  229 1    
   213  107  108 2    
   214  107  109 am   BACKBONE|DICT|INTERRES
   215  109  110 1    
   216  109  230 1    
   217  110  111 1    
   218  110  112 1    
   219  110  231 1    
   220  111  232 1    
   221  111  233 1    
   222  111  234 1    
   223  112  113 2    
   224  112  114 am   BACKBONE|DICT|INTERRES
   225  114  115 1    
   226  114  235 1    
   227  115  116 1    
   228  115  117 1    
   229  115  236 1    
   230  116  237 1    
   231  116  238 1    
   232  116  239 1    
   233  117  118 2    
   234  117  119 am   BACKBONE|DICT|INTERRES
   235  119  120 1    
   236  119  240 1    
   237  120  121 1    
   238  120  124 1    
   239  120  241 1    
   240  121  122 am   BACKBONE|DICT|INTERRES
   241  121  123 2    
   242  122  242 1    
   243  122  243 1    
   244  124  125 1    
   245  124  244 1    
   246  124  245 1    
   247  125  126 1    
   248  126  246 1    
   249  126  247 1    
@<TRIPOS>SUBSTRUCTURE
     1 UNK         1 GROUP             0       ****    0 ROOT    
