@<TRIPOS>MOLECULE
3R540
247   249    1
SMALL
USER_CHARGES


@<TRIPOS>ATOM
      1 CA          0.9336  -10.9530  -44.2432 C.3       0 UNK        -0.1800 
      2 C           2.1041  -10.5692  -45.1378 C.2       0 UNK         0.5000 
      3 O           2.8548   -9.6522  -44.8056 O.2       0 UNK        -0.5000 
      4 N           2.2639  -11.2645  -46.2711 N.am      1 UNK        -0.5000 
      5 CA          3.3539  -11.0699  -47.2386 C.3       1 UNK         0.1400 
      6 C6          2.9674  -11.5613  -48.6578 C.3       23 UNK        -0.0398 
      7 S7          2.3089  -13.2654  -48.7354 S.3       23 UNK        -0.2404 
      8 C8          3.7787  -14.2207  -49.2143 C.3       23 UNK        -0.0205 
      9 C9          3.3906  -15.6021  -49.7175 C.ar      23 UNK        -0.0193 
     10 C10         3.3247  -15.8542  -51.0893 C.ar      23 UNK        -0.1150 
     11 C11         2.9765  -17.1209  -51.5647 C.ar      23 UNK        -0.0193 
     12 C12         2.6808  -18.1402  -50.6539 C.ar      23 UNK        -0.1150 
     13 C13         2.7322  -17.9009  -49.2733 C.ar      23 UNK        -0.0193 
     14 C14         3.0944  -16.6282  -48.8169 C.ar      23 UNK        -0.1150 
     15 C15         2.3355  -18.9593  -48.2465 C.3       23 UNK        -0.0205 
     16 S16         2.8056  -20.6716  -48.6729 S.3       23 UNK        -0.2404 
     17 C17         1.3101  -21.3142  -49.5054 C.3       23 UNK        -0.0398 
     18 CA          0.3420  -21.9922  -48.5077 C.3       11 UNK         0.1400 
     19 N          -0.3244  -21.0225  -47.6407 N.am      11 UNK        -0.5000 
     20 C          -0.8604  -21.3164  -46.4501 C.2       10 UNK         0.5000 
     21 O          -0.8673  -22.4467  -45.9647 O.2       10 UNK        -0.5000 
     22 CA         -1.5247  -20.1571  -45.6861 C.3       10 UNK         0.1400 
     23 CB         -0.4730  -19.4285  -44.8400 C.3       10 UNK        -0.1800 
     24 N          -2.1869  -19.1963  -46.5698 N.am      10 UNK        -0.5000 
     25 C          -3.2192  -19.4958  -47.3724 C.2       9 UNK         0.5000 
     26 O          -3.7526  -20.6040  -47.4093 O.2       9 UNK        -0.5000 
     27 CA         -3.7197  -18.3989  -48.3280 C.3       9 UNK         0.1400 
     28 CB         -4.9217  -17.6696  -47.7099 C.3       9 UNK        -0.1800 
     29 N          -2.7104  -17.4126  -48.7130 N.am      9 UNK        -0.5000 
     30 C          -1.5328  -17.6758  -49.2990 C.2       8 UNK         0.5000 
     31 O          -1.0936  -18.8098  -49.4948 O.2       8 UNK        -0.5000 
     32 CA         -0.6714  -16.4542  -49.6637 C.3       8 UNK         0.1400 
     33 CB         -1.0653  -15.9000  -51.0393 C.3       8 UNK        -0.1800 
     34 N          -0.7269  -15.3730  -48.6784 N.am      8 UNK        -0.5000 
     35 C          -0.4377  -15.4894  -47.3751 C.2       7 UNK         0.5000 
     36 O          -0.1261  -16.5535  -46.8347 O.2       7 UNK        -0.5000 
     37 CA         -0.5017  -14.2053  -46.5237 C.3       7 UNK         0.1400 
     38 CB         -1.1123  -12.9778  -47.2424 C.3       7 UNK        -0.1800 
     39 N          -1.1753  -14.4481  -45.2492 N.am      7 UNK        -0.5000 
     40 C          -2.4528  -14.8168  -45.0641 C.2       6 UNK         0.5000 
     41 O          -3.2612  -14.9533  -45.9832 O.2       6 UNK        -0.5000 
     42 CA         -2.9138  -15.0975  -43.6168 C.3       6 UNK         0.1400 
     43 CB         -3.4664  -16.5269  -43.4866 C.3       6 UNK        -0.1800 
     44 N          -1.8507  -14.9122  -42.6259 N.am      6 UNK        -0.5000 
     45 C          -1.4628  -13.7340  -42.1178 C.2       5 UNK         0.5000 
     46 O          -2.0216  -12.6652  -42.3637 O.2       5 UNK        -0.5000 
     47 CA         -0.2143  -13.7512  -41.2124 C.3       5 UNK         0.1400 
     48 CB         -0.6222  -13.8260  -39.7334 C.3       5 UNK        -0.1800 
     49 N           0.7121  -14.8499  -41.5108 N.am      5 UNK        -0.5000 
     50 C           1.3939  -14.9845  -42.6557 C.2       4 UNK         0.5000 
     51 O           1.3151  -14.1911  -43.5953 O.2       4 UNK        -0.5000 
     52 CA          2.3013  -16.2209  -42.7816 C.3       4 UNK         0.1400 
     53 CB          2.1075  -16.9001  -44.1470 C.3       4 UNK        -0.1800 
     54 N           3.7032  -15.8483  -42.6390 N.am      4 UNK        -0.5000 
     55 C           4.2882  -15.4164  -41.5133 C.2       3 UNK         0.5000 
     56 O           3.7386  -15.4202  -40.4111 O.2       3 UNK        -0.5000 
     57 CA          5.7285  -14.8765  -41.6473 C.3       3 UNK         0.1400 
     58 CB          6.7472  -15.9480  -41.2295 C.3       3 UNK        -0.1800 
     59 N           6.0486  -14.4156  -43.0037 N.am      3 UNK        -0.5000 
     60 C           5.4790  -13.3609  -43.6035 C.2       2 UNK         0.5000 
     61 O           4.6819  -12.6102  -43.0359 O.2       2 UNK        -0.5000 
     62 CA          5.8247  -13.1201  -45.0839 C.3       2 UNK         0.1400 
     63 CB          6.2116  -14.4015  -45.8539 C.3       2 UNK        -0.1800 
     64 N           4.6724  -12.4912  -45.7181 N.am      2 UNK        -0.5000 
     65 C           4.7001  -11.6725  -46.7742 C.2       1 UNK         0.5000 
     66 O           5.7324  -11.3839  -47.3817 O.2       1 UNK        -0.5000 
     67 C          -0.6932  -22.8965  -49.2045 C.2       11 UNK         0.5000 
     68 O          -0.4718  -24.1052  -49.2828 O.2       11 UNK        -0.5000 
     69 N          -1.8380  -22.3307  -49.6204 N.am      12 UNK        -0.5000 
     70 CA         -2.9698  -23.1027  -50.1391 C.3       12 UNK         0.1400 
     71 CB         -3.9949  -22.1833  -50.8110 C.3       12 UNK        -0.1800 
     72 C          -3.6517  -23.9616  -49.0619 C.2       12 UNK         0.5000 
     73 O          -4.1052  -25.0628  -49.3740 O.2       12 UNK        -0.5000 
     74 N          -3.7161  -23.4595  -47.8218 N.am      13 UNK        -0.5000 
     75 CA         -4.2126  -24.1972  -46.6605 C.3       13 UNK         0.1400 
     76 CB         -4.3982  -23.2431  -45.4719 C.3       13 UNK        -0.1800 
     77 C          -3.2932  -25.3745  -46.2902 C.2       13 UNK         0.5000 
     78 O          -3.7914  -26.4760  -46.0608 O.2       13 UNK        -0.5000 
     79 N          -1.9715  -25.1427  -46.2966 N.am      14 UNK        -0.5000 
     80 CA         -0.9428  -26.1642  -46.0747 C.3       14 UNK         0.1400 
     81 CB          0.4355  -25.4943  -45.9719 C.3       14 UNK        -0.1800 
     82 C          -0.9348  -27.2588  -47.1595 C.2       14 UNK         0.5000 
     83 O          -0.7258  -28.4297  -46.8411 O.2       14 UNK        -0.5000 
     84 N          -1.2052  -26.8653  -48.4117 N.am      15 UNK        -0.5000 
     85 CA         -1.3840  -27.7627  -49.5557 C.3       15 UNK         0.1400 
     86 CB         -1.2446  -26.9438  -50.8492 C.3       15 UNK        -0.1800 
     87 C          -2.7301  -28.5198  -49.5475 C.2       15 UNK         0.5000 
     88 O          -2.9070  -29.4272  -50.3611 O.2       15 UNK        -0.5000 
     89 N          -3.6554  -28.1229  -48.6593 N.am      16 UNK        -0.5000 
     90 CA         -5.0339  -28.6060  -48.5149 C.3       16 UNK         0.1400 
     91 CB         -5.0648  -30.0969  -48.1192 C.3       16 UNK        -0.1800 
     92 C          -5.9278  -28.2844  -49.7329 C.2       16 UNK         0.5000 
     93 O          -6.9305  -28.9642  -49.9586 O.2       16 UNK        -0.5000 
     94 N          -5.5581  -27.2417  -50.4865 N.am      17 UNK        -0.5000 
     95 CA         -6.3083  -26.7180  -51.6242 C.3       17 UNK         0.1400 
     96 CB         -5.3263  -26.0845  -52.6234 C.3       17 UNK        -0.1800 
     97 C          -7.3515  -25.6856  -51.1683 C.2       17 UNK         0.5000 
     98 O          -8.4663  -25.6806  -51.6903 O.2       17 UNK        -0.5000 
     99 N          -6.9593  -24.8326  -50.2061 N.am      18 UNK        -0.5000 
    100 CA        -7.7482  -23.7544  -49.5903 C.3       18 UNK         0.1400 
    101 CB        -8.8571  -24.3481  -48.6984 C.3       18 UNK        -0.1800 
    102 C         -8.2853  -22.7097  -50.5994 C.2       18 UNK         0.5000 
    103 O         -9.3425  -22.1174  -50.3796 O.2       18 UNK        -0.5000 
    104 N         -7.5392  -22.5029  -51.6932 N.am      19 UNK        -0.5000 
    105 CA        -7.8989  -21.6499  -52.8291 C.3       19 UNK         0.1400 
    106 CB        -7.0272  -22.0635  -54.0269 C.3       19 UNK        -0.1800 
    107 C         -7.7584  -20.1357  -52.5680 C.2       19 UNK         0.5000 
    108 O         -8.1983  -19.3450  -53.4019 O.2       19 UNK        -0.5000 
    109 N         -7.1095  -19.7617  -51.4550 N.am      20 UNK        -0.5000 
    110 CA        -6.7742  -18.4025  -50.9970 C.3       20 UNK         0.1400 
    111 CB        -8.0211  -17.5015  -50.8950 C.3       20 UNK        -0.1800 
    112 C         -5.6286  -17.7190  -51.7773 C.2       20 UNK         0.5000 
    113 O         -5.1349  -16.6808  -51.3355 O.2       20 UNK        -0.5000 
    114 N         -5.1899  -18.3313  -52.8830 N.am      21 UNK        -0.5000 
    115 CA        -3.9367  -18.0436  -53.5788 C.3       21 UNK         0.1400 
    116 CB        -4.1065  -18.4440  -55.0559 C.3       21 UNK        -0.1800 
    117 C         -2.7740  -18.8037  -52.9047 C.2       21 UNK         0.5000 
    118 O         -2.9547  -19.3608  -51.8226 O.2       21 UNK        -0.5000 
    119 N         -1.6030  -18.8371  -53.5526 N.am      22 UNK        -0.5000 
    120 CA        -0.4187  -19.5817  -53.0804 C.3       22 UNK         0.1400 
    121 C         -0.5627  -21.1350  -53.1134 C.2       22 UNK         0.5000 
    122 N         -1.5610  -21.7040  -53.7785 N.am      22 UNK        -0.7600 
    123 O          0.2583  -21.8383  -52.5340 O.2       22 UNK        -0.5000 
    124 C124        0.8687  -19.1631  -53.8348 C.3       23 UNK        -0.0398 
    125 S125        1.2433  -17.3785  -53.7245 S.3       23 UNK        -0.2404 
    126 C126        2.9419  -17.3805  -53.0636 C.3       23 UNK        -0.0205 
    127 H127        1.2986  -11.2560  -43.2618 H         1 UNK         0.0600 
    128 H128        0.3583  -11.7809  -44.6566 H         1 UNK         0.0600 
    129 H129        0.2626  -10.1042  -44.1128 H         1 UNK         0.0600 
    130 H130        1.6191  -12.0063  -46.4992 H         1 UNK         0.3000 
    131 H131        3.5297   -9.9950  -47.3199 H         1 UNK         0.0600 
    132 H132        2.1875  -10.9070  -49.0496 H         1 UNK         0.0800 
    133 H133        3.8011  -11.4506  -49.3533 H         1 UNK         0.0800 
    134 H134        4.3343  -13.6848  -49.9852 H         1 UNK         0.0800 
    135 H135        4.4469  -14.3132  -48.3580 H         1 UNK         0.0800 
    136 H136        3.5489  -15.0615  -51.7893 H         1 UNK         0.1150 
    137 H137        2.3986  -19.1122  -51.0287 H         1 UNK         0.1150 
    138 H138        3.1225  -16.4245  -47.7553 H         1 UNK         0.1150 
    139 H139        2.8045  -18.7286  -47.2887 H         1 UNK         0.0800 
    140 H140        1.2628  -18.8884  -48.0742 H         1 UNK         0.0800 
    141 H141        1.6536  -22.0367  -50.2477 H         1 UNK         0.0800 
    142 H142        0.8113  -20.5210  -50.0618 H         1 UNK         0.0800 
    143 H143        0.9402  -22.6505  -47.8733 H         1 UNK         0.0600 
    144 H144       -0.4438  -20.0895  -48.0195 H         1 UNK         0.3000 
    145 H145       -2.2786  -20.5777  -45.0180 H         1 UNK         0.0600 
    146 H146       -0.9147  -18.6191  -44.2613 H         1 UNK         0.0600 
    147 H147        0.0027  -20.1106  -44.1342 H         1 UNK         0.0600 
    148 H148        0.3128  -19.0058  -45.4671 H         1 UNK         0.0600 
    149 H149       -1.7756  -18.2734  -46.6332 H         1 UNK         0.3000 
    150 H150       -4.0457  -18.8945  -49.2440 H         1 UNK         0.0600 
    151 H151       -5.7258  -18.3686  -47.4760 H         1 UNK         0.0600 
    152 H152       -5.3272  -16.9217  -48.3915 H         1 UNK         0.0600 
    153 H153       -4.6491  -17.1635  -46.7832 H         1 UNK         0.0600 
    154 H154       -2.9478  -16.4453  -48.5469 H         1 UNK         0.3000 
    155 H155        0.3616  -16.7869  -49.7225 H         1 UNK         0.0600 
    156 H156       -2.0908  -15.5285  -51.0487 H         1 UNK         0.0600 
    157 H157       -0.9894  -16.6739  -51.8016 H         1 UNK         0.0600 
    158 H158       -0.4044  -15.0874  -51.3417 H         1 UNK         0.0600 
    159 H159       -0.9705  -14.4598  -49.0319 H         1 UNK         0.3000 
    160 H160        0.5320  -13.9646  -46.2738 H         1 UNK         0.0600 
    161 H161       -2.1303  -13.1655  -47.5848 H         1 UNK         0.0600 
    162 H162       -0.5227  -12.6852  -48.1109 H         1 UNK         0.0600 
    163 H163       -1.1465  -12.1139  -46.5790 H         1 UNK         0.0600 
    164 H164       -0.5688  -14.3947  -44.4396 H         1 UNK         0.3000 
    165 H165       -3.7259  -14.4011  -43.3979 H         1 UNK         0.0600 
    166 H166       -3.8249  -16.7212  -42.4756 H         1 UNK         0.0600 
    167 H167       -4.3074  -16.6867  -44.1625 H         1 UNK         0.0600 
    168 H168       -2.7107  -17.2741  -43.7249 H         1 UNK         0.0600 
    169 H169       -1.3333  -15.7372  -42.3606 H         1 UNK         0.3000 
    170 H170        0.3189  -12.8119  -41.3730 H         1 UNK         0.0600 
    171 H171       -1.2905  -13.0048  -39.4704 H         1 UNK         0.0600 
    172 H172       -1.1411  -14.7578  -39.5052 H         1 UNK         0.0600 
    173 H173        0.2480  -13.7565  -39.0803 H         1 UNK         0.0600 
    174 H174        0.8635  -15.5227  -40.7724 H         1 UNK         0.3000 
    175 H175        2.0419  -16.9382  -42.0002 H         1 UNK         0.0600 
    176 H176        2.4653  -16.2772  -44.9682 H         1 UNK         0.0600 
    177 H177        2.6311  -17.8548  -44.1953 H         1 UNK         0.0600 
    178 H178        1.0515  -17.0931  -44.3311 H         1 UNK         0.0600 
    179 H179        4.2363  -15.7935  -43.4929 H         1 UNK         0.3000 
    180 H180        5.8250  -14.0273  -40.9675 H         1 UNK         0.0600 
    181 H181        7.7641  -15.5558  -41.2508 H         1 UNK         0.0600 
    182 H182        6.7079  -16.8187  -41.8854 H         1 UNK         0.0600 
    183 H183        6.5553  -16.2940  -40.2129 H         1 UNK         0.0600 
    184 H184        6.7018  -14.9795  -43.5282 H         1 UNK         0.3000 
    185 H185        6.6675  -12.4262  -45.1016 H         1 UNK         0.0600 
    186 H186        7.1106  -14.8621  -45.4437 H         1 UNK         0.0600 
    187 H187        5.4115  -15.1426  -45.8309 H         1 UNK         0.0600 
    188 H188        6.4272  -14.1803  -46.8992 H         1 UNK         0.0600 
    189 H189        3.7985  -12.6070  -45.2218 H         1 UNK         0.3000 
    190 H190       -1.9592  -21.3306  -49.5331 H         1 UNK         0.3000 
    191 H191       -2.5914  -23.7855  -50.9025 H         1 UNK         0.0600 
    192 H192       -3.5975  -21.7834  -51.7415 H         1 UNK         0.0600 
    193 H193       -4.8976  -22.7327  -51.0711 H         1 UNK         0.0600 
    194 H194       -4.2816  -21.3492  -50.1698 H         1 UNK         0.0600 
    195 H195       -3.4208  -22.5009  -47.6617 H         1 UNK         0.3000 
    196 H196       -5.1918  -24.6074  -46.9171 H         1 UNK         0.0600 
    197 H197       -4.7997  -23.7720  -44.6067 H         1 UNK         0.0600 
    198 H198       -5.0959  -22.4418  -45.7159 H         1 UNK         0.0600 
    199 H199       -3.4569  -22.7858  -45.1688 H         1 UNK         0.0600 
    200 H200       -1.6404  -24.1926  -46.4356 H         1 UNK         0.3000 
    201 H201       -1.1569  -26.6483  -45.1197 H         1 UNK         0.0600 
    202 H202        0.4654  -24.7781  -45.1506 H         1 UNK         0.0600 
    203 H203        0.6945  -24.9640  -46.8884 H         1 UNK         0.0600 
    204 H204        1.2166  -26.2328  -45.7873 H         1 UNK         0.0600 
    205 H205       -1.2813  -25.8716  -48.6017 H         1 UNK         0.3000 
    206 H206       -0.5882  -28.5100  -49.5368 H         1 UNK         0.0600 
    207 H207       -0.2806  -26.4368  -50.8944 H         1 UNK         0.0600 
    208 H208       -1.3155  -27.5836  -51.7296 H         1 UNK         0.0600 
    209 H209       -2.0255  -26.1875  -50.9309 H         1 UNK         0.0600 
    210 H210       -3.4057  -27.3697  -48.0308 H         1 UNK         0.3000 
    211 H211       -5.4583  -28.0417  -47.6836 H         1 UNK         0.0600 
    212 H212       -4.7362  -30.7416  -48.9346 H         1 UNK         0.0600 
    213 H213       -6.0736  -30.4077  -47.8456 H         1 UNK         0.0600 
    214 H214       -4.4236  -30.2889  -47.2589 H         1 UNK         0.0600 
    215 H215       -4.7594  -26.6952  -50.1798 H         1 UNK         0.3000 
    216 H216       -6.8301  -27.5343  -52.1282 H         1 UNK         0.0600 
    217 H217       -4.6123  -26.8218  -52.9908 H         1 UNK         0.0600 
    218 H218       -4.7591  -25.2677  -52.1757 H         1 UNK         0.0600 
    219 H219       -5.8543  -25.6832  -53.4895 H         1 UNK         0.0600 
    220 H220       -6.0170  -24.9462  -49.8466 H         1 UNK         0.3000 
    221 H221       -7.0607  -23.2125  -48.9389 H         1 UNK         0.0600 
    222 H222       -9.6144  -24.8662  -49.2875 H         1 UNK         0.0600 
    223 H223       -8.4464  -25.0587  -47.9810 H         1 UNK         0.0600 
    224 H224       -9.3625  -23.5687  -48.1269 H         1 UNK         0.0600 
    225 H225       -6.7015  -23.0535  -51.7999 H         1 UNK         0.3000 
    226 H226       -8.9439  -21.8392  -53.0834 H         1 UNK         0.0600 
    227 H227       -7.1697  -23.1161  -54.2732 H         1 UNK         0.0600 
    228 H228       -7.2824  -21.4880  -54.9178 H         1 UNK         0.0600 
    229 H229       -5.9663  -21.9061  -53.8273 H         1 UNK         0.0600 
    230 H230       -6.7784  -20.5054  -50.8585 H         1 UNK         0.3000 
    231 H231       -6.3996  -18.5378  -49.9833 H         1 UNK         0.0600 
    232 H232       -7.7828  -16.5682  -50.3835 H         1 UNK         0.0600 
    233 H233       -8.8153  -17.9879  -50.3285 H         1 UNK         0.0600 
    234 H234       -8.4176  -17.2379  -51.8756 H         1 UNK         0.0600 
    235 H235       -5.6582  -19.1827  -53.1505 H         1 UNK         0.3000 
    236 H236       -3.7212  -16.9748  -53.5232 H         1 UNK         0.0600 
    237 H237       -4.9726  -17.9504  -55.4976 H         1 UNK         0.0600 
    238 H238       -3.2403  -18.1558  -55.6521 H         1 UNK         0.0600 
    239 H239       -4.2448  -19.5201  -55.1692 H         1 UNK         0.0600 
    240 H240       -1.5033  -18.3541  -54.4329 H         1 UNK         0.3000 
    241 H241       -0.2762  -19.3207  -52.0304 H         1 UNK         0.0600 
    242 H242       -1.6277  -22.7084  -53.7989 H         1 UNK         0.3800 
    243 H243       -2.2357  -21.1442  -54.2717 H         1 UNK         0.3800 
    244 H244        1.7206  -19.7306  -53.4575 H         1 UNK         0.0800 
    245 H245        0.7852  -19.4215  -54.8917 H         1 UNK         0.0800 
    246 H246        3.4541  -18.3156  -53.2928 H         1 UNK         0.0800 
    247 H247        3.5063  -16.6064  -53.5859 H         1 UNK         0.0800 
@<TRIPOS>BOND
     1    1    2 1    
     2    1  127 1    
     3    1  128 1    
     4    1  129 1    
     5    2    3 2    
     6    2    4 am   BACKBONE|DICT|INTERRES
     7    4    5 1    
     8    4  130 1    
     9    5    6 1    
    10    5   65 1    
    11    5  131 1    
    12    6    7 1    
    13    6  132 1    
    14    6  133 1    
    15    7    8 1    
    16    8    9 1    
    17    8  134 1    
    18    8  135 1    
    19    9   10 ar   
    20    9   14 ar   
    21   10   11 ar   
    22   10  136 1    
    23   11   12 ar   
    24   11  126 1    
    25   12   13 ar   
    26   12  137 1    
    27   13   14 ar   
    28   13   15 1    
    29   14  138 1    
    30   15   16 1    
    31   15  139 1    
    32   15  140 1    
    33   16   17 1    
    34   17   18 1    
    35   17  141 1    
    36   17  142 1    
    37   18   19 1    
    38   18   67 1    
    39   18  143 1    
    40   19   20 am   BACKBONE|DICT|INTERRES
    41   19  144 1    
    42   20   21 2    
    43   20   22 1    
    44   22   23 1    
    45   22   24 1    
    46   22  145 1    
    47   23  146 1    
    48   23  147 1    
    49   23  148 1    
    50   24   25 am   BACKBONE|DICT|INTERRES
    51   24  149 1    
    52   25   26 2    
    53   25   27 1    
    54   27   28 1    
    55   27   29 1    
    56   27  150 1    
    57   28  151 1    
    58   28  152 1    
    59   28  153 1    
    60   29   30 am   BACKBONE|DICT|INTERRES
    61   29  154 1    
    62   30   31 2    
    63   30   32 1    
    64   32   33 1    
    65   32   34 1    
    66   32  155 1    
    67   33  156 1    
    68   33  157 1    
    69   33  158 1    
    70   34   35 am   BACKBONE|DICT|INTERRES
    71   34  159 1    
    72   35   36 2    
    73   35   37 1    
    74   37   38 1    
    75   37   39 1    
    76   37  160 1    
    77   38  161 1    
    78   38  162 1    
    79   38  163 1    
    80   39   40 am   BACKBONE|DICT|INTERRES
    81   39  164 1    
    82   40   41 2    
    83   40   42 1    
    84   42   43 1    
    85   42   44 1    
    86   42  165 1    
    87   43  166 1    
    88   43  167 1    
    89   43  168 1    
    90   44   45 am   BACKBONE|DICT|INTERRES
    91   44  169 1    
    92   45   46 2    
    93   45   47 1    
    94   47   48 1    
    95   47   49 1    
    96   47  170 1    
    97   48  171 1    
    98   48  172 1    
    99   48  173 1    
   100   49   50 am   BACKBONE|DICT|INTERRES
   101   49  174 1    
   102   50   51 2    
   103   50   52 1    
   104   52   53 1    
   105   52   54 1    
   106   52  175 1    
   107   53  176 1    
   108   53  177 1    
   109   53  178 1    
   110   54   55 am   BACKBONE|DICT|INTERRES
   111   54  179 1    
   112   55   56 2    
   113   55   57 1    
   114   57   58 1    
   115   57   59 1    
   116   57  180 1    
   117   58  181 1    
   118   58  182 1    
   119   58  183 1    
   120   59   60 am   BACKBONE|DICT|INTERRES
   121   59  184 1    
   122   60   61 2    
   123   60   62 1    
   124   62   63 1    
   125   62   64 1    
   126   62  185 1    
   127   63  186 1    
   128   63  187 1    
   129   63  188 1    
   130   64   65 am   BACKBONE|DICT|INTERRES
   131   64  189 1    
   132   65   66 2    
   133   67   68 2    
   134   67   69 am   BACKBONE|DICT|INTERRES
   135   69   70 1    
   136   69  190 1    
   137   70   71 1    
   138   70   72 1    
   139   70  191 1    
   140   71  192 1    
   141   71  193 1    
   142   71  194 1    
   143   72   73 2    
   144   72   74 am   BACKBONE|DICT|INTERRES
   145   74   75 1    
   146   74  195 1    
   147   75   76 1    
   148   75   77 1    
   149   75  196 1    
   150   76  197 1    
   151   76  198 1    
   152   76  199 1    
   153   77   78 2    
   154   77   79 am   BACKBONE|DICT|INTERRES
   155   79   80 1    
   156   79  200 1    
   157   80   81 1    
   158   80   82 1    
   159   80  201 1    
   160   81  202 1    
   161   81  203 1    
   162   81  204 1    
   163   82   83 2    
   164   82   84 am   BACKBONE|DICT|INTERRES
   165   84   85 1    
   166   84  205 1    
   167   85   86 1    
   168   85   87 1    
   169   85  206 1    
   170   86  207 1    
   171   86  208 1    
   172   86  209 1    
   173   87   88 2    
   174   87   89 am   BACKBONE|DICT|INTERRES
   175   89   90 1    
   176   89  210 1    
   177   90   91 1    
   178   90   92 1    
   179   90  211 1    
   180   91  212 1    
   181   91  213 1    
   182   91  214 1    
   183   92   93 2    
   184   92   94 am   BACKBONE|DICT|INTERRES
   185   94   95 1    
   186   94  215 1    
   187   95   96 1    
   188   95   97 1    
   189   95  216 1    
   190   96  217 1    
   191   96  218 1    
   192   96  219 1    
   193   97   98 2    
   194   97   99 am   BACKBONE|DICT|INTERRES
   195   99  100 1    
   196   99  220 1    
   197  100  101 1    
   198  100  102 1    
   199  100  221 1    
   200  101  222 1    
   201  101  223 1    
   202  101  224 1    
   203  102  103 2    
   204  102  104 am   BACKBONE|DICT|INTERRES
   205  104  105 1    
   206  104  225 1    
   207  105  106 1    
   208  105  107 1    
   209  105  226 1    
   210  106  227 1    
   211  106  228 1    
   212  106  229 1    
   213  107  108 2    
   214  107  109 am   BACKBONE|DICT|INTERRES
   215  109  110 1    
   216  109  230 1    
   217  110  111 1    
   218  110  112 1    
   219  110  231 1    
   220  111  232 1    
   221  111  233 1    
   222  111  234 1    
   223  112  113 2    
   224  112  114 am   BACKBONE|DICT|INTERRES
   225  114  115 1    
   226  114  235 1    
   227  115  116 1    
   228  115  117 1    
   229  115  236 1    
   230  116  237 1    
   231  116  238 1    
   232  116  239 1    
   233  117  118 2    
   234  117  119 am   BACKBONE|DICT|INTERRES
   235  119  120 1    
   236  119  240 1    
   237  120  121 1    
   238  120  124 1    
   239  120  241 1    
   240  121  122 am   BACKBONE|DICT|INTERRES
   241  121  123 2    
   242  122  242 1    
   243  122  243 1    
   244  124  125 1    
   245  124  244 1    
   246  124  245 1    
   247  125  126 1    
   248  126  246 1    
   249  126  247 1    
@<TRIPOS>SUBSTRUCTURE
     1 UNK         1 GROUP             0       ****    0 ROOT    
