@<TRIPOS>MOLECULE
3R540
247   249    1
SMALL
USER_CHARGES


@<TRIPOS>ATOM
      1 CA          9.5910  -12.8287  -47.7695 C.3       0 UNK        -0.1800 
      2 C           8.4682  -13.8074  -47.4552 C.2       0 UNK         0.5000 
      3 O           8.7362  -14.9311  -47.0292 O.2       0 UNK        -0.5000 
      4 N           7.2147  -13.3892  -47.6699 N.am      1 UNK        -0.5000 
      5 CA          6.0087  -14.1612  -47.3634 C.3       1 UNK         0.1400 
      6 C6          4.7694  -13.5674  -48.0835 C.3       23 UNK        -0.0398 
      7 S7          3.3905  -14.7531  -48.2437 S.3       23 UNK        -0.2404 
      8 C8          3.6965  -15.3931  -49.9204 C.3       23 UNK        -0.0205 
      9 C9          2.7120  -16.4868  -50.3108 C.ar      23 UNK        -0.0193 
     10 C10         1.5098  -16.1600  -50.9427 C.ar      23 UNK        -0.1150 
     11 C11         0.6356  -17.1652  -51.3652 C.ar      23 UNK        -0.0193 
     12 C12         0.9620  -18.5046  -51.1352 C.ar      23 UNK        -0.1150 
     13 C13         2.1470  -18.8506  -50.4723 C.ar      23 UNK        -0.0193 
     14 C14         3.0214  -17.8309  -50.0817 C.ar      23 UNK        -0.1150 
     15 C15         2.5486  -20.3021  -50.1950 C.3       23 UNK        -0.0205 
     16 S16         1.2099  -21.5403  -50.2990 S.3       23 UNK        -0.2404 
     17 C17         0.1438  -21.1241  -48.8774 C.3       23 UNK        -0.0398 
     18 CA          0.1266  -22.2661  -47.8311 C.3       11 UNK         0.1400 
     19 N           1.2168  -22.1490  -46.8590 N.am      11 UNK        -0.5000 
     20 C           1.6472  -23.1502  -46.0795 C.2       10 UNK         0.5000 
     21 O           1.1878  -24.2908  -46.1183 O.2       10 UNK        -0.5000 
     22 CA          2.7430  -22.8035  -45.0542 C.3       10 UNK         0.1400 
     23 CB          4.1211  -22.7522  -45.7308 C.3       10 UNK        -0.1800 
     24 N           2.4908  -21.5331  -44.3718 N.am      10 UNK        -0.5000 
     25 C           1.4613  -21.3080  -43.5429 C.2       9 UNK         0.5000 
     26 O           0.6448  -22.1706  -43.2214 O.2       9 UNK        -0.5000 
     27 CA          1.2783  -19.8639  -43.0343 C.3       9 UNK         0.1400 
     28 CB          2.0779  -19.6385  -41.7433 C.3       9 UNK        -0.1800 
     29 N           1.6507  -18.8388  -44.0133 N.am      9 UNK        -0.5000 
     30 C           1.1402  -18.7216  -45.2437 C.2       8 UNK         0.5000 
     31 O           0.2806  -19.4758  -45.7037 O.2       8 UNK        -0.5000 
     32 CA          1.7606  -17.6389  -46.1415 C.3       8 UNK         0.1400 
     33 CB          3.0762  -18.1694  -46.7282 C.3       8 UNK        -0.1800 
     34 N           0.8371  -17.2565  -47.2117 N.am      8 UNK        -0.5000 
     35 C          -0.2591  -16.5211  -46.9855 C.2       7 UNK         0.5000 
     36 O          -0.4412  -15.8898  -45.9403 O.2       7 UNK        -0.5000 
     37 CA         -1.3635  -16.5304  -48.0562 C.3       7 UNK         0.1400 
     38 CB         -1.6386  -17.9607  -48.5625 C.3       7 UNK        -0.1800 
     39 N          -2.5605  -15.9862  -47.4236 N.am      7 UNK        -0.5000 
     40 C          -3.7192  -15.6556  -47.9980 C.2       6 UNK         0.5000 
     41 O          -3.9336  -15.7317  -49.2080 O.2       6 UNK        -0.5000 
     42 CA         -4.8349  -15.1665  -47.0541 C.3       6 UNK         0.1400 
     43 CB         -5.7944  -16.3181  -46.7161 C.3       6 UNK        -0.1800 
     44 N          -4.3312  -14.5949  -45.8013 N.am      6 UNK        -0.5000 
     45 C          -3.8227  -13.3642  -45.6755 C.2       5 UNK         0.5000 
     46 O          -3.6769  -12.5891  -46.6211 O.2       5 UNK        -0.5000 
     47 CA         -3.4211  -12.9095  -44.2587 C.3       5 UNK         0.1400 
     48 CB         -4.6563  -12.7023  -43.3603 C.3       5 UNK        -0.1800 
     49 N          -2.4143  -13.7565  -43.6072 N.am      5 UNK        -0.5000 
     50 C          -2.5110  -15.0226  -43.1733 C.2       4 UNK         0.5000 
     51 O          -3.5249  -15.7130  -43.2921 O.2       4 UNK        -0.5000 
     52 CA         -1.2356  -15.6048  -42.5295 C.3       4 UNK         0.1400 
     53 CB         -1.2577  -17.1403  -42.4333 C.3       4 UNK        -0.1800 
     54 N          -0.0839  -15.1930  -43.3244 N.am      4 UNK        -0.5000 
     55 C           1.0303  -14.5964  -42.8959 C.2       3 UNK         0.5000 
     56 O           1.2975  -14.3746  -41.7132 O.2       3 UNK        -0.5000 
     57 CA          1.9641  -14.0956  -44.0138 C.3       3 UNK         0.1400 
     58 CB          1.8207  -12.5765  -44.1922 C.3       3 UNK        -0.1800 
     59 N           3.3788  -14.4164  -43.8412 N.am      3 UNK        -0.5000 
     60 C           3.9166  -15.6237  -43.6288 C.2       2 UNK         0.5000 
     61 O           3.2712  -16.6391  -43.3647 O.2       2 UNK        -0.5000 
     62 CA          5.4362  -15.7190  -43.8711 C.3       2 UNK         0.1400 
     63 CB          6.0090  -17.0989  -43.4993 C.3       2 UNK        -0.1800 
     64 N           5.7363  -15.4483  -45.2809 N.am      2 UNK        -0.5000 
     65 C           5.8070  -14.2308  -45.8351 C.2       1 UNK         0.5000 
     66 O           5.6983  -13.1842  -45.1903 O.2       1 UNK        -0.5000 
     67 C          -1.2443  -22.3842  -47.1360 C.2       11 UNK         0.5000 
     68 O          -2.1144  -23.0890  -47.6470 O.2       11 UNK        -0.5000 
     69 N          -1.4162  -21.7336  -45.9781 N.am      12 UNK        -0.5000 
     70 CA         -2.5929  -21.8804  -45.1218 C.3       12 UNK         0.1400 
     71 CB         -2.5775  -20.8122  -44.0189 C.3       12 UNK        -0.1800 
     72 C          -2.7113  -23.3011  -44.5412 C.2       12 UNK         0.5000 
     73 O          -3.7883  -23.8930  -44.6127 O.2       12 UNK        -0.5000 
     74 N          -1.5938  -23.8456  -44.0381 N.am      13 UNK        -0.5000 
     75 CA         -1.4880  -25.2156  -43.5288 C.3       13 UNK         0.1400 
     76 CB         -0.1228  -25.4056  -42.8509 C.3       13 UNK        -0.1800 
     77 C          -1.7101  -26.2861  -44.6154 C.2       13 UNK         0.5000 
     78 O          -2.3477  -27.3039  -44.3440 O.2       13 UNK        -0.5000 
     79 N          -1.2094  -26.0249  -45.8308 N.am      14 UNK        -0.5000 
     80 CA         -1.3838  -26.8763  -47.0110 C.3       14 UNK         0.1400 
     81 CB         -0.3147  -26.5022  -48.0501 C.3       14 UNK        -0.1800 
     82 C          -2.7890  -26.7905  -47.6442 C.2       14 UNK         0.5000 
     83 O          -3.0913  -27.5906  -48.5299 O.2       14 UNK        -0.5000 
     84 N          -3.6010  -25.8128  -47.2127 N.am      15 UNK        -0.5000 
     85 CA         -4.9272  -25.4475  -47.7273 C.3       15 UNK         0.1400 
     86 CB         -5.9316  -26.6106  -47.5989 C.3       15 UNK        -0.1800 
     87 C          -4.8988  -24.8393  -49.1467 C.2       15 UNK         0.5000 
     88 O          -5.9467  -24.7073  -49.7800 O.2       15 UNK        -0.5000 
     89 N          -3.7160  -24.4045  -49.5997 N.am      16 UNK        -0.5000 
     90 CA         -3.5089  -23.6521  -50.8367 C.3       16 UNK         0.1400 
     91 CB         -2.0076  -23.6071  -51.1524 C.3       16 UNK        -0.1800 
     92 C          -4.0984  -22.2319  -50.7515 C.2       16 UNK         0.5000 
     93 O          -4.5303  -21.6891  -51.7685 O.2       16 UNK        -0.5000 
     94 N          -4.1526  -21.6766  -49.5315 N.am      17 UNK        -0.5000 
     95 CA         -4.8379  -20.4216  -49.2203 C.3       17 UNK         0.1400 
     96 CB         -4.5042  -20.0035  -47.7817 C.3       17 UNK        -0.1800 
     97 C          -6.3636  -20.5391  -49.3953 C.2       17 UNK         0.5000 
     98 O          -6.9835  -19.6349  -49.9530 O.2       17 UNK        -0.5000 
     99 N          -6.9313  -21.6680  -48.9438 N.am      18 UNK        -0.5000 
    100 CA        -8.3550  -21.9934  -49.0606 C.3       18 UNK         0.1400 
    101 CB        -8.6943  -23.1595  -48.1196 C.3       18 UNK        -0.1800 
    102 C         -8.7610  -22.3179  -50.5093 C.2       18 UNK         0.5000 
    103 O         -9.8490  -21.9329  -50.9381 O.2       18 UNK        -0.5000 
    104 N         -7.8584  -22.9780  -51.2489 N.am      19 UNK        -0.5000 
    105 CA        -7.9741  -23.2308  -52.6876 C.3       19 UNK         0.1400 
    106 CB        -6.9448  -24.2993  -53.0863 C.3       19 UNK        -0.1800 
    107 C         -7.7892  -21.9635  -53.5505 C.2       19 UNK         0.5000 
    108 O         -8.1299  -21.9917  -54.7336 O.2       19 UNK        -0.5000 
    109 N         -7.2533  -20.8913  -52.9470 N.am      20 UNK        -0.5000 
    110 CA        -6.9344  -19.5883  -53.5319 C.3       20 UNK         0.1400 
    111 CB        -8.2163  -18.8518  -53.9728 C.3       20 UNK        -0.1800 
    112 C         -5.8760  -19.6980  -54.6458 C.2       20 UNK         0.5000 
    113 O         -6.0707  -19.1732  -55.7438 O.2       20 UNK        -0.5000 
    114 N         -4.7643  -20.3813  -54.3360 N.am      21 UNK        -0.5000 
    115 CA        -3.6522  -20.6659  -55.2506 C.3       21 UNK         0.1400 
    116 CB        -2.6058  -21.5153  -54.5136 C.3       21 UNK        -0.1800 
    117 C         -2.9916  -19.4199  -55.8779 C.2       21 UNK         0.5000 
    118 O         -2.5098  -19.4993  -57.0089 O.2       21 UNK        -0.5000 
    119 N         -3.0054  -18.2957  -55.1508 N.am      22 UNK        -0.5000 
    120 CA        -2.5670  -16.9759  -55.6369 C.3       22 UNK         0.1400 
    121 C         -3.6585  -16.1904  -56.4266 C.2       22 UNK         0.5000 
    122 N         -4.8701  -16.7013  -56.6098 N.am      22 UNK        -0.7600 
    123 O         -3.3959  -15.0894  -56.9033 O.2       22 UNK        -0.5000 
    124 C124       -1.9635  -16.1156  -54.4960 C.3       23 UNK        -0.0398 
    125 S125       -0.3863  -16.7995  -53.8863 S.3       23 UNK        -0.2404 
    126 C126       -0.6522  -16.8068  -52.0889 C.3       23 UNK        -0.0205 
    127 H127        9.2086  -11.8796  -48.1461 H         1 UNK         0.0600 
    128 H128       10.2563  -13.2501  -48.5231 H         1 UNK         0.0600 
    129 H129       10.1752  -12.6274  -46.8716 H         1 UNK         0.0600 
    130 H130        7.0608  -12.4432  -47.9887 H         1 UNK         0.3000 
    131 H131        6.1681  -15.1725  -47.7448 H         1 UNK         0.0600 
    132 H132        4.4058  -12.6730  -47.5739 H         1 UNK         0.0800 
    133 H133        5.0444  -13.2354  -49.0858 H         1 UNK         0.0800 
    134 H134        3.6363  -14.5720  -50.6365 H         1 UNK         0.0800 
    135 H135        4.7165  -15.7761  -49.9794 H         1 UNK         0.0800 
    136 H136        1.2672  -15.1233  -51.1300 H         1 UNK         0.1150 
    137 H137        0.2835  -19.2699  -51.4825 H         1 UNK         0.1150 
    138 H138        3.9567  -18.0856  -49.6034 H         1 UNK         0.1150 
    139 H139        3.3161  -20.5793  -50.9185 H         1 UNK         0.0800 
    140 H140        3.0154  -20.3840  -49.2136 H         1 UNK         0.0800 
    141 H141       -0.8516  -20.9383  -49.2862 H         1 UNK         0.0800 
    142 H142        0.4611  -20.1855  -48.4230 H         1 UNK         0.0800 
    143 H143        0.2618  -23.2116  -48.3602 H         1 UNK         0.0600 
    144 H144        1.5903  -21.2243  -46.7091 H         1 UNK         0.3000 
    145 H145        2.7592  -23.5957  -44.3026 H         1 UNK         0.0600 
    146 H146        4.9127  -22.5857  -45.0000 H         1 UNK         0.0600 
    147 H147        4.3412  -23.6924  -46.2381 H         1 UNK         0.0600 
    148 H148        4.1782  -21.9565  -46.4748 H         1 UNK         0.0600 
    149 H149        3.1188  -20.7699  -44.5738 H         1 UNK         0.3000 
    150 H150        0.2198  -19.7312  -42.8079 H         1 UNK         0.0600 
    151 H151        3.1514  -19.7257  -41.9154 H         1 UNK         0.0600 
    152 H152        1.8045  -20.3685  -40.9803 H         1 UNK         0.0600 
    153 H153        1.8867  -18.6480  -41.3296 H         1 UNK         0.0600 
    154 H154        2.3328  -18.1460  -43.7066 H         1 UNK         0.3000 
    155 H155        1.9765  -16.7573  -45.5425 H         1 UNK         0.0600 
    156 H156        2.9133  -19.0510  -47.3458 H         1 UNK         0.0600 
    157 H157        3.7731  -18.4496  -45.9375 H         1 UNK         0.0600 
    158 H158        3.5775  -17.4171  -47.3311 H         1 UNK         0.0600 
    159 H159        0.9360  -17.7398  -48.0913 H         1 UNK         0.3000 
    160 H160       -1.0641  -15.8832  -48.8824 H         1 UNK         0.0600 
    161 H161       -1.7704  -18.6498  -47.7289 H         1 UNK         0.0600 
    162 H162       -0.8093  -18.3301  -49.1575 H         1 UNK         0.0600 
    163 H163       -2.5244  -18.0149  -49.1943 H         1 UNK         0.0600 
    164 H164       -2.4467  -15.8279  -46.4299 H         1 UNK         0.3000 
    165 H165       -5.4010  -14.3994  -47.5867 H         1 UNK         0.0600 
    166 H166       -6.6480  -15.9615  -46.1395 H         1 UNK         0.0600 
    167 H167       -6.1866  -16.7828  -47.6220 H         1 UNK         0.0600 
    168 H168       -5.2985  -17.0948  -46.1326 H         1 UNK         0.0600 
    169 H169       -4.3656  -15.1775  -44.9694 H         1 UNK         0.3000 
    170 H170       -2.9456  -11.9340  -44.3731 H         1 UNK         0.0600 
    171 H171       -5.2004  -13.6306  -43.1854 H         1 UNK         0.0600 
    172 H172       -4.3726  -12.2936  -42.3905 H         1 UNK         0.0600 
    173 H173       -5.3541  -11.9993  -43.8169 H         1 UNK         0.0600 
    174 H174       -1.5156  -13.3130  -43.4838 H         1 UNK         0.3000 
    175 H175       -1.1689  -15.1915  -41.5213 H         1 UNK         0.0600 
    176 H176       -1.3295  -17.6032  -43.4186 H         1 UNK         0.0600 
    177 H177       -0.3521  -17.5095  -41.9531 H         1 UNK         0.0600 
    178 H178       -2.1041  -17.4880  -41.8401 H         1 UNK         0.0600 
    179 H179       -0.1994  -15.3443  -44.3284 H         1 UNK         0.3000 
    180 H180        1.6599  -14.5575  -44.9536 H         1 UNK         0.0600 
    181 H181        2.1625  -12.0353  -43.3089 H         1 UNK         0.0600 
    182 H182        0.7809  -12.2978  -44.3680 H         1 UNK         0.0600 
    183 H183        2.3981  -12.2233  -45.0471 H         1 UNK         0.0600 
    184 H184        4.0261  -13.6731  -44.0782 H         1 UNK         0.3000 
    185 H185        5.9241  -14.9712  -43.2422 H         1 UNK         0.0600 
    186 H186        5.5754  -17.8956  -44.1050 H         1 UNK         0.0600 
    187 H187        7.0901  -17.1254  -43.6363 H         1 UNK         0.0600 
    188 H188        5.8089  -17.3354  -42.4534 H         1 UNK         0.0600 
    189 H189        5.8315  -16.2584  -45.8756 H         1 UNK         0.3000 
    190 H190       -0.6927  -21.0911  -45.6671 H         1 UNK         0.3000 
    191 H191       -3.4770  -21.7112  -45.7359 H         1 UNK         0.0600 
    192 H192       -2.4921  -19.8102  -44.4405 H         1 UNK         0.0600 
    193 H193       -3.4985  -20.8439  -43.4359 H         1 UNK         0.0600 
    194 H194       -1.7496  -20.9568  -43.3265 H         1 UNK         0.0600 
    195 H195       -0.7567  -23.2728  -43.9714 H         1 UNK         0.3000 
    196 H196       -2.2635  -25.3489  -42.7718 H         1 UNK         0.0600 
    197 H197       -0.0228  -26.4137  -42.4469 H         1 UNK         0.0600 
    198 H198        0.0053  -24.7089  -42.0222 H         1 UNK         0.0600 
    199 H199        0.6993  -25.2475  -43.5495 H         1 UNK         0.0600 
    200 H200       -0.6248  -25.2037  -45.9479 H         1 UNK         0.3000 
    201 H201       -1.2221  -27.9148  -46.7150 H         1 UNK         0.0600 
    202 H202       -0.3685  -27.1545  -48.9226 H         1 UNK         0.0600 
    203 H203        0.6895  -26.5979  -47.6370 H         1 UNK         0.0600 
    204 H204       -0.4386  -25.4774  -48.4001 H         1 UNK         0.0600 
    205 H205       -3.2457  -25.2053  -46.4853 H         1 UNK         0.3000 
    206 H206       -5.2782  -24.6470  -47.0747 H         1 UNK         0.0600 
    207 H207       -5.9309  -27.0225  -46.5897 H         1 UNK         0.0600 
    208 H208       -6.9473  -26.2743  -47.8098 H         1 UNK         0.0600 
    209 H209       -5.7096  -27.4203  -48.2941 H         1 UNK         0.0600 
    210 H210       -2.9287  -24.4479  -48.9637 H         1 UNK         0.3000 
    211 H211       -4.0129  -24.1784  -51.6484 H         1 UNK         0.0600 
    212 H212       -1.4429  -23.1357  -50.3499 H         1 UNK         0.0600 
    213 H213       -1.8114  -23.0442  -52.0650 H         1 UNK         0.0600 
    214 H214       -1.6061  -24.6103  -51.2963 H         1 UNK         0.0600 
    215 H215       -3.7303  -22.1811  -48.7616 H         1 UNK         0.3000 
    216 H216       -4.4655  -19.6545  -49.9028 H         1 UNK         0.0600 
    217 H217       -4.7745  -18.9618  -47.6127 H         1 UNK         0.0600 
    218 H218       -3.4413  -20.1041  -47.5738 H         1 UNK         0.0600 
    219 H219       -5.0428  -20.6039  -47.0481 H         1 UNK         0.0600 
    220 H220       -6.3416  -22.3722  -48.5286 H         1 UNK         0.3000 
    221 H221       -8.9304  -21.1218  -48.7410 H         1 UNK         0.0600 
    222 H222       -8.1580  -24.0692  -48.3897 H         1 UNK         0.0600 
    223 H223       -8.4470  -22.9180  -47.0858 H         1 UNK         0.0600 
    224 H224       -9.7603  -23.3876  -48.1534 H         1 UNK         0.0600 
    225 H225       -7.0295  -23.3416  -50.7901 H         1 UNK         0.3000 
    226 H226       -8.9728  -23.6245  -52.8864 H         1 UNK         0.0600 
    227 H227       -7.0698  -24.5911  -54.1298 H         1 UNK         0.0600 
    228 H228       -5.9252  -23.9328  -52.9708 H         1 UNK         0.0600 
    229 H229       -7.0508  -25.2000  -52.4812 H         1 UNK         0.0600 
    230 H230       -6.9849  -20.9994  -51.9788 H         1 UNK         0.3000 
    231 H231       -6.4779  -19.0001  -52.7345 H         1 UNK         0.0600 
    232 H232       -8.7131  -19.3568  -54.8015 H         1 UNK         0.0600 
    233 H233       -7.9887  -17.8364  -54.2993 H         1 UNK         0.0600 
    234 H234       -8.9279  -18.7764  -53.1506 H         1 UNK         0.0600 
    235 H235       -4.6997  -20.8014  -53.4108 H         1 UNK         0.3000 
    236 H236       -4.0561  -21.2621  -56.0711 H         1 UNK         0.0600 
    237 H237       -3.0358  -22.4574  -54.1731 H         1 UNK         0.0600 
    238 H238       -1.7660  -21.7589  -55.1656 H         1 UNK         0.0600 
    239 H239       -2.2070  -20.9929  -53.6430 H         1 UNK         0.0600 
    240 H240       -3.4271  -18.3219  -54.2351 H         1 UNK         0.3000 
    241 H241       -1.7693  -17.1342  -56.3653 H         1 UNK         0.0600 
    242 H242       -5.1271  -17.6210  -56.2621 H         1 UNK         0.3800 
    243 H243       -5.5483  -16.1698  -57.1319 H         1 UNK         0.3800 
    244 H244       -1.7507  -15.1018  -54.8394 H         1 UNK         0.0800 
    245 H245       -2.6773  -16.0142  -53.6771 H         1 UNK         0.0800 
    246 H246       -1.4395  -17.5192  -51.8372 H         1 UNK         0.0800 
    247 H247       -1.0032  -15.8258  -51.7643 H         1 UNK         0.0800 
@<TRIPOS>BOND
     1    1    2 1    
     2    1  127 1    
     3    1  128 1    
     4    1  129 1    
     5    2    3 2    
     6    2    4 am   BACKBONE|DICT|INTERRES
     7    4    5 1    
     8    4  130 1    
     9    5    6 1    
    10    5   65 1    
    11    5  131 1    
    12    6    7 1    
    13    6  132 1    
    14    6  133 1    
    15    7    8 1    
    16    8    9 1    
    17    8  134 1    
    18    8  135 1    
    19    9   10 ar   
    20    9   14 ar   
    21   10   11 ar   
    22   10  136 1    
    23   11   12 ar   
    24   11  126 1    
    25   12   13 ar   
    26   12  137 1    
    27   13   14 ar   
    28   13   15 1    
    29   14  138 1    
    30   15   16 1    
    31   15  139 1    
    32   15  140 1    
    33   16   17 1    
    34   17   18 1    
    35   17  141 1    
    36   17  142 1    
    37   18   19 1    
    38   18   67 1    
    39   18  143 1    
    40   19   20 am   BACKBONE|DICT|INTERRES
    41   19  144 1    
    42   20   21 2    
    43   20   22 1    
    44   22   23 1    
    45   22   24 1    
    46   22  145 1    
    47   23  146 1    
    48   23  147 1    
    49   23  148 1    
    50   24   25 am   BACKBONE|DICT|INTERRES
    51   24  149 1    
    52   25   26 2    
    53   25   27 1    
    54   27   28 1    
    55   27   29 1    
    56   27  150 1    
    57   28  151 1    
    58   28  152 1    
    59   28  153 1    
    60   29   30 am   BACKBONE|DICT|INTERRES
    61   29  154 1    
    62   30   31 2    
    63   30   32 1    
    64   32   33 1    
    65   32   34 1    
    66   32  155 1    
    67   33  156 1    
    68   33  157 1    
    69   33  158 1    
    70   34   35 am   BACKBONE|DICT|INTERRES
    71   34  159 1    
    72   35   36 2    
    73   35   37 1    
    74   37   38 1    
    75   37   39 1    
    76   37  160 1    
    77   38  161 1    
    78   38  162 1    
    79   38  163 1    
    80   39   40 am   BACKBONE|DICT|INTERRES
    81   39  164 1    
    82   40   41 2    
    83   40   42 1    
    84   42   43 1    
    85   42   44 1    
    86   42  165 1    
    87   43  166 1    
    88   43  167 1    
    89   43  168 1    
    90   44   45 am   BACKBONE|DICT|INTERRES
    91   44  169 1    
    92   45   46 2    
    93   45   47 1    
    94   47   48 1    
    95   47   49 1    
    96   47  170 1    
    97   48  171 1    
    98   48  172 1    
    99   48  173 1    
   100   49   50 am   BACKBONE|DICT|INTERRES
   101   49  174 1    
   102   50   51 2    
   103   50   52 1    
   104   52   53 1    
   105   52   54 1    
   106   52  175 1    
   107   53  176 1    
   108   53  177 1    
   109   53  178 1    
   110   54   55 am   BACKBONE|DICT|INTERRES
   111   54  179 1    
   112   55   56 2    
   113   55   57 1    
   114   57   58 1    
   115   57   59 1    
   116   57  180 1    
   117   58  181 1    
   118   58  182 1    
   119   58  183 1    
   120   59   60 am   BACKBONE|DICT|INTERRES
   121   59  184 1    
   122   60   61 2    
   123   60   62 1    
   124   62   63 1    
   125   62   64 1    
   126   62  185 1    
   127   63  186 1    
   128   63  187 1    
   129   63  188 1    
   130   64   65 am   BACKBONE|DICT|INTERRES
   131   64  189 1    
   132   65   66 2    
   133   67   68 2    
   134   67   69 am   BACKBONE|DICT|INTERRES
   135   69   70 1    
   136   69  190 1    
   137   70   71 1    
   138   70   72 1    
   139   70  191 1    
   140   71  192 1    
   141   71  193 1    
   142   71  194 1    
   143   72   73 2    
   144   72   74 am   BACKBONE|DICT|INTERRES
   145   74   75 1    
   146   74  195 1    
   147   75   76 1    
   148   75   77 1    
   149   75  196 1    
   150   76  197 1    
   151   76  198 1    
   152   76  199 1    
   153   77   78 2    
   154   77   79 am   BACKBONE|DICT|INTERRES
   155   79   80 1    
   156   79  200 1    
   157   80   81 1    
   158   80   82 1    
   159   80  201 1    
   160   81  202 1    
   161   81  203 1    
   162   81  204 1    
   163   82   83 2    
   164   82   84 am   BACKBONE|DICT|INTERRES
   165   84   85 1    
   166   84  205 1    
   167   85   86 1    
   168   85   87 1    
   169   85  206 1    
   170   86  207 1    
   171   86  208 1    
   172   86  209 1    
   173   87   88 2    
   174   87   89 am   BACKBONE|DICT|INTERRES
   175   89   90 1    
   176   89  210 1    
   177   90   91 1    
   178   90   92 1    
   179   90  211 1    
   180   91  212 1    
   181   91  213 1    
   182   91  214 1    
   183   92   93 2    
   184   92   94 am   BACKBONE|DICT|INTERRES
   185   94   95 1    
   186   94  215 1    
   187   95   96 1    
   188   95   97 1    
   189   95  216 1    
   190   96  217 1    
   191   96  218 1    
   192   96  219 1    
   193   97   98 2    
   194   97   99 am   BACKBONE|DICT|INTERRES
   195   99  100 1    
   196   99  220 1    
   197  100  101 1    
   198  100  102 1    
   199  100  221 1    
   200  101  222 1    
   201  101  223 1    
   202  101  224 1    
   203  102  103 2    
   204  102  104 am   BACKBONE|DICT|INTERRES
   205  104  105 1    
   206  104  225 1    
   207  105  106 1    
   208  105  107 1    
   209  105  226 1    
   210  106  227 1    
   211  106  228 1    
   212  106  229 1    
   213  107  108 2    
   214  107  109 am   BACKBONE|DICT|INTERRES
   215  109  110 1    
   216  109  230 1    
   217  110  111 1    
   218  110  112 1    
   219  110  231 1    
   220  111  232 1    
   221  111  233 1    
   222  111  234 1    
   223  112  113 2    
   224  112  114 am   BACKBONE|DICT|INTERRES
   225  114  115 1    
   226  114  235 1    
   227  115  116 1    
   228  115  117 1    
   229  115  236 1    
   230  116  237 1    
   231  116  238 1    
   232  116  239 1    
   233  117  118 2    
   234  117  119 am   BACKBONE|DICT|INTERRES
   235  119  120 1    
   236  119  240 1    
   237  120  121 1    
   238  120  124 1    
   239  120  241 1    
   240  121  122 am   BACKBONE|DICT|INTERRES
   241  121  123 2    
   242  122  242 1    
   243  122  243 1    
   244  124  125 1    
   245  124  244 1    
   246  124  245 1    
   247  125  126 1    
   248  126  246 1    
   249  126  247 1    
@<TRIPOS>SUBSTRUCTURE
     1 UNK         1 GROUP             0       ****    0 ROOT    
