@<TRIPOS>MOLECULE
3R540
247   249    1
SMALL
USER_CHARGES


@<TRIPOS>ATOM
      1 CA          4.1115  -10.3293  -45.3597 C.3       0 UNK        -0.1800 
      2 C           3.0935  -11.4572  -45.4374 C.2       0 UNK         0.5000 
      3 O           2.7748  -12.0576  -44.4095 O.2       0 UNK        -0.5000 
      4 N           2.5893  -11.7330  -46.6506 N.am      1 UNK        -0.5000 
      5 CA          1.6239  -12.7845  -47.0027 C.3       1 UNK         0.1400 
      6 C6          1.2512  -12.7160  -48.5088 C.3       23 UNK        -0.0398 
      7 S7          0.3160  -14.1676  -49.1049 S.3       23 UNK        -0.2404 
      8 C8          1.3870  -14.7782  -50.4414 C.3       23 UNK        -0.0205 
      9 C9          0.8197  -16.0455  -51.0626 C.ar      23 UNK        -0.0193 
     10 C10        -0.1449  -15.9681  -52.0726 C.ar      23 UNK        -0.1150 
     11 C11        -0.6592  -17.1317  -52.6528 C.ar      23 UNK        -0.0193 
     12 C12        -0.2079  -18.3771  -52.2086 C.ar      23 UNK        -0.1150 
     13 C13         0.7450  -18.4716  -51.1915 C.ar      23 UNK        -0.0193 
     14 C14         1.2636  -17.2987  -50.6307 C.ar      23 UNK        -0.1150 
     15 C15         1.2137  -19.8481  -50.7296 C.3       23 UNK        -0.0205 
     16 S16         1.3607  -20.0119  -48.9194 S.3       23 UNK        -0.2404 
     17 C17        -0.3583  -19.7525  -48.3623 C.3       23 UNK        -0.0398 
     18 CA         -1.1251  -21.0699  -48.1098 C.3       11 UNK         0.1400 
     19 N          -0.3770  -21.9855  -47.2432 N.am      11 UNK        -0.5000 
     20 C          -0.7706  -23.1719  -46.7600 C.2       10 UNK         0.5000 
     21 O          -1.9052  -23.6314  -46.9021 O.2       10 UNK        -0.5000 
     22 CA          0.2930  -24.0092  -46.0171 C.3       10 UNK         0.1400 
     23 CB          0.7119  -25.2097  -46.8799 C.3       10 UNK        -0.1800 
     24 N           1.4994  -23.2550  -45.6572 N.am      10 UNK        -0.5000 
     25 C           1.5617  -22.3231  -44.6973 C.2       9 UNK         0.5000 
     26 O           0.6055  -22.0373  -43.9766 O.2       9 UNK        -0.5000 
     27 CA          2.9060  -21.5773  -44.5637 C.3       9 UNK         0.1400 
     28 CB          3.2289  -20.7969  -45.8490 C.3       9 UNK        -0.1800 
     29 N           2.8938  -20.6290  -43.4534 N.am      9 UNK        -0.5000 
     30 C           3.0659  -20.9398  -42.1629 C.2       8 UNK         0.5000 
     31 O           3.3862  -22.0593  -41.7603 O.2       8 UNK        -0.5000 
     32 CA          2.8143  -19.8039  -41.1526 C.3       8 UNK         0.1400 
     33 CB          4.0242  -18.8605  -41.0673 C.3       8 UNK        -0.1800 
     34 N           1.6205  -19.0332  -41.5003 N.am      8 UNK        -0.5000 
     35 C           0.3651  -19.4892  -41.3805 C.2       7 UNK         0.5000 
     36 O           0.0741  -20.5485  -40.8249 O.2       7 UNK        -0.5000 
     37 CA         -0.7550  -18.6211  -41.9796 C.3       7 UNK         0.1400 
     38 CB         -1.3579  -17.6940  -40.9133 C.3       7 UNK        -0.1800 
     39 N          -0.2787  -17.8154  -43.1037 N.am      7 UNK        -0.5000 
     40 C          -0.2146  -18.2476  -44.3703 C.2       6 UNK         0.5000 
     41 O          -0.6145  -19.3500  -44.7427 O.2       6 UNK        -0.5000 
     42 CA          0.3797  -17.2845  -45.4125 C.3       6 UNK         0.1400 
     43 CB         -0.7508  -16.5348  -46.1307 C.3       6 UNK        -0.1800 
     44 N           1.3402  -16.3337  -44.8515 N.am      6 UNK        -0.5000 
     45 C           2.5503  -16.6951  -44.4015 C.2       5 UNK         0.5000 
     46 O           2.9620  -17.8545  -44.4243 O.2       5 UNK        -0.5000 
     47 CA          3.4297  -15.6087  -43.7594 C.3       5 UNK         0.1400 
     48 CB          4.3611  -14.9629  -44.7941 C.3       5 UNK        -0.1800 
     49 N           2.6858  -14.5771  -43.0304 N.am      5 UNK        -0.5000 
     50 C           1.9441  -14.8353  -41.9427 C.2       4 UNK         0.5000 
     51 O           1.6635  -15.9774  -41.5748 O.2       4 UNK        -0.5000 
     52 CA          1.4704  -13.6514  -41.0889 C.3       4 UNK         0.1400 
     53 CB          2.5201  -13.3654  -39.9949 C.3       4 UNK        -0.1800 
     54 N           1.1878  -12.4429  -41.8669 N.am      4 UNK        -0.5000 
     55 C           0.5219  -11.3855  -41.3796 C.2       3 UNK         0.5000 
     56 O           0.0704  -11.3249  -40.2348 O.2       3 UNK        -0.5000 
     57 CA          0.3025  -10.1957  -42.3285 C.3       3 UNK         0.1400 
     58 CB          1.5740   -9.3402  -42.4401 C.3       3 UNK        -0.1800 
     59 N          -0.1331  -10.6186  -43.6576 N.am      3 UNK        -0.5000 
     60 C          -1.3492  -11.1122  -43.9332 C.2       2 UNK         0.5000 
     61 O          -2.2397  -11.2419  -43.0924 O.2       2 UNK        -0.5000 
     62 CA         -1.6342  -11.5125  -45.3938 C.3       2 UNK         0.1400 
     63 CB         -2.5105  -10.4537  -46.0812 C.3       2 UNK        -0.1800 
     64 N          -0.4232  -11.7094  -46.1914 N.am      2 UNK        -0.5000 
     65 C           0.3878  -12.7689  -46.0790 C.2       1 UNK         0.5000 
     66 O           0.2292  -13.6710  -45.2551 O.2       1 UNK        -0.5000 
     67 C          -2.5563  -20.7925  -47.6122 C.2       11 UNK         0.5000 
     68 O          -3.5071  -21.0560  -48.3483 O.2       11 UNK        -0.5000 
     69 N          -2.6839  -20.3186  -46.3678 N.am      12 UNK        -0.5000 
     70 CA         -3.9689  -20.1225  -45.7000 C.3       12 UNK         0.1400 
     71 CB         -3.9438  -18.8014  -44.9153 C.3       12 UNK        -0.1800 
     72 C          -4.3005  -21.2947  -44.7623 C.2       12 UNK         0.5000 
     73 O          -5.4780  -21.6162  -44.6064 O.2       12 UNK        -0.5000 
     74 N          -3.2756  -21.9150  -44.1558 N.am      13 UNK        -0.5000 
     75 CA         -3.4309  -22.9509  -43.1287 C.3       13 UNK         0.1400 
     76 CB         -2.0757  -23.2224  -42.4626 C.3       13 UNK        -0.1800 
     77 C          -4.0467  -24.2643  -43.6456 C.2       13 UNK         0.5000 
     78 O          -4.8410  -24.8780  -42.9321 O.2       13 UNK        -0.5000 
     79 N          -3.6831  -24.6605  -44.8712 N.am      14 UNK        -0.5000 
     80 CA         -4.2105  -25.8369  -45.5677 C.3       14 UNK         0.1400 
     81 CB         -3.0340  -26.7495  -45.9537 C.3       14 UNK        -0.1800 
     82 C          -5.0264  -25.4348  -46.8120 C.2       14 UNK         0.5000 
     83 O          -5.4334  -26.3120  -47.5745 O.2       14 UNK        -0.5000 
     84 N          -5.2343  -24.1222  -47.0032 N.am      15 UNK        -0.5000 
     85 CA         -5.8999  -23.4747  -48.1375 C.3       15 UNK         0.1400 
     86 CB         -7.3974  -23.8415  -48.1839 C.3       15 UNK        -0.1800 
     87 C          -5.1857  -23.7133  -49.4849 C.2       15 UNK         0.5000 
     88 O          -5.8321  -23.6932  -50.5352 O.2       15 UNK        -0.5000 
     89 N          -3.8566  -23.8992  -49.4523 N.am      16 UNK        -0.5000 
     90 CA         -3.0259  -24.1297  -50.6370 C.3       16 UNK         0.1400 
     91 CB         -1.6025  -24.5187  -50.2114 C.3       16 UNK        -0.1800 
     92 C          -3.0148  -22.9507  -51.6320 C.2       16 UNK         0.5000 
     93 O          -2.7810  -23.1781  -52.8164 O.2       16 UNK        -0.5000 
     94 N          -3.3175  -21.7327  -51.1567 N.am      17 UNK        -0.5000 
     95 CA         -3.5076  -20.5369  -51.9816 C.3       17 UNK         0.1400 
     96 CB         -3.4756  -19.2917  -51.0832 C.3       17 UNK        -0.1800 
     97 C          -4.8084  -20.5494  -52.8073 C.2       17 UNK         0.5000 
     98 O          -4.9040  -19.7954  -53.7758 O.2       17 UNK        -0.5000 
     99 N          -5.7873  -21.3688  -52.4008 N.am      18 UNK        -0.5000 
    100 CA        -7.0551  -21.5579  -53.1024 C.3       18 UNK         0.1400 
    101 CB        -8.2024  -21.5820  -52.0796 C.3       18 UNK        -0.1800 
    102 C         -7.0346  -22.8560  -53.9241 C.2       18 UNK         0.5000 
    103 O         -7.5368  -22.8692  -55.0484 O.2       18 UNK        -0.5000 
    104 N         -6.4605  -23.9242  -53.3518 N.am      19 UNK        -0.5000 
    105 CA        -6.3718  -25.2482  -53.9691 C.3       19 UNK         0.1400 
    106 CB        -6.0132  -26.2797  -52.8887 C.3       19 UNK        -0.1800 
    107 C         -5.3707  -25.3221  -55.1385 C.2       19 UNK         0.5000 
    108 O         -5.5607  -26.1388  -56.0412 O.2       19 UNK        -0.5000 
    109 N         -4.3292  -24.4842  -55.1058 N.am      20 UNK        -0.5000 
    110 CA        -3.2740  -24.3966  -56.1101 C.3       20 UNK         0.1400 
    111 CB        -2.2333  -25.5130  -55.8696 C.3       20 UNK        -0.1800 
    112 C         -2.6796  -22.9752  -56.0857 C.2       20 UNK         0.5000 
    113 O         -3.3996  -22.0255  -55.7722 O.2       20 UNK        -0.5000 
    114 N         -1.3822  -22.8571  -56.4037 N.am      21 UNK        -0.5000 
    115 CA        -0.5684  -21.6392  -56.3782 C.3       21 UNK         0.1400 
    116 CB        -0.3601  -21.1596  -54.9230 C.3       21 UNK        -0.1800 
    117 C         -1.0992  -20.5518  -57.3376 C.2       21 UNK         0.5000 
    118 O         -1.0558  -20.7572  -58.5521 O.2       21 UNK        -0.5000 
    119 N         -1.5365  -19.4145  -56.7847 N.am      22 UNK        -0.5000 
    120 CA        -1.9912  -18.2091  -57.4935 C.3       22 UNK         0.1400 
    121 C         -3.1903  -18.4563  -58.4523 C.2       22 UNK         0.5000 
    122 N         -3.1708  -17.8727  -59.6433 N.am      22 UNK        -0.7600 
    123 O         -4.1594  -19.1287  -58.1093 O.2       22 UNK        -0.5000 
    124 C124       -2.3273  -17.0650  -56.5011 C.3       23 UNK        -0.0398 
    125 S125       -0.9475  -16.6809  -55.3646 S.3       23 UNK        -0.2404 
    126 C126       -1.7064  -17.0502  -53.7526 C.3       23 UNK        -0.0205 
    127 H127        3.6764   -9.4623  -44.8636 H         1 UNK         0.0600 
    128 H128        4.4515  -10.0218  -46.3488 H         1 UNK         0.0600 
    129 H129        4.9821  -10.6502  -44.7877 H         1 UNK         0.0600 
    130 H130        2.9100  -11.1743  -47.4285 H         1 UNK         0.3000 
    131 H131        2.1249  -13.7388  -46.8409 H         1 UNK         0.0600 
    132 H132        0.6746  -11.8177  -48.7341 H         1 UNK         0.0800 
    133 H133        2.1633  -12.6299  -49.1009 H         1 UNK         0.0800 
    134 H134        2.3877  -14.9667  -50.0490 H         1 UNK         0.0800 
    135 H135        1.4922  -14.0064  -51.2056 H         1 UNK         0.0800 
    136 H136       -0.4921  -15.0018  -52.4109 H         1 UNK         0.1150 
    137 H137       -0.6015  -19.2777  -52.6553 H         1 UNK         0.1150 
    138 H138        2.0096  -17.3604  -49.8510 H         1 UNK         0.1150 
    139 H139        0.5402  -20.6269  -51.0915 H         1 UNK         0.0800 
    140 H140        2.1872  -20.0495  -51.1780 H         1 UNK         0.0800 
    141 H141       -0.8822  -19.1190  -49.0762 H         1 UNK         0.0800 
    142 H142       -0.3117  -19.1764  -47.4433 H         1 UNK         0.0800 
    143 H143       -1.2218  -21.5658  -49.0751 H         1 UNK         0.0600 
    144 H144        0.5757  -21.7095  -47.0597 H         1 UNK         0.3000 
    145 H145       -0.1680  -24.3890  -45.1038 H         1 UNK         0.0600 
    146 H146       -0.1484  -25.8185  -47.1574 H         1 UNK         0.0600 
    147 H147        1.4049  -25.8582  -46.3436 H         1 UNK         0.0600 
    148 H148        1.1955  -24.8912  -47.8043 H         1 UNK         0.0600 
    149 H149        2.3248  -23.4468  -46.2068 H         1 UNK         0.3000 
    150 H150        3.6914  -22.3164  -44.3937 H         1 UNK         0.0600 
    151 H151        2.4503  -20.0679  -46.0769 H         1 UNK         0.0600 
    152 H152        3.3271  -21.4577  -46.7107 H         1 UNK         0.0600 
    153 H153        4.1698  -20.2546  -45.7535 H         1 UNK         0.0600 
    154 H154        2.6617  -19.6709  -43.6937 H         1 UNK         0.3000 
    155 H155        2.6623  -20.2520  -40.1684 H         1 UNK         0.0600 
    156 H156        4.2449  -18.3973  -42.0290 H         1 UNK         0.0600 
    157 H157        4.9170  -19.4018  -40.7523 H         1 UNK         0.0600 
    158 H158        3.8529  -18.0633  -40.3435 H         1 UNK         0.0600 
    159 H159        1.7645  -18.1143  -41.8996 H         1 UNK         0.3000 
    160 H160       -1.5427  -19.2940  -42.3253 H         1 UNK         0.0600 
    161 H161       -0.6167  -17.0024  -40.5117 H         1 UNK         0.0600 
    162 H162       -1.7553  -18.2702  -40.0768 H         1 UNK         0.0600 
    163 H163       -2.1795  -17.1058  -41.3223 H         1 UNK         0.0600 
    164 H164        0.1111  -16.9097  -42.8769 H         1 UNK         0.3000 
    165 H165        0.9171  -17.8838  -46.1487 H         1 UNK         0.0600 
    166 H166       -0.3577  -15.9093  -46.9290 H         1 UNK         0.0600 
    167 H167       -1.4618  -17.2266  -46.5834 H         1 UNK         0.0600 
    168 H168       -1.3093  -15.8965  -45.4452 H         1 UNK         0.0600 
    169 H169        1.0493  -15.3604  -44.8009 H         1 UNK         0.3000 
    170 H170        4.0648  -16.1123  -43.0277 H         1 UNK         0.0600 
    171 H171        5.0350  -14.2454  -44.3259 H         1 UNK         0.0600 
    172 H172        3.8050  -14.4419  -45.5695 H         1 UNK         0.0600 
    173 H173        4.9780  -15.7161  -45.2859 H         1 UNK         0.0600 
    174 H174        2.8419  -13.6196  -43.3307 H         1 UNK         0.3000 
    175 H175        0.5431  -13.9682  -40.6068 H         1 UNK         0.0600 
    176 H176        2.7819  -14.2759  -39.4538 H         1 UNK         0.0600 
    177 H177        3.4392  -12.9613  -40.4209 H         1 UNK         0.0600 
    178 H178        2.1537  -12.6540  -39.2554 H         1 UNK         0.0600 
    179 H179        1.5111  -12.4206  -42.8285 H         1 UNK         0.3000 
    180 H180       -0.4827   -9.5676  -41.9019 H         1 UNK         0.0600 
    181 H181        2.4244   -9.9203  -42.7964 H         1 UNK         0.0600 
    182 H182        1.8486   -8.9299  -41.4676 H         1 UNK         0.0600 
    183 H183        1.4295   -8.4991  -43.1183 H         1 UNK         0.0600 
    184 H184        0.5482  -10.5754  -44.4001 H         1 UNK         0.3000 
    185 H185       -2.1894  -12.4529  -45.3721 H         1 UNK         0.0600 
    186 H186       -3.4423  -10.3020  -45.5347 H         1 UNK         0.0600 
    187 H187       -2.0045   -9.4892  -46.1409 H         1 UNK         0.0600 
    188 H188       -2.7761  -10.7581  -47.0938 H         1 UNK         0.0600 
    189 H189       -0.2046  -10.9890  -46.8638 H         1 UNK         0.3000 
    190 H190       -1.8508  -20.1109  -45.8183 H         1 UNK         0.3000 
    191 H191       -4.7709  -20.0509  -46.4381 H         1 UNK         0.0600 
    192 H192       -3.7019  -17.9605  -45.5651 H         1 UNK         0.0600 
    193 H193       -4.9176  -18.5971  -44.4688 H         1 UNK         0.0600 
    194 H194       -3.2142  -18.8221  -44.1063 H         1 UNK         0.0600 
    195 H195       -2.3336  -21.5990  -44.3401 H         1 UNK         0.3000 
    196 H196       -4.1028  -22.5538  -42.3647 H         1 UNK         0.0600 
    197 H197       -2.1827  -23.9171  -41.6287 H         1 UNK         0.0600 
    198 H198       -1.6370  -22.3061  -42.0680 H         1 UNK         0.0600 
    199 H199       -1.3644  -23.6602  -43.1620 H         1 UNK         0.0600 
    200 H200       -3.0207  -24.1032  -45.4033 H         1 UNK         0.3000 
    201 H201       -4.8807  -26.4028  -44.9180 H         1 UNK         0.0600 
    202 H202       -3.3909  -27.6938  -46.3663 H         1 UNK         0.0600 
    203 H203       -2.4146  -26.9866  -45.0886 H         1 UNK         0.0600 
    204 H204       -2.3987  -26.2852  -46.7071 H         1 UNK         0.0600 
    205 H205       -4.8731  -23.4959  -46.2985 H         1 UNK         0.3000 
    206 H206       -5.8351  -22.4022  -47.9507 H         1 UNK         0.0600 
    207 H207       -7.8765  -23.6650  -47.2210 H         1 UNK         0.0600 
    208 H208       -7.9253  -23.2372  -48.9224 H         1 UNK         0.0600 
    209 H209       -7.5511  -24.8876  -48.4500 H         1 UNK         0.0600 
    210 H210       -3.3812  -23.8638  -48.5582 H         1 UNK         0.3000 
    211 H211       -3.4513  -24.9846  -51.1641 H         1 UNK         0.0600 
    212 H212       -1.0884  -23.7050  -49.7053 H         1 UNK         0.0600 
    213 H213       -1.0003  -24.7921  -51.0787 H         1 UNK         0.0600 
    214 H214       -1.6119  -25.3769  -49.5391 H         1 UNK         0.0600 
    215 H215       -3.5035  -21.6277  -50.1626 H         1 UNK         0.3000 
    216 H216       -2.6779  -20.4722  -52.6848 H         1 UNK         0.0600 
    217 H217       -3.6048  -18.3796  -51.6668 H         1 UNK         0.0600 
    218 H218       -2.5240  -19.2073  -50.5654 H         1 UNK         0.0600 
    219 H219       -4.2679  -19.3149  -50.3341 H         1 UNK         0.0600 
    220 H220       -5.6229  -21.9713  -51.6031 H         1 UNK         0.3000 
    221 H221       -7.2382  -20.7292  -53.7896 H         1 UNK         0.0600 
    222 H222       -8.0981  -22.4029  -51.3696 H         1 UNK         0.0600 
    223 H223       -8.2422  -20.6523  -51.5119 H         1 UNK         0.0600 
    224 H224       -9.1653  -21.7005  -52.5780 H         1 UNK         0.0600 
    225 H225       -6.1284  -23.8474  -52.3945 H         1 UNK         0.3000 
    226 H226       -7.3577  -25.5030  -54.3638 H         1 UNK         0.0600 
    227 H227       -6.0091  -27.2899  -53.2998 H         1 UNK         0.0600 
    228 H228       -5.0254  -26.0935  -52.4686 H         1 UNK         0.0600 
    229 H229       -6.7338  -26.2636  -52.0706 H         1 UNK         0.0600 
    230 H230       -4.2435  -23.8162  -54.3476 H         1 UNK         0.3000 
    231 H231       -3.7150  -24.5325  -57.0995 H         1 UNK         0.0600 
    232 H232       -1.7109  -25.3725  -54.9221 H         1 UNK         0.0600 
    233 H233       -1.4879  -25.5457  -56.6645 H         1 UNK         0.0600 
    234 H234       -2.7047  -26.4955  -55.8436 H         1 UNK         0.0600 
    235 H235       -0.8900  -23.6951  -56.6780 H         1 UNK         0.3000 
    236 H236        0.4119  -21.9221  -56.7643 H         1 UNK         0.0600 
    237 H237        0.0931  -21.9431  -54.3155 H         1 UNK         0.0600 
    238 H238        0.3054  -20.2961  -54.8816 H         1 UNK         0.0600 
    239 H239       -1.2998  -20.8829  -54.4481 H         1 UNK         0.0600 
    240 H240       -1.5563  -19.3564  -55.7787 H         1 UNK         0.3000 
    241 H241       -1.1453  -17.8809  -58.1006 H         1 UNK         0.0600 
    242 H242       -3.9500  -18.0107  -60.2684 H         1 UNK         0.3800 
    243 H243       -2.3912  -17.3081  -59.9447 H         1 UNK         0.3800 
    244 H244       -3.2215  -17.3121  -55.9255 H         1 UNK         0.0800 
    245 H245       -2.5663  -16.1514  -57.0483 H         1 UNK         0.0800 
    246 H246       -2.2572  -17.9902  -53.8142 H         1 UNK         0.0800 
    247 H247       -2.4392  -16.2789  -53.5108 H         1 UNK         0.0800 
@<TRIPOS>BOND
     1    1    2 1    
     2    1  127 1    
     3    1  128 1    
     4    1  129 1    
     5    2    3 2    
     6    2    4 am   BACKBONE|DICT|INTERRES
     7    4    5 1    
     8    4  130 1    
     9    5    6 1    
    10    5   65 1    
    11    5  131 1    
    12    6    7 1    
    13    6  132 1    
    14    6  133 1    
    15    7    8 1    
    16    8    9 1    
    17    8  134 1    
    18    8  135 1    
    19    9   10 ar   
    20    9   14 ar   
    21   10   11 ar   
    22   10  136 1    
    23   11   12 ar   
    24   11  126 1    
    25   12   13 ar   
    26   12  137 1    
    27   13   14 ar   
    28   13   15 1    
    29   14  138 1    
    30   15   16 1    
    31   15  139 1    
    32   15  140 1    
    33   16   17 1    
    34   17   18 1    
    35   17  141 1    
    36   17  142 1    
    37   18   19 1    
    38   18   67 1    
    39   18  143 1    
    40   19   20 am   BACKBONE|DICT|INTERRES
    41   19  144 1    
    42   20   21 2    
    43   20   22 1    
    44   22   23 1    
    45   22   24 1    
    46   22  145 1    
    47   23  146 1    
    48   23  147 1    
    49   23  148 1    
    50   24   25 am   BACKBONE|DICT|INTERRES
    51   24  149 1    
    52   25   26 2    
    53   25   27 1    
    54   27   28 1    
    55   27   29 1    
    56   27  150 1    
    57   28  151 1    
    58   28  152 1    
    59   28  153 1    
    60   29   30 am   BACKBONE|DICT|INTERRES
    61   29  154 1    
    62   30   31 2    
    63   30   32 1    
    64   32   33 1    
    65   32   34 1    
    66   32  155 1    
    67   33  156 1    
    68   33  157 1    
    69   33  158 1    
    70   34   35 am   BACKBONE|DICT|INTERRES
    71   34  159 1    
    72   35   36 2    
    73   35   37 1    
    74   37   38 1    
    75   37   39 1    
    76   37  160 1    
    77   38  161 1    
    78   38  162 1    
    79   38  163 1    
    80   39   40 am   BACKBONE|DICT|INTERRES
    81   39  164 1    
    82   40   41 2    
    83   40   42 1    
    84   42   43 1    
    85   42   44 1    
    86   42  165 1    
    87   43  166 1    
    88   43  167 1    
    89   43  168 1    
    90   44   45 am   BACKBONE|DICT|INTERRES
    91   44  169 1    
    92   45   46 2    
    93   45   47 1    
    94   47   48 1    
    95   47   49 1    
    96   47  170 1    
    97   48  171 1    
    98   48  172 1    
    99   48  173 1    
   100   49   50 am   BACKBONE|DICT|INTERRES
   101   49  174 1    
   102   50   51 2    
   103   50   52 1    
   104   52   53 1    
   105   52   54 1    
   106   52  175 1    
   107   53  176 1    
   108   53  177 1    
   109   53  178 1    
   110   54   55 am   BACKBONE|DICT|INTERRES
   111   54  179 1    
   112   55   56 2    
   113   55   57 1    
   114   57   58 1    
   115   57   59 1    
   116   57  180 1    
   117   58  181 1    
   118   58  182 1    
   119   58  183 1    
   120   59   60 am   BACKBONE|DICT|INTERRES
   121   59  184 1    
   122   60   61 2    
   123   60   62 1    
   124   62   63 1    
   125   62   64 1    
   126   62  185 1    
   127   63  186 1    
   128   63  187 1    
   129   63  188 1    
   130   64   65 am   BACKBONE|DICT|INTERRES
   131   64  189 1    
   132   65   66 2    
   133   67   68 2    
   134   67   69 am   BACKBONE|DICT|INTERRES
   135   69   70 1    
   136   69  190 1    
   137   70   71 1    
   138   70   72 1    
   139   70  191 1    
   140   71  192 1    
   141   71  193 1    
   142   71  194 1    
   143   72   73 2    
   144   72   74 am   BACKBONE|DICT|INTERRES
   145   74   75 1    
   146   74  195 1    
   147   75   76 1    
   148   75   77 1    
   149   75  196 1    
   150   76  197 1    
   151   76  198 1    
   152   76  199 1    
   153   77   78 2    
   154   77   79 am   BACKBONE|DICT|INTERRES
   155   79   80 1    
   156   79  200 1    
   157   80   81 1    
   158   80   82 1    
   159   80  201 1    
   160   81  202 1    
   161   81  203 1    
   162   81  204 1    
   163   82   83 2    
   164   82   84 am   BACKBONE|DICT|INTERRES
   165   84   85 1    
   166   84  205 1    
   167   85   86 1    
   168   85   87 1    
   169   85  206 1    
   170   86  207 1    
   171   86  208 1    
   172   86  209 1    
   173   87   88 2    
   174   87   89 am   BACKBONE|DICT|INTERRES
   175   89   90 1    
   176   89  210 1    
   177   90   91 1    
   178   90   92 1    
   179   90  211 1    
   180   91  212 1    
   181   91  213 1    
   182   91  214 1    
   183   92   93 2    
   184   92   94 am   BACKBONE|DICT|INTERRES
   185   94   95 1    
   186   94  215 1    
   187   95   96 1    
   188   95   97 1    
   189   95  216 1    
   190   96  217 1    
   191   96  218 1    
   192   96  219 1    
   193   97   98 2    
   194   97   99 am   BACKBONE|DICT|INTERRES
   195   99  100 1    
   196   99  220 1    
   197  100  101 1    
   198  100  102 1    
   199  100  221 1    
   200  101  222 1    
   201  101  223 1    
   202  101  224 1    
   203  102  103 2    
   204  102  104 am   BACKBONE|DICT|INTERRES
   205  104  105 1    
   206  104  225 1    
   207  105  106 1    
   208  105  107 1    
   209  105  226 1    
   210  106  227 1    
   211  106  228 1    
   212  106  229 1    
   213  107  108 2    
   214  107  109 am   BACKBONE|DICT|INTERRES
   215  109  110 1    
   216  109  230 1    
   217  110  111 1    
   218  110  112 1    
   219  110  231 1    
   220  111  232 1    
   221  111  233 1    
   222  111  234 1    
   223  112  113 2    
   224  112  114 am   BACKBONE|DICT|INTERRES
   225  114  115 1    
   226  114  235 1    
   227  115  116 1    
   228  115  117 1    
   229  115  236 1    
   230  116  237 1    
   231  116  238 1    
   232  116  239 1    
   233  117  118 2    
   234  117  119 am   BACKBONE|DICT|INTERRES
   235  119  120 1    
   236  119  240 1    
   237  120  121 1    
   238  120  124 1    
   239  120  241 1    
   240  121  122 am   BACKBONE|DICT|INTERRES
   241  121  123 2    
   242  122  242 1    
   243  122  243 1    
   244  124  125 1    
   245  124  244 1    
   246  124  245 1    
   247  125  126 1    
   248  126  246 1    
   249  126  247 1    
@<TRIPOS>SUBSTRUCTURE
     1 UNK         1 GROUP             0       ****    0 ROOT    
