@<TRIPOS>MOLECULE
3R540
247   249    1
SMALL
USER_CHARGES


@<TRIPOS>ATOM
      1 CA          6.4917  -16.3126  -46.9915 C.3       0 UNK        -0.1800 
      2 C           5.2036  -15.5294  -46.7855 C.2       0 UNK         0.5000 
      3 O           4.7898  -15.3163  -45.6457 O.2       0 UNK        -0.5000 
      4 N           4.5670  -15.0927  -47.8796 N.am      1 UNK        -0.5000 
      5 CA          3.3205  -14.3232  -47.8778 C.3       1 UNK         0.1400 
      6 C6          2.5210  -14.5239  -49.1909 C.3       23 UNK        -0.0398 
      7 S7          0.7789  -13.9986  -49.0290 S.3       23 UNK        -0.2404 
      8 C8          0.0346  -14.7286  -50.5189 C.3       23 UNK        -0.0205 
      9 C9         -0.3276  -16.1905  -50.3117 C.ar      23 UNK        -0.0193 
     10 C10        -1.5146  -16.5265  -49.6581 C.ar      23 UNK        -0.1150 
     11 C11        -1.8760  -17.8636  -49.4765 C.ar      23 UNK        -0.0193 
     12 C12        -1.0310  -18.8664  -49.9583 C.ar      23 UNK        -0.1150 
     13 C13         0.1675  -18.5522  -50.6131 C.ar      23 UNK        -0.0193 
     14 C14         0.5060  -17.2064  -50.7863 C.ar      23 UNK        -0.1150 
     15 C15         1.1221  -19.6145  -51.1665 C.3       23 UNK        -0.0205 
     16 S16         0.8085  -21.3428  -50.6613 S.3       23 UNK        -0.2404 
     17 C17         1.1911  -21.2756  -48.8791 C.3       23 UNK        -0.0398 
     18 CA          0.7952  -22.5672  -48.1262 C.3       11 UNK         0.1400 
     19 N           1.3475  -22.5870  -46.7720 N.am      11 UNK        -0.5000 
     20 C           1.4082  -23.6721  -45.9884 C.2       10 UNK         0.5000 
     21 O           1.0387  -24.7922  -46.3360 O.2       10 UNK        -0.5000 
     22 CA          1.9264  -23.4563  -44.5563 C.3       10 UNK         0.1400 
     23 CB          3.4613  -23.4873  -44.5235 C.3       10 UNK        -0.1800 
     24 N           1.4501  -22.2009  -43.9744 N.am      10 UNK        -0.5000 
     25 C           0.1646  -21.9384  -43.6998 C.2       9 UNK         0.5000 
     26 O          -0.7537  -22.7337  -43.8932 O.2       9 UNK        -0.5000 
     27 CA         -0.1496  -20.5348  -43.1618 C.3       9 UNK         0.1400 
     28 CB          0.1142  -20.4643  -41.6500 C.3       9 UNK        -0.1800 
     29 N           0.6095  -19.4795  -43.8332 N.am      9 UNK        -0.5000 
     30 C           0.5229  -19.1544  -45.1287 C.2       8 UNK         0.5000 
     31 O          -0.1805  -19.7731  -45.9301 O.2       8 UNK        -0.5000 
     32 CA          1.3467  -17.9332  -45.6017 C.3       8 UNK         0.1400 
     33 CB          0.8377  -17.3796  -46.9432 C.3       8 UNK        -0.1800 
     34 N           1.3886  -16.8413  -44.6203 N.am      8 UNK        -0.5000 
     35 C           2.1547  -16.8152  -43.5180 C.2       7 UNK         0.5000 
     36 O           2.9064  -17.7343  -43.1934 O.2       7 UNK        -0.5000 
     37 CA          1.9937  -15.6057  -42.5854 C.3       7 UNK         0.1400 
     38 CB          2.7475  -14.3865  -43.1337 C.3       7 UNK        -0.1800 
     39 N           0.5744  -15.2880  -42.4234 N.am      7 UNK        -0.5000 
     40 C          -0.1619  -15.6629  -41.3672 C.2       6 UNK         0.5000 
     41 O           0.2983  -16.2220  -40.3711 O.2       6 UNK        -0.5000 
     42 CA         -1.6755  -15.3995  -41.4484 C.3       6 UNK         0.1400 
     43 CB         -2.0033  -13.9237  -41.1819 C.3       6 UNK        -0.1800 
     44 N          -2.2273  -15.7947  -42.7416 N.am      6 UNK        -0.5000 
     45 C          -2.4088  -17.0572  -43.1446 C.2       5 UNK         0.5000 
     46 O          -2.1907  -18.0293  -42.4243 O.2       5 UNK        -0.5000 
     47 CA         -2.8988  -17.2971  -44.5887 C.3       5 UNK         0.1400 
     48 CB         -4.4100  -17.5863  -44.6212 C.3       5 UNK        -0.1800 
     49 N          -2.5342  -16.2574  -45.5636 N.am      5 UNK        -0.5000 
     50 C          -2.9174  -14.9746  -45.6142 C.2       4 UNK         0.5000 
     51 O          -3.6734  -14.4405  -44.8011 O.2       4 UNK        -0.5000 
     52 CA         -2.2990  -14.1285  -46.7379 C.3       4 UNK         0.1400 
     53 CB         -3.3725  -13.6644  -47.7337 C.3       4 UNK        -0.1800 
     54 N          -1.5899  -12.9647  -46.2078 N.am      4 UNK        -0.5000 
     55 C          -0.5012  -13.0257  -45.4329 C.2       3 UNK         0.5000 
     56 O           0.0199  -14.0826  -45.0555 O.2       3 UNK        -0.5000 
     57 CA          0.1204  -11.6861  -45.0144 C.3       3 UNK         0.1400 
     58 CB         -0.2242  -11.3339  -43.5589 C.3       3 UNK        -0.1800 
     59 N           1.5590  -11.8179  -45.1706 N.am      3 UNK        -0.5000 
     60 C           2.4509  -10.8341  -45.3366 C.2       2 UNK         0.5000 
     61 O           2.1703   -9.6361  -45.2926 O.2       2 UNK        -0.5000 
     62 CA          3.9017  -11.2736  -45.6326 C.3       2 UNK         0.1400 
     63 CB          4.7395  -11.2964  -44.3455 C.3       2 UNK        -0.1800 
     64 N           3.9449  -12.5968  -46.2613 N.am      2 UNK        -0.5000 
     65 C           3.5746  -12.8410  -47.5248 C.2       1 UNK         0.5000 
     66 O           3.4163  -11.9562  -48.3676 O.2       1 UNK        -0.5000 
     67 C          -0.7303  -22.7924  -48.0969 C.2       11 UNK         0.5000 
     68 O          -1.2323  -23.6472  -48.8276 O.2       11 UNK        -0.5000 
     69 N          -1.4359  -22.0606  -47.2221 N.am      12 UNK        -0.5000 
     70 CA         -2.8773  -22.1950  -47.0010 C.3       12 UNK         0.1400 
     71 CB         -3.3385  -21.1438  -45.9802 C.3       12 UNK        -0.1800 
     72 C          -3.2965  -23.6141  -46.5679 C.2       12 UNK         0.5000 
     73 O          -4.3036  -24.1227  -47.0601 O.2       12 UNK        -0.5000 
     74 N          -2.5032  -24.2293  -45.6817 N.am      13 UNK        -0.5000 
     75 CA         -2.7138  -25.5816  -45.1776 C.3       13 UNK         0.1400 
     76 CB         -1.9657  -25.7525  -43.8441 C.3       13 UNK        -0.1800 
     77 C          -2.3082  -26.6694  -46.1893 C.2       13 UNK         0.5000 
     78 O          -3.1706  -27.4115  -46.6604 O.2       13 UNK        -0.5000 
     79 N          -1.0022  -26.7865  -46.4659 N.am      14 UNK        -0.5000 
     80 CA         -0.4148  -27.9496  -47.1345 C.3       14 UNK         0.1400 
     81 CB          1.0588  -28.0884  -46.7215 C.3       14 UNK        -0.1800 
     82 C          -0.5403  -27.9071  -48.6639 C.2       14 UNK         0.5000 
     83 O          -0.7340  -28.9565  -49.2787 O.2       14 UNK        -0.5000 
     84 N          -0.4325  -26.7090  -49.2523 N.am      15 UNK        -0.5000 
     85 CA         -0.5323  -26.4982  -50.7000 C.3       15 UNK         0.1400 
     86 CB          0.4870  -25.4297  -51.1309 C.3       15 UNK        -0.1800 
     87 C          -1.9597  -26.1190  -51.1386 C.2       15 UNK         0.5000 
     88 O          -2.1744  -25.8664  -52.3248 O.2       15 UNK        -0.5000 
     89 N          -2.9018  -26.0568  -50.1833 N.am      16 UNK        -0.5000 
     90 CA         -4.3053  -25.6581  -50.3431 C.3       16 UNK         0.1400 
     91 CB         -5.0829  -26.7247  -51.1416 C.3       16 UNK        -0.1800 
     92 C          -4.4530  -24.2361  -50.9273 C.2       16 UNK         0.5000 
     93 O          -5.3326  -23.9929  -51.7538 O.2       16 UNK        -0.5000 
     94 N          -3.5491  -23.3430  -50.5008 N.am      17 UNK        -0.5000 
     95 CA         -3.3509  -21.9557  -50.9280 C.3       17 UNK         0.1400 
     96 CB         -4.6451  -21.1248  -50.8256 C.3       17 UNK        -0.1800 
     97 C          -2.6474  -21.7975  -52.2908 C.2       17 UNK         0.5000 
     98 O          -2.3710  -20.6651  -52.6851 O.2       17 UNK        -0.5000 
     99 N          -2.3193  -22.9100  -52.9656 N.am      18 UNK        -0.5000 
    100 CA        -1.6282  -22.9838  -54.2542 C.3       18 UNK         0.1400 
    101 CB        -0.1393  -22.6041  -54.0841 C.3       18 UNK        -0.1800 
    102 C         -2.3629  -22.1766  -55.3471 C.2       18 UNK         0.5000 
    103 O         -3.4519  -22.5768  -55.7616 O.2       18 UNK        -0.5000 
    104 N         -1.7607  -21.0667  -55.7918 N.am      19 UNK        -0.5000 
    105 CA        -2.3177  -20.1504  -56.7855 C.3       19 UNK         0.1400 
    106 CB        -1.1555  -19.4421  -57.5001 C.3       19 UNK        -0.1800 
    107 C         -3.2911  -19.1139  -56.1879 C.2       19 UNK         0.5000 
    108 O         -4.0382  -18.4963  -56.9491 O.2       19 UNK        -0.5000 
    109 N         -3.2636  -18.9141  -54.8628 N.am      20 UNK        -0.5000 
    110 CA        -4.1491  -17.9935  -54.1508 C.3       20 UNK         0.1400 
    111 CB        -3.4409  -17.4976  -52.8790 C.3       20 UNK        -0.1800 
    112 C         -5.4965  -18.6630  -53.8190 C.2       20 UNK         0.5000 
    113 O         -5.6205  -19.8879  -53.8842 O.2       20 UNK        -0.5000 
    114 N         -6.4850  -17.8382  -53.4584 N.am      21 UNK        -0.5000 
    115 CA        -7.8482  -18.2494  -53.1204 C.3       21 UNK         0.1400 
    116 CB        -8.8263  -17.5940  -54.1134 C.3       21 UNK        -0.1800 
    117 C         -8.1501  -17.8900  -51.6548 C.2       21 UNK         0.5000 
    118 O         -9.1320  -17.2014  -51.3708 O.2       21 UNK        -0.5000 
    119 N         -7.2735  -18.3395  -50.7484 N.am      22 UNK        -0.5000 
    120 CA        -7.3416  -18.0577  -49.3021 C.3       22 UNK         0.1400 
    121 C         -8.4644  -18.8173  -48.5343 C.2       22 UNK         0.5000 
    122 N         -9.1196  -19.8125  -49.1198 N.am      22 UNK        -0.7600 
    123 O         -8.7491  -18.4932  -47.3848 O.2       22 UNK        -0.5000 
    124 C124       -5.9746  -18.2629  -48.5991 C.3       23 UNK        -0.0398 
    125 S125       -4.6156  -17.3574  -49.4099 S.3       23 UNK        -0.2404 
    126 C126       -3.1630  -18.2351  -48.7496 C.3       23 UNK        -0.0205 
    127 H127        6.7318  -16.4281  -48.0487 H         1 UNK         0.0600 
    128 H128        7.3229  -15.8003  -46.5070 H         1 UNK         0.0600 
    129 H129        6.3994  -17.3060  -46.5526 H         1 UNK         0.0600 
    130 H130        4.9746  -15.2660  -48.7876 H         1 UNK         0.3000 
    131 H131        2.7005  -14.7156  -47.0694 H         1 UNK         0.0600 
    132 H132        2.9856  -13.9987  -50.0270 H         1 UNK         0.0800 
    133 H133        2.5232  -15.5813  -49.4569 H         1 UNK         0.0800 
    134 H134       -0.8670  -14.1675  -50.7690 H         1 UNK         0.0800 
    135 H135        0.7097  -14.6109  -51.3680 H         1 UNK         0.0800 
    136 H136       -2.1660  -15.7430  -49.3033 H         1 UNK         0.1150 
    137 H137       -1.3121  -19.8949  -49.8136 H         1 UNK         0.1150 
    138 H138        1.4222  -16.9483  -51.2984 H         1 UNK         0.1150 
    139 H139        1.0750  -19.5726  -52.2553 H         1 UNK         0.0800 
    140 H140        2.1461  -19.3575  -50.8918 H         1 UNK         0.0800 
    141 H141        0.7100  -20.4076  -48.4295 H         1 UNK         0.0800 
    142 H142        2.2648  -21.1082  -48.7843 H         1 UNK         0.0800 
    143 H143        1.2362  -23.4104  -48.6627 H         1 UNK         0.0600 
    144 H144        1.6239  -21.6991  -46.3816 H         1 UNK         0.3000 
    145 H145        1.5541  -24.2782  -43.9410 H         1 UNK         0.0600 
    146 H146        3.8351  -23.4119  -43.5022 H         1 UNK         0.0600 
    147 H147        3.8410  -24.4218  -44.9389 H         1 UNK         0.0600 
    148 H148        3.8954  -22.6705  -45.1014 H         1 UNK         0.0600 
    149 H149        2.1402  -21.4889  -43.7855 H         1 UNK         0.3000 
    150 H150       -1.2104  -20.3469  -43.3365 H         1 UNK         0.0600 
    151 H151       -0.4652  -21.2195  -41.1173 H         1 UNK         0.0600 
    152 H152       -0.1701  -19.4928  -41.2449 H         1 UNK         0.0600 
    153 H153        1.1665  -20.6286  -41.4148 H         1 UNK         0.0600 
    154 H154        1.2509  -18.9429  -43.2613 H         1 UNK         0.3000 
    155 H155        2.3665  -18.2887  -45.7619 H         1 UNK         0.0600 
    156 H156        1.4583  -16.5602  -47.2943 H         1 UNK         0.0600 
    157 H157       -0.1856  -17.0160  -46.8730 H         1 UNK         0.0600 
    158 H158        0.8618  -18.1421  -47.7209 H         1 UNK         0.0600 
    159 H159        0.7995  -16.0399  -44.8117 H         1 UNK         0.3000 
    160 H160        2.4374  -15.8588  -41.6203 H         1 UNK         0.0600 
    161 H161        2.5004  -14.1956  -44.1759 H         1 UNK         0.0600 
    162 H162        3.8248  -14.5489  -43.0846 H         1 UNK         0.0600 
    163 H163        2.5248  -13.4875  -42.5588 H         1 UNK         0.0600 
    164 H164        0.1210  -14.8433  -43.2137 H         1 UNK         0.3000 
    165 H165       -2.1585  -15.9953  -40.6708 H         1 UNK         0.0600 
    166 H166       -1.6304  -13.2804  -41.9768 H         1 UNK         0.0600 
    167 H167       -3.0799  -13.7692  -41.1083 H         1 UNK         0.0600 
    168 H168       -1.5604  -13.5848  -40.2445 H         1 UNK         0.0600 
    169 H169       -2.5164  -15.0565  -43.3747 H         1 UNK         0.3000 
    170 H170       -2.3915  -18.2014  -44.9271 H         1 UNK         0.0600 
    171 H171       -4.6608  -18.4202  -43.9643 H         1 UNK         0.0600 
    172 H172       -4.9982  -16.7277  -44.2969 H         1 UNK         0.0600 
    173 H173       -4.7339  -17.8582  -45.6243 H         1 UNK         0.0600 
    174 H174       -1.8740  -16.5620  -46.2630 H         1 UNK         0.3000 
    175 H175       -1.5721  -14.7383  -47.2764 H         1 UNK         0.0600 
    176 H176       -2.9241  -13.1487  -48.5832 H         1 UNK         0.0600 
    177 H177       -3.9344  -14.5121  -48.1280 H         1 UNK         0.0600 
    178 H178       -4.0890  -12.9872  -47.2671 H         1 UNK         0.0600 
    179 H179       -1.9728  -12.0624  -46.4487 H         1 UNK         0.3000 
    180 H180       -0.2425  -10.8985  -45.6781 H         1 UNK         0.0600 
    181 H181        0.1888  -12.0650  -42.8630 H         1 UNK         0.0600 
    182 H182       -1.3039  -11.2986  -43.4094 H         1 UNK         0.0600 
    183 H183        0.1728  -10.3563  -43.2857 H         1 UNK         0.0600 
    184 H184        1.8716  -12.7755  -45.2442 H         1 UNK         0.3000 
    185 H185        4.3418  -10.5436  -46.3153 H         1 UNK         0.0600 
    186 H186        5.7734  -11.5726  -44.5534 H         1 UNK         0.0600 
    187 H187        4.7543  -10.3131  -43.8737 H         1 UNK         0.0600 
    188 H188        4.3439  -12.0031  -43.6162 H         1 UNK         0.0600 
    189 H189        4.1583  -13.3921  -45.6674 H         1 UNK         0.3000 
    190 H190       -0.9557  -21.3584  -46.6649 H         1 UNK         0.3000 
    191 H191       -3.3783  -21.9804  -47.9453 H         1 UNK         0.0600 
    192 H192       -3.1015  -20.1363  -46.3195 H         1 UNK         0.0600 
    193 H193       -4.4176  -21.1915  -45.8294 H         1 UNK         0.0600 
    194 H194       -2.8635  -21.2887  -45.0098 H         1 UNK         0.0600 
    195 H195       -1.7247  -23.7130  -45.2829 H         1 UNK         0.3000 
    196 H196       -3.7788  -25.7080  -44.9709 H         1 UNK         0.0600 
    197 H197       -2.0910  -26.7619  -43.4503 H         1 UNK         0.0600 
    198 H198       -2.3455  -25.0610  -43.0918 H         1 UNK         0.0600 
    199 H199       -0.8956  -25.5697  -43.9494 H         1 UNK         0.0600 
    200 H200       -0.3480  -26.0818  -46.1359 H         1 UNK         0.3000 
    201 H201       -0.9364  -28.8446  -46.7875 H         1 UNK         0.0600 
    202 H202        1.1634  -28.1364  -45.6375 H         1 UNK         0.0600 
    203 H203        1.6612  -27.2536  -47.0807 H         1 UNK         0.0600 
    204 H204        1.4924  -29.0016  -47.1309 H         1 UNK         0.0600 
    205 H205       -0.3108  -25.8843  -48.6784 H         1 UNK         0.3000 
    206 H206       -0.2739  -27.4200  -51.2251 H         1 UNK         0.0600 
    207 H207        1.4834  -25.6529  -50.7495 H         1 UNK         0.0600 
    208 H208        0.5604  -25.3866  -52.2178 H         1 UNK         0.0600 
    209 H209        0.2100  -24.4341  -50.7883 H         1 UNK         0.0600 
    210 H210       -2.6114  -26.2613  -49.2375 H         1 UNK         0.3000 
    211 H211       -4.7310  -25.6222  -49.3395 H         1 UNK         0.0600 
    212 H212       -4.7466  -26.7813  -52.1773 H         1 UNK         0.0600 
    213 H213       -6.1502  -26.5011  -51.1560 H         1 UNK         0.0600 
    214 H214       -4.9657  -27.7126  -50.6962 H         1 UNK         0.0600 
    215 H215       -2.8340  -23.6789  -49.8591 H         1 UNK         0.3000 
    216 H216       -2.6541  -21.5481  -50.1998 H         1 UNK         0.0600 
    217 H217       -5.1175  -21.2475  -49.8517 H         1 UNK         0.0600 
    218 H218       -5.3697  -21.4052  -51.5897 H         1 UNK         0.0600 
    219 H219       -4.4349  -20.0643  -50.9602 H         1 UNK         0.0600 
    220 H220       -2.5836  -23.8057  -52.5727 H         1 UNK         0.3000 
    221 H221       -1.6676  -24.0289  -54.5645 H         1 UNK         0.0600 
    222 H222       -0.0088  -21.5800  -53.7334 H         1 UNK         0.0600 
    223 H223        0.3468  -23.2566  -53.3597 H         1 UNK         0.0600 
    224 H224        0.4042  -22.7088  -55.0238 H         1 UNK         0.0600 
    225 H225       -0.8815  -20.7996  -55.3735 H         1 UNK         0.3000 
    226 H226       -2.8707  -20.7265  -57.5305 H         1 UNK         0.0600 
    227 H227       -0.4914  -20.1605  -57.9813 H         1 UNK         0.0600 
    228 H228       -1.5241  -18.7717  -58.2777 H         1 UNK         0.0600 
    229 H229       -0.5609  -18.8455  -56.8071 H         1 UNK         0.0600 
    230 H230       -2.7135  -19.5347  -54.2758 H         1 UNK         0.3000 
    231 H231       -4.3464  -17.1265  -54.7848 H         1 UNK         0.0600 
    232 H232       -2.4634  -17.0724  -53.1073 H         1 UNK         0.0600 
    233 H233       -3.2909  -18.2988  -52.1565 H         1 UNK         0.0600 
    234 H234       -4.0218  -16.7195  -52.3833 H         1 UNK         0.0600 
    235 H235       -6.2940  -16.8487  -53.3817 H         1 UNK         0.3000 
    236 H236       -7.9633  -19.3318  -53.2062 H         1 UNK         0.0600 
    237 H237       -8.6011  -17.8897  -55.1383 H         1 UNK         0.0600 
    238 H238       -9.8544  -17.8955  -53.9087 H         1 UNK         0.0600 
    239 H239       -8.7844  -16.5053  -54.0627 H         1 UNK         0.0600 
    240 H240       -6.4776  -18.8728  -51.0643 H         1 UNK         0.3000 
    241 H241       -7.5891  -16.9990  -49.2014 H         1 UNK         0.0600 
    242 H242       -9.8473  -20.2925  -48.6137 H         1 UNK         0.3800 
    243 H243       -8.9006  -20.0877  -50.0633 H         1 UNK         0.3800 
    244 H244       -6.0297  -17.9224  -47.5645 H         1 UNK         0.0800 
    245 H245       -5.7263  -19.3239  -48.5602 H         1 UNK         0.0800 
    246 H246       -3.0549  -18.0056  -47.6907 H         1 UNK         0.0800 
    247 H247       -3.3346  -19.3097  -48.8165 H         1 UNK         0.0800 
@<TRIPOS>BOND
     1    1    2 1    
     2    1  127 1    
     3    1  128 1    
     4    1  129 1    
     5    2    3 2    
     6    2    4 am   BACKBONE|DICT|INTERRES
     7    4    5 1    
     8    4  130 1    
     9    5    6 1    
    10    5   65 1    
    11    5  131 1    
    12    6    7 1    
    13    6  132 1    
    14    6  133 1    
    15    7    8 1    
    16    8    9 1    
    17    8  134 1    
    18    8  135 1    
    19    9   10 ar   
    20    9   14 ar   
    21   10   11 ar   
    22   10  136 1    
    23   11   12 ar   
    24   11  126 1    
    25   12   13 ar   
    26   12  137 1    
    27   13   14 ar   
    28   13   15 1    
    29   14  138 1    
    30   15   16 1    
    31   15  139 1    
    32   15  140 1    
    33   16   17 1    
    34   17   18 1    
    35   17  141 1    
    36   17  142 1    
    37   18   19 1    
    38   18   67 1    
    39   18  143 1    
    40   19   20 am   BACKBONE|DICT|INTERRES
    41   19  144 1    
    42   20   21 2    
    43   20   22 1    
    44   22   23 1    
    45   22   24 1    
    46   22  145 1    
    47   23  146 1    
    48   23  147 1    
    49   23  148 1    
    50   24   25 am   BACKBONE|DICT|INTERRES
    51   24  149 1    
    52   25   26 2    
    53   25   27 1    
    54   27   28 1    
    55   27   29 1    
    56   27  150 1    
    57   28  151 1    
    58   28  152 1    
    59   28  153 1    
    60   29   30 am   BACKBONE|DICT|INTERRES
    61   29  154 1    
    62   30   31 2    
    63   30   32 1    
    64   32   33 1    
    65   32   34 1    
    66   32  155 1    
    67   33  156 1    
    68   33  157 1    
    69   33  158 1    
    70   34   35 am   BACKBONE|DICT|INTERRES
    71   34  159 1    
    72   35   36 2    
    73   35   37 1    
    74   37   38 1    
    75   37   39 1    
    76   37  160 1    
    77   38  161 1    
    78   38  162 1    
    79   38  163 1    
    80   39   40 am   BACKBONE|DICT|INTERRES
    81   39  164 1    
    82   40   41 2    
    83   40   42 1    
    84   42   43 1    
    85   42   44 1    
    86   42  165 1    
    87   43  166 1    
    88   43  167 1    
    89   43  168 1    
    90   44   45 am   BACKBONE|DICT|INTERRES
    91   44  169 1    
    92   45   46 2    
    93   45   47 1    
    94   47   48 1    
    95   47   49 1    
    96   47  170 1    
    97   48  171 1    
    98   48  172 1    
    99   48  173 1    
   100   49   50 am   BACKBONE|DICT|INTERRES
   101   49  174 1    
   102   50   51 2    
   103   50   52 1    
   104   52   53 1    
   105   52   54 1    
   106   52  175 1    
   107   53  176 1    
   108   53  177 1    
   109   53  178 1    
   110   54   55 am   BACKBONE|DICT|INTERRES
   111   54  179 1    
   112   55   56 2    
   113   55   57 1    
   114   57   58 1    
   115   57   59 1    
   116   57  180 1    
   117   58  181 1    
   118   58  182 1    
   119   58  183 1    
   120   59   60 am   BACKBONE|DICT|INTERRES
   121   59  184 1    
   122   60   61 2    
   123   60   62 1    
   124   62   63 1    
   125   62   64 1    
   126   62  185 1    
   127   63  186 1    
   128   63  187 1    
   129   63  188 1    
   130   64   65 am   BACKBONE|DICT|INTERRES
   131   64  189 1    
   132   65   66 2    
   133   67   68 2    
   134   67   69 am   BACKBONE|DICT|INTERRES
   135   69   70 1    
   136   69  190 1    
   137   70   71 1    
   138   70   72 1    
   139   70  191 1    
   140   71  192 1    
   141   71  193 1    
   142   71  194 1    
   143   72   73 2    
   144   72   74 am   BACKBONE|DICT|INTERRES
   145   74   75 1    
   146   74  195 1    
   147   75   76 1    
   148   75   77 1    
   149   75  196 1    
   150   76  197 1    
   151   76  198 1    
   152   76  199 1    
   153   77   78 2    
   154   77   79 am   BACKBONE|DICT|INTERRES
   155   79   80 1    
   156   79  200 1    
   157   80   81 1    
   158   80   82 1    
   159   80  201 1    
   160   81  202 1    
   161   81  203 1    
   162   81  204 1    
   163   82   83 2    
   164   82   84 am   BACKBONE|DICT|INTERRES
   165   84   85 1    
   166   84  205 1    
   167   85   86 1    
   168   85   87 1    
   169   85  206 1    
   170   86  207 1    
   171   86  208 1    
   172   86  209 1    
   173   87   88 2    
   174   87   89 am   BACKBONE|DICT|INTERRES
   175   89   90 1    
   176   89  210 1    
   177   90   91 1    
   178   90   92 1    
   179   90  211 1    
   180   91  212 1    
   181   91  213 1    
   182   91  214 1    
   183   92   93 2    
   184   92   94 am   BACKBONE|DICT|INTERRES
   185   94   95 1    
   186   94  215 1    
   187   95   96 1    
   188   95   97 1    
   189   95  216 1    
   190   96  217 1    
   191   96  218 1    
   192   96  219 1    
   193   97   98 2    
   194   97   99 am   BACKBONE|DICT|INTERRES
   195   99  100 1    
   196   99  220 1    
   197  100  101 1    
   198  100  102 1    
   199  100  221 1    
   200  101  222 1    
   201  101  223 1    
   202  101  224 1    
   203  102  103 2    
   204  102  104 am   BACKBONE|DICT|INTERRES
   205  104  105 1    
   206  104  225 1    
   207  105  106 1    
   208  105  107 1    
   209  105  226 1    
   210  106  227 1    
   211  106  228 1    
   212  106  229 1    
   213  107  108 2    
   214  107  109 am   BACKBONE|DICT|INTERRES
   215  109  110 1    
   216  109  230 1    
   217  110  111 1    
   218  110  112 1    
   219  110  231 1    
   220  111  232 1    
   221  111  233 1    
   222  111  234 1    
   223  112  113 2    
   224  112  114 am   BACKBONE|DICT|INTERRES
   225  114  115 1    
   226  114  235 1    
   227  115  116 1    
   228  115  117 1    
   229  115  236 1    
   230  116  237 1    
   231  116  238 1    
   232  116  239 1    
   233  117  118 2    
   234  117  119 am   BACKBONE|DICT|INTERRES
   235  119  120 1    
   236  119  240 1    
   237  120  121 1    
   238  120  124 1    
   239  120  241 1    
   240  121  122 am   BACKBONE|DICT|INTERRES
   241  121  123 2    
   242  122  242 1    
   243  122  243 1    
   244  124  125 1    
   245  124  244 1    
   246  124  245 1    
   247  125  126 1    
   248  126  246 1    
   249  126  247 1    
@<TRIPOS>SUBSTRUCTURE
     1 UNK         1 GROUP             0       ****    0 ROOT    
