@<TRIPOS>MOLECULE
3R540
247   249    1
SMALL
USER_CHARGES


@<TRIPOS>ATOM
      1 CA          4.2267  -11.3599  -49.9118 C.3       0 UNK        -0.1800 
      2 C           3.6577  -11.9889  -48.6487 C.2       0 UNK         0.5000 
      3 O           3.6159  -11.3389  -47.6051 O.2       0 UNK        -0.5000 
      4 N           3.1970  -13.2436  -48.7430 N.am      1 UNK        -0.5000 
      5 CA          2.6748  -14.0562  -47.6307 C.3       1 UNK         0.1400 
      6 C6          2.4661  -15.5364  -48.0371 C.3       23 UNK        -0.0398 
      7 S7          3.9547  -16.3118  -48.7530 S.3       23 UNK        -0.2404 
      8 C8          3.4085  -16.6611  -50.4565 C.3       23 UNK        -0.0205 
      9 C9          2.4396  -17.8335  -50.5141 C.ar      23 UNK        -0.0193 
     10 C10         1.0689  -17.6208  -50.6906 C.ar      23 UNK        -0.1150 
     11 C11         0.1843  -18.7024  -50.7543 C.ar      23 UNK        -0.0193 
     12 C12         0.6763  -20.0029  -50.6168 C.ar      23 UNK        -0.1150 
     13 C13         2.0439  -20.2275  -50.4364 C.ar      23 UNK        -0.0193 
     14 C14         2.9211  -19.1399  -50.4007 C.ar      23 UNK        -0.1150 
     15 C15         2.5684  -21.6447  -50.2557 C.3       23 UNK        -0.0205 
     16 S16         3.3996  -21.8870  -48.6495 S.3       23 UNK        -0.2404 
     17 C17         2.1426  -21.3095  -47.4556 C.3       23 UNK        -0.0398 
     18 CA          1.3216  -22.4569  -46.8296 C.3       11 UNK         0.1400 
     19 N           0.6904  -22.0427  -45.5768 N.am      11 UNK        -0.5000 
     20 C           0.1080  -22.8826  -44.7109 C.2       10 UNK         0.5000 
     21 O           0.0755  -24.1052  -44.8587 O.2       10 UNK        -0.5000 
     22 CA         -0.5872  -22.2428  -43.4974 C.3       10 UNK         0.1400 
     23 CB          0.4415  -21.8625  -42.4222 C.3       10 UNK        -0.1800 
     24 N          -1.3826  -21.0674  -43.8591 N.am      10 UNK        -0.5000 
     25 C          -2.4667  -21.1044  -44.6471 C.2       9 UNK         0.5000 
     26 O          -2.9177  -22.1400  -45.1350 O.2       9 UNK        -0.5000 
     27 CA         -3.1443  -19.7623  -44.9780 C.3       9 UNK         0.1400 
     28 CB         -3.9989  -19.2704  -43.8015 C.3       9 UNK        -0.1800 
     29 N          -2.1969  -18.7186  -45.3678 N.am      9 UNK        -0.5000 
     30 C          -1.3987  -18.7776  -46.4428 C.2       8 UNK         0.5000 
     31 O          -1.3752  -19.7165  -47.2339 O.2       8 UNK        -0.5000 
     32 CA         -0.4249  -17.6087  -46.6452 C.3       8 UNK         0.1400 
     33 CB         -1.1602  -16.3985  -47.2451 C.3       8 UNK        -0.1800 
     34 N           0.2557  -17.2368  -45.4026 N.am      8 UNK        -0.5000 
     35 C           1.0560  -18.0572  -44.7028 C.2       7 UNK         0.5000 
     36 O           1.3498  -19.1991  -45.0582 O.2       7 UNK        -0.5000 
     37 CA          1.5712  -17.5336  -43.3512 C.3       7 UNK         0.1400 
     38 CB          2.6974  -16.5093  -43.5578 C.3       7 UNK        -0.1800 
     39 N           0.5032  -16.9391  -42.5472 N.am      7 UNK        -0.5000 
     40 C          -0.5471  -17.6146  -42.0526 C.2       6 UNK         0.5000 
     41 O          -0.6872  -18.8314  -42.1636 O.2       6 UNK        -0.5000 
     42 CA         -1.6592  -16.7924  -41.3663 C.3       6 UNK         0.1400 
     43 CB         -1.3754  -16.6516  -39.8639 C.3       6 UNK        -0.1800 
     44 N          -1.8258  -15.4617  -41.9507 N.am      6 UNK        -0.5000 
     45 C          -2.0981  -15.2239  -43.2401 C.2       5 UNK         0.5000 
     46 O          -2.4362  -16.1077  -44.0282 O.2       5 UNK        -0.5000 
     47 CA         -1.9106  -13.7841  -43.7617 C.3       5 UNK         0.1400 
     48 CB         -3.2719  -13.1637  -44.1113 C.3       5 UNK        -0.1800 
     49 N          -1.1743  -12.8526  -42.8933 N.am      5 UNK        -0.5000 
     50 C           0.0473  -13.0127  -42.3590 C.2       4 UNK         0.5000 
     51 O           0.7014  -14.0542  -42.4243 O.2       4 UNK        -0.5000 
     52 CA          0.6217  -11.7689  -41.6518 C.3       4 UNK         0.1400 
     53 CB          1.8339  -12.0786  -40.7470 C.3       4 UNK        -0.1800 
     54 N           0.9189  -10.7259  -42.6395 N.am      4 UNK        -0.5000 
     55 C           1.8322  -10.7834  -43.6200 C.2       3 UNK         0.5000 
     56 O           2.7157  -11.6376  -43.7096 O.2       3 UNK        -0.5000 
     57 CA          1.6751   -9.7464  -44.7448 C.3       3 UNK         0.1400 
     58 CB          3.0088   -9.0646  -45.0913 C.3       3 UNK        -0.1800 
     59 N           1.1522  -10.4330  -45.9240 N.am      3 UNK        -0.5000 
     60 C          -0.1181  -10.8498  -46.0465 C.2       2 UNK         0.5000 
     61 O          -1.0157  -10.5200  -45.2704 O.2       2 UNK        -0.5000 
     62 CA         -0.4477  -11.8116  -47.2062 C.3       2 UNK         0.1400 
     63 CB         -1.0752  -11.0468  -48.3807 C.3       2 UNK        -0.1800 
     64 N           0.7167  -12.5534  -47.6896 N.am      2 UNK        -0.5000 
     65 C           1.3772  -13.4965  -47.0014 C.2       1 UNK         0.5000 
     66 O           0.9954  -13.9356  -45.9173 O.2       1 UNK        -0.5000 
     67 C           0.2888  -23.0421  -47.8143 C.2       11 UNK         0.5000 
     68 O           0.5410  -24.0955  -48.3976 O.2       11 UNK        -0.5000 
     69 N          -0.8753  -22.3893  -47.9437 N.am      12 UNK        -0.5000 
     70 CA         -2.0036  -22.8595  -48.7441 C.3       12 UNK         0.1400 
     71 CB         -3.1137  -21.8036  -48.7631 C.3       12 UNK        -0.1800 
     72 C          -2.5577  -24.2096  -48.2651 C.2       12 UNK         0.5000 
     73 O          -2.8173  -25.0742  -49.0986 O.2       12 UNK        -0.5000 
     74 N          -2.6878  -24.3891  -46.9436 N.am      13 UNK        -0.5000 
     75 CA         -3.1097  -25.6455  -46.3222 C.3       13 UNK         0.1400 
     76 CB         -3.3036  -25.4403  -44.8125 C.3       13 UNK        -0.1800 
     77 C          -2.1354  -26.8057  -46.6002 C.2       13 UNK         0.5000 
     78 O          -2.5851  -27.9168  -46.8820 O.2       13 UNK        -0.5000 
     79 N          -0.8262  -26.5199  -46.5595 N.am      14 UNK        -0.5000 
     80 CA          0.2367  -27.4648  -46.9071 C.3       14 UNK         0.1400 
     81 CB          1.5906  -26.9021  -46.4479 C.3       14 UNK        -0.1800 
     82 C           0.2629  -27.8065  -48.4106 C.2       14 UNK         0.5000 
     83 O           0.4662  -28.9677  -48.7668 O.2       14 UNK        -0.5000 
     84 N           0.0422  -26.7958  -49.2618 N.am      15 UNK        -0.5000 
     85 CA          0.0042  -26.9136  -50.7218 C.3       15 UNK         0.1400 
     86 CB          0.1909  -25.5141  -51.3313 C.3       15 UNK        -0.1800 
     87 C          -1.2853  -27.5598  -51.2698 C.2       15 UNK         0.5000 
     88 O          -1.3031  -27.9506  -52.4376 O.2       15 UNK        -0.5000 
     89 N          -2.3357  -27.6320  -50.4387 N.am      16 UNK        -0.5000 
     90 CA         -3.7150  -28.0110  -50.7694 C.3       16 UNK         0.1400 
     91 CB         -3.8033  -29.4769  -51.2434 C.3       16 UNK        -0.1800 
     92 C          -4.3697  -27.0035  -51.7413 C.2       16 UNK         0.5000 
     93 O          -5.0424  -27.3945  -52.6975 O.2       16 UNK        -0.5000 
     94 N          -4.1396  -25.7166  -51.4657 N.am      17 UNK        -0.5000 
     95 CA         -4.6499  -24.5542  -52.1849 C.3       17 UNK         0.1400 
     96 CB         -3.4390  -23.7535  -52.6998 C.3       17 UNK        -0.1800 
     97 C          -5.5380  -23.7155  -51.2428 C.2       17 UNK         0.5000 
     98 O          -5.9379  -24.1969  -50.1792 O.2       17 UNK        -0.5000 
     99 N          -5.8243  -22.4697  -51.6362 N.am      18 UNK        -0.5000 
    100 CA        -6.4955  -21.4635  -50.8141 C.3       18 UNK         0.1400 
    101 CB        -7.8253  -21.0781  -51.4794 C.3       18 UNK        -0.1800 
    102 C         -5.5823  -20.2357  -50.6964 C.2       18 UNK         0.5000 
    103 O         -4.7427  -20.0147  -51.5688 O.2       18 UNK        -0.5000 
    104 N         -5.7704  -19.4308  -49.6433 N.am      19 UNK        -0.5000 
    105 CA        -4.9788  -18.2190  -49.3910 C.3       19 UNK         0.1400 
    106 CB        -5.2731  -17.7086  -47.9721 C.3       19 UNK        -0.1800 
    107 C         -5.2034  -17.0993  -50.4311 C.2       19 UNK         0.5000 
    108 O         -4.3436  -16.2318  -50.5803 O.2       19 UNK        -0.5000 
    109 N         -6.3483  -17.1435  -51.1257 N.am      20 UNK        -0.5000 
    110 CA        -6.7343  -16.2166  -52.1912 C.3       20 UNK         0.1400 
    111 CB        -8.2121  -15.8417  -51.9873 C.3       20 UNK        -0.1800 
    112 C         -6.5163  -16.8009  -53.6035 C.2       20 UNK         0.5000 
    113 O         -6.7754  -16.1007  -54.5835 O.2       20 UNK        -0.5000 
    114 N         -6.0681  -18.0590  -53.7026 N.am      21 UNK        -0.5000 
    115 CA        -5.8550  -18.7812  -54.9557 C.3       21 UNK         0.1400 
    116 CB        -7.1742  -19.4114  -55.4435 C.3       21 UNK        -0.1800 
    117 C         -4.7368  -19.8044  -54.7235 C.2       21 UNK         0.5000 
    118 O         -4.9909  -21.0094  -54.6635 O.2       21 UNK        -0.5000 
    119 N         -3.5317  -19.2707  -54.5022 N.am      22 UNK        -0.5000 
    120 CA        -2.3174  -19.9993  -54.1118 C.3       22 UNK         0.1400 
    121 C         -1.8332  -21.0308  -55.1701 C.2       22 UNK         0.5000 
    122 N         -1.1531  -22.0877  -54.7462 N.am      22 UNK        -0.7600 
    123 O         -2.0206  -20.8584  -56.3729 O.2       22 UNK        -0.5000 
    124 C124       -1.1681  -19.0214  -53.7536 C.3       23 UNK        -0.0398 
    125 S125       -1.6607  -17.7060  -52.5825 S.3       23 UNK        -0.2404 
    126 C126       -1.3033  -18.4679  -50.9690 C.3       23 UNK        -0.0205 
    127 H127        3.6622  -10.4645  -50.1721 H         1 UNK         0.0600 
    128 H128        4.1889  -12.0450  -50.7591 H         1 UNK         0.0600 
    129 H129        5.2663  -11.0741  -49.7517 H         1 UNK         0.0600 
    130 H130        3.2679  -13.7229  -49.6286 H         1 UNK         0.3000 
    131 H131        3.4292  -14.0333  -46.8413 H         1 UNK         0.0600 
    132 H132        2.1883  -16.1292  -47.1647 H         1 UNK         0.0800 
    133 H133        1.6366  -15.6221  -48.7391 H         1 UNK         0.0800 
    134 H134        2.9635  -15.7670  -50.8954 H         1 UNK         0.0800 
    135 H135        4.2847  -16.8920  -51.0642 H         1 UNK         0.0800 
    136 H136        0.6865  -16.6151  -50.7933 H         1 UNK         0.1150 
    137 H137       -0.0066  -20.8403  -50.6449 H         1 UNK         0.1150 
    138 H138        3.9792  -19.3100  -50.2583 H         1 UNK         0.1150 
    139 H139        1.7631  -22.3741  -50.3532 H         1 UNK         0.0800 
    140 H140        3.2765  -21.8649  -51.0555 H         1 UNK         0.0800 
    141 H141        1.4925  -20.5453  -47.8824 H         1 UNK         0.0800 
    142 H142        2.7024  -20.7998  -46.6707 H         1 UNK         0.0800 
    143 H143        2.0149  -23.2617  -46.5748 H         1 UNK         0.0600 
    144 H144        0.6962  -21.0474  -45.3728 H         1 UNK         0.3000 
    145 H145       -1.2633  -22.9875  -43.0722 H         1 UNK         0.0600 
    146 H146        1.0510  -22.7222  -42.1410 H         1 UNK         0.0600 
    147 H147        1.1158  -21.0786  -42.7697 H         1 UNK         0.0600 
    148 H148       -0.0500  -21.5031  -41.5181 H         1 UNK         0.0600 
    149 H149       -1.0906  -20.1808  -43.4561 H         1 UNK         0.3000 
    150 H150       -3.8083  -19.9348  -45.8265 H         1 UNK         0.0600 
    151 H151       -4.7574  -20.0077  -43.5361 H         1 UNK         0.0600 
    152 H152       -4.5166  -18.3436  -44.0499 H         1 UNK         0.0600 
    153 H153       -3.3938  -19.0888  -42.9137 H         1 UNK         0.0600 
    154 H154       -2.1702  -17.8828  -44.7904 H         1 UNK         0.3000 
    155 H155        0.3343  -17.9341  -47.3602 H         1 UNK         0.0600 
    156 H156       -1.8678  -15.9582  -46.5441 H         1 UNK         0.0600 
    157 H157       -0.4664  -15.6194  -47.5490 H         1 UNK         0.0600 
    158 H158       -1.7251  -16.6836  -48.1326 H         1 UNK         0.0600 
    159 H159        0.0580  -16.3186  -45.0310 H         1 UNK         0.3000 
    160 H160        1.9782  -18.3815  -42.7964 H         1 UNK         0.0600 
    161 H161        2.3464  -15.6231  -44.0886 H         1 UNK         0.0600 
    162 H162        3.5146  -16.9381  -44.1392 H         1 UNK         0.0600 
    163 H163        3.1114  -16.1819  -42.6040 H         1 UNK         0.0600 
    164 H164        0.5374  -15.9282  -42.4314 H         1 UNK         0.3000 
    165 H165       -2.6000  -17.3313  -41.4900 H         1 UNK         0.0600 
    166 H166       -2.1903  -16.1369  -39.3545 H         1 UNK         0.0600 
    167 H167       -1.2661  -17.6302  -39.3945 H         1 UNK         0.0600 
    168 H168       -0.4565  -16.0936  -39.6789 H         1 UNK         0.0600 
    169 H169       -1.5423  -14.6797  -41.3799 H         1 UNK         0.3000 
    170 H170       -1.3371  -13.8697  -44.6851 H         1 UNK         0.0600 
    171 H171       -3.8351  -13.8064  -44.7896 H         1 UNK         0.0600 
    172 H172       -3.8824  -13.0104  -43.2208 H         1 UNK         0.0600 
    173 H173       -3.1527  -12.2008  -44.6081 H         1 UNK         0.0600 
    174 H174       -1.6075  -11.9466  -42.7885 H         1 UNK         0.3000 
    175 H175       -0.1663  -11.3739  -41.0087 H         1 UNK         0.0600 
    176 H176        2.6536  -12.5454  -41.2931 H         1 UNK         0.0600 
    177 H177        2.2168  -11.1725  -40.2777 H         1 UNK         0.0600 
    178 H178        1.5505  -12.7646  -39.9482 H         1 UNK         0.0600 
    179 H179        0.2322   -9.9861  -42.6935 H         1 UNK         0.3000 
    180 H180        0.9702   -8.9713  -44.4362 H         1 UNK         0.0600 
    181 H181        3.7681   -9.7855  -45.3962 H         1 UNK         0.0600 
    182 H182        3.4007   -8.5213  -44.2309 H         1 UNK         0.0600 
    183 H183        2.8853   -8.3471  -45.9026 H         1 UNK         0.0600 
    184 H184        1.8474  -10.7856  -46.5726 H         1 UNK         0.3000 
    185 H185       -1.1799  -12.5327  -46.8371 H         1 UNK         0.0600 
    186 H186       -1.9655  -10.5033  -48.0614 H         1 UNK         0.0600 
    187 H187       -0.3810  -10.3199  -48.8045 H         1 UNK         0.0600 
    188 H188       -1.3794  -11.7265  -49.1770 H         1 UNK         0.0600 
    189 H189        1.1013  -12.2622  -48.5763 H         1 UNK         0.3000 
    190 H190       -1.0068  -21.4978  -47.4701 H         1 UNK         0.3000 
    191 H191       -1.6473  -22.9928  -49.7668 H         1 UNK         0.0600 
    192 H192       -3.4435  -21.5421  -47.7581 H         1 UNK         0.0600 
    193 H193       -3.9832  -22.1732  -49.3022 H         1 UNK         0.0600 
    194 H194       -2.7840  -20.8909  -49.2574 H         1 UNK         0.0600 
    195 H195       -2.5119  -23.6065  -46.3193 H         1 UNK         0.3000 
    196 H196       -4.0759  -25.9168  -46.7528 H         1 UNK         0.0600 
    197 H197       -3.6340  -26.3620  -44.3320 H         1 UNK         0.0600 
    198 H198       -4.0594  -24.6806  -44.6128 H         1 UNK         0.0600 
    199 H199       -2.3799  -25.1283  -44.3251 H         1 UNK         0.0600 
    200 H200       -0.5389  -25.5868  -46.2851 H         1 UNK         0.3000 
    201 H201        0.0549  -28.3920  -46.3596 H         1 UNK         0.0600 
    202 H202        1.5955  -26.7158  -45.3737 H         1 UNK         0.0600 
    203 H203        1.8309  -25.9644  -46.9492 H         1 UNK         0.0600 
    204 H204        2.3974  -27.6044  -46.6610 H         1 UNK         0.0600 
    205 H205       -0.0413  -25.8552  -48.8847 H         1 UNK         0.3000 
    206 H206        0.8425  -27.5376  -51.0381 H         1 UNK         0.0600 
    207 H207        1.1284  -25.0627  -51.0059 H         1 UNK         0.0600 
    208 H208        0.2130  -25.5587  -52.4209 H         1 UNK         0.0600 
    209 H209       -0.6206  -24.8436  -51.0473 H         1 UNK         0.0600 
    210 H210       -2.2139  -27.2191  -49.5227 H         1 UNK         0.3000 
    211 H211       -4.2756  -27.9370  -49.8364 H         1 UNK         0.0600 
    212 H212       -3.3294  -29.6233  -52.2140 H         1 UNK         0.0600 
    213 H213       -4.8432  -29.7907  -51.3400 H         1 UNK         0.0600 
    214 H214       -3.3262  -30.1501  -50.5311 H         1 UNK         0.0600 
    215 H215       -3.6356  -25.5011  -50.6057 H         1 UNK         0.3000 
    216 H216       -5.2617  -24.8646  -53.0339 H         1 UNK         0.0600 
    217 H217       -3.7482  -22.9494  -53.3661 H         1 UNK         0.0600 
    218 H218       -2.7598  -24.3904  -53.2672 H         1 UNK         0.0600 
    219 H219       -2.8720  -23.3081  -51.8819 H         1 UNK         0.0600 
    220 H220       -5.4121  -22.1107  -52.4898 H         1 UNK         0.3000 
    221 H221       -6.6929  -21.8420  -49.8090 H         1 UNK         0.0600 
    222 H222       -7.6691  -20.6451  -52.4669 H         1 UNK         0.0600 
    223 H223       -8.4728  -21.9475  -51.5946 H         1 UNK         0.0600 
    224 H224       -8.3686  -20.3462  -50.8807 H         1 UNK         0.0600 
    225 H225       -6.4824  -19.6566  -48.9633 H         1 UNK         0.3000 
    226 H226       -3.9237  -18.4957  -49.4341 H         1 UNK         0.0600 
    227 H227       -5.0591  -18.4720  -47.2252 H         1 UNK         0.0600 
    228 H228       -4.6551  -16.8420  -47.7325 H         1 UNK         0.0600 
    229 H229       -6.3162  -17.4107  -47.8597 H         1 UNK         0.0600 
    230 H230       -7.0012  -17.8845  -50.9185 H         1 UNK         0.3000 
    231 H231       -6.1414  -15.3020  -52.1264 H         1 UNK         0.0600 
    232 H232       -8.5399  -15.1131  -52.7300 H         1 UNK         0.0600 
    233 H233       -8.3731  -15.3952  -51.0059 H         1 UNK         0.0600 
    234 H234       -8.8638  -16.7123  -52.0713 H         1 UNK         0.0600 
    235 H235       -5.7821  -18.5524  -52.8648 H         1 UNK         0.3000 
    236 H236       -5.5024  -18.0894  -55.7238 H         1 UNK         0.0600 
    237 H237       -7.9287  -18.6490  -55.6376 H         1 UNK         0.0600 
    238 H238       -7.0207  -19.9597  -56.3736 H         1 UNK         0.0600 
    239 H239       -7.5851  -20.1102  -54.7159 H         1 UNK         0.0600 
    240 H240       -3.4372  -18.2666  -54.5324 H         1 UNK         0.3000 
    241 H241       -2.5736  -20.5578  -53.2094 H         1 UNK         0.0600 
    242 H242       -0.9612  -22.2425  -53.7702 H         1 UNK         0.3800 
    243 H243       -0.8180  -22.7521  -55.4262 H         1 UNK         0.3800 
    244 H244       -0.3133  -19.5652  -53.3498 H         1 UNK         0.0800 
    245 H245       -0.8040  -18.5270  -54.6560 H         1 UNK         0.0800 
    246 H246       -1.6748  -17.8107  -50.1837 H         1 UNK         0.0800 
    247 H247       -1.8672  -19.3978  -50.8850 H         1 UNK         0.0800 
@<TRIPOS>BOND
     1    1    2 1    
     2    1  127 1    
     3    1  128 1    
     4    1  129 1    
     5    2    3 2    
     6    2    4 am   BACKBONE|DICT|INTERRES
     7    4    5 1    
     8    4  130 1    
     9    5    6 1    
    10    5   65 1    
    11    5  131 1    
    12    6    7 1    
    13    6  132 1    
    14    6  133 1    
    15    7    8 1    
    16    8    9 1    
    17    8  134 1    
    18    8  135 1    
    19    9   10 ar   
    20    9   14 ar   
    21   10   11 ar   
    22   10  136 1    
    23   11   12 ar   
    24   11  126 1    
    25   12   13 ar   
    26   12  137 1    
    27   13   14 ar   
    28   13   15 1    
    29   14  138 1    
    30   15   16 1    
    31   15  139 1    
    32   15  140 1    
    33   16   17 1    
    34   17   18 1    
    35   17  141 1    
    36   17  142 1    
    37   18   19 1    
    38   18   67 1    
    39   18  143 1    
    40   19   20 am   BACKBONE|DICT|INTERRES
    41   19  144 1    
    42   20   21 2    
    43   20   22 1    
    44   22   23 1    
    45   22   24 1    
    46   22  145 1    
    47   23  146 1    
    48   23  147 1    
    49   23  148 1    
    50   24   25 am   BACKBONE|DICT|INTERRES
    51   24  149 1    
    52   25   26 2    
    53   25   27 1    
    54   27   28 1    
    55   27   29 1    
    56   27  150 1    
    57   28  151 1    
    58   28  152 1    
    59   28  153 1    
    60   29   30 am   BACKBONE|DICT|INTERRES
    61   29  154 1    
    62   30   31 2    
    63   30   32 1    
    64   32   33 1    
    65   32   34 1    
    66   32  155 1    
    67   33  156 1    
    68   33  157 1    
    69   33  158 1    
    70   34   35 am   BACKBONE|DICT|INTERRES
    71   34  159 1    
    72   35   36 2    
    73   35   37 1    
    74   37   38 1    
    75   37   39 1    
    76   37  160 1    
    77   38  161 1    
    78   38  162 1    
    79   38  163 1    
    80   39   40 am   BACKBONE|DICT|INTERRES
    81   39  164 1    
    82   40   41 2    
    83   40   42 1    
    84   42   43 1    
    85   42   44 1    
    86   42  165 1    
    87   43  166 1    
    88   43  167 1    
    89   43  168 1    
    90   44   45 am   BACKBONE|DICT|INTERRES
    91   44  169 1    
    92   45   46 2    
    93   45   47 1    
    94   47   48 1    
    95   47   49 1    
    96   47  170 1    
    97   48  171 1    
    98   48  172 1    
    99   48  173 1    
   100   49   50 am   BACKBONE|DICT|INTERRES
   101   49  174 1    
   102   50   51 2    
   103   50   52 1    
   104   52   53 1    
   105   52   54 1    
   106   52  175 1    
   107   53  176 1    
   108   53  177 1    
   109   53  178 1    
   110   54   55 am   BACKBONE|DICT|INTERRES
   111   54  179 1    
   112   55   56 2    
   113   55   57 1    
   114   57   58 1    
   115   57   59 1    
   116   57  180 1    
   117   58  181 1    
   118   58  182 1    
   119   58  183 1    
   120   59   60 am   BACKBONE|DICT|INTERRES
   121   59  184 1    
   122   60   61 2    
   123   60   62 1    
   124   62   63 1    
   125   62   64 1    
   126   62  185 1    
   127   63  186 1    
   128   63  187 1    
   129   63  188 1    
   130   64   65 am   BACKBONE|DICT|INTERRES
   131   64  189 1    
   132   65   66 2    
   133   67   68 2    
   134   67   69 am   BACKBONE|DICT|INTERRES
   135   69   70 1    
   136   69  190 1    
   137   70   71 1    
   138   70   72 1    
   139   70  191 1    
   140   71  192 1    
   141   71  193 1    
   142   71  194 1    
   143   72   73 2    
   144   72   74 am   BACKBONE|DICT|INTERRES
   145   74   75 1    
   146   74  195 1    
   147   75   76 1    
   148   75   77 1    
   149   75  196 1    
   150   76  197 1    
   151   76  198 1    
   152   76  199 1    
   153   77   78 2    
   154   77   79 am   BACKBONE|DICT|INTERRES
   155   79   80 1    
   156   79  200 1    
   157   80   81 1    
   158   80   82 1    
   159   80  201 1    
   160   81  202 1    
   161   81  203 1    
   162   81  204 1    
   163   82   83 2    
   164   82   84 am   BACKBONE|DICT|INTERRES
   165   84   85 1    
   166   84  205 1    
   167   85   86 1    
   168   85   87 1    
   169   85  206 1    
   170   86  207 1    
   171   86  208 1    
   172   86  209 1    
   173   87   88 2    
   174   87   89 am   BACKBONE|DICT|INTERRES
   175   89   90 1    
   176   89  210 1    
   177   90   91 1    
   178   90   92 1    
   179   90  211 1    
   180   91  212 1    
   181   91  213 1    
   182   91  214 1    
   183   92   93 2    
   184   92   94 am   BACKBONE|DICT|INTERRES
   185   94   95 1    
   186   94  215 1    
   187   95   96 1    
   188   95   97 1    
   189   95  216 1    
   190   96  217 1    
   191   96  218 1    
   192   96  219 1    
   193   97   98 2    
   194   97   99 am   BACKBONE|DICT|INTERRES
   195   99  100 1    
   196   99  220 1    
   197  100  101 1    
   198  100  102 1    
   199  100  221 1    
   200  101  222 1    
   201  101  223 1    
   202  101  224 1    
   203  102  103 2    
   204  102  104 am   BACKBONE|DICT|INTERRES
   205  104  105 1    
   206  104  225 1    
   207  105  106 1    
   208  105  107 1    
   209  105  226 1    
   210  106  227 1    
   211  106  228 1    
   212  106  229 1    
   213  107  108 2    
   214  107  109 am   BACKBONE|DICT|INTERRES
   215  109  110 1    
   216  109  230 1    
   217  110  111 1    
   218  110  112 1    
   219  110  231 1    
   220  111  232 1    
   221  111  233 1    
   222  111  234 1    
   223  112  113 2    
   224  112  114 am   BACKBONE|DICT|INTERRES
   225  114  115 1    
   226  114  235 1    
   227  115  116 1    
   228  115  117 1    
   229  115  236 1    
   230  116  237 1    
   231  116  238 1    
   232  116  239 1    
   233  117  118 2    
   234  117  119 am   BACKBONE|DICT|INTERRES
   235  119  120 1    
   236  119  240 1    
   237  120  121 1    
   238  120  124 1    
   239  120  241 1    
   240  121  122 am   BACKBONE|DICT|INTERRES
   241  121  123 2    
   242  122  242 1    
   243  122  243 1    
   244  124  125 1    
   245  124  244 1    
   246  124  245 1    
   247  125  126 1    
   248  126  246 1    
   249  126  247 1    
@<TRIPOS>SUBSTRUCTURE
     1 UNK         1 GROUP             0       ****    0 ROOT    
