@<TRIPOS>MOLECULE
3R540
247   249    1
SMALL
USER_CHARGES


@<TRIPOS>ATOM
      1 CA         -3.9694  -17.4265  -44.2219 C.3       0 UNK        -0.1800 
      2 C          -3.3485  -16.7778  -45.4511 C.2       0 UNK         0.5000 
      3 O          -4.0593  -16.4757  -46.4088 O.2       0 UNK        -0.5000 
      4 N          -2.0291  -16.5729  -45.4315 N.am      1 UNK        -0.5000 
      5 CA         -1.2518  -15.9572  -46.5023 C.3       1 UNK         0.1400 
      6 C6         -1.0291  -16.9074  -47.7099 C.3       23 UNK        -0.0398 
      7 S7         -0.4826  -15.9999  -49.1960 S.3       23 UNK        -0.2404 
      8 C8          1.2271  -16.5888  -49.3963 C.3       23 UNK        -0.0205 
      9 C9          1.3024  -17.7217  -50.4081 C.ar      23 UNK        -0.0193 
     10 C10         1.6260  -17.4378  -51.7385 C.ar      23 UNK        -0.1150 
     11 C11         1.6482  -18.4534  -52.6971 C.ar      23 UNK        -0.0193 
     12 C12         1.3699  -19.7656  -52.3105 C.ar      23 UNK        -0.1150 
     13 C13         1.0341  -20.0638  -50.9880 C.ar      23 UNK        -0.0193 
     14 C14         1.0120  -19.0390  -50.0349 C.ar      23 UNK        -0.1150 
     15 C15         0.6006  -21.4763  -50.6312 C.3       23 UNK        -0.0205 
     16 S16         1.9529  -22.5147  -49.9872 S.3       23 UNK        -0.2404 
     17 C17         1.8552  -22.2081  -48.1909 C.3       23 UNK        -0.0398 
     18 CA          0.9541  -23.2247  -47.4389 C.3       11 UNK         0.1400 
     19 N           1.2258  -23.2490  -46.0012 N.am      11 UNK        -0.5000 
     20 C           0.8238  -24.2203  -45.1676 C.2       10 UNK         0.5000 
     21 O           0.2937  -25.2668  -45.5409 O.2       10 UNK        -0.5000 
     22 CA          1.0096  -23.9607  -43.6592 C.3       10 UNK         0.1400 
     23 CB          2.3864  -24.4546  -43.1912 C.3       10 UNK        -0.1800 
     24 N           0.8568  -22.5483  -43.3011 N.am      10 UNK        -0.5000 
     25 C          -0.2881  -21.8573  -43.4018 C.2       9 UNK         0.5000 
     26 O          -1.3573  -22.3574  -43.7493 O.2       9 UNK        -0.5000 
     27 CA         -0.2136  -20.3422  -43.1277 C.3       9 UNK         0.1400 
     28 CB         -0.5242  -20.0411  -41.6568 C.3       9 UNK        -0.1800 
     29 N           1.0673  -19.7342  -43.5060 N.am      9 UNK        -0.5000 
     30 C           1.5598  -19.7294  -44.7542 C.2       8 UNK         0.5000 
     31 O           0.9706  -20.2354  -45.7113 O.2       8 UNK        -0.5000 
     32 CA          2.9350  -19.0734  -44.9517 C.3       8 UNK         0.1400 
     33 CB          3.3011  -18.8654  -46.4312 C.3       8 UNK        -0.1800 
     34 N           2.9600  -17.7971  -44.2502 N.am      8 UNK        -0.5000 
     35 C           3.9903  -17.3200  -43.5480 C.2       7 UNK         0.5000 
     36 O           5.0901  -17.8711  -43.4796 O.2       7 UNK        -0.5000 
     37 CA          3.7405  -16.0244  -42.7515 C.3       7 UNK         0.1400 
     38 CB          3.8560  -14.7992  -43.6702 C.3       7 UNK        -0.1800 
     39 N           2.4723  -15.9576  -42.0094 N.am      7 UNK        -0.5000 
     40 C           1.9494  -16.9121  -41.2214 C.2       6 UNK         0.5000 
     41 O           2.3750  -18.0660  -41.1465 O.2       6 UNK        -0.5000 
     42 CA          0.7607  -16.5120  -40.3295 C.3       6 UNK         0.1400 
     43 CB          1.2636  -16.1103  -38.9346 C.3       6 UNK        -0.1800 
     44 N          -0.0644  -15.4262  -40.8518 N.am      6 UNK        -0.5000 
     45 C          -0.8583  -15.4734  -41.9259 C.2       5 UNK         0.5000 
     46 O          -0.9116  -16.4364  -42.6910 O.2       5 UNK        -0.5000 
     47 CA         -1.7626  -14.2492  -42.1958 C.3       5 UNK         0.1400 
     48 CB         -3.1642  -14.4699  -41.5997 C.3       5 UNK        -0.1800 
     49 N          -1.2188  -12.9435  -41.7857 N.am      5 UNK        -0.5000 
     50 C          -0.8873  -12.4904  -40.5645 C.2       4 UNK         0.5000 
     51 O          -1.0481  -13.1420  -39.5319 O.2       4 UNK        -0.5000 
     52 CA         -0.2284  -11.0923  -40.4899 C.3       4 UNK         0.1400 
     53 CB          0.7431  -10.9607  -39.2981 C.3       4 UNK        -0.1800 
     54 N           0.4288  -10.6869  -41.7398 N.am      4 UNK        -0.5000 
     55 C           1.4315  -11.3160  -42.3708 C.2       3 UNK         0.5000 
     56 O           2.0048  -12.3188  -41.9409 O.2       3 UNK        -0.5000 
     57 CA          1.7683  -10.7908  -43.7795 C.3       3 UNK         0.1400 
     58 CB          3.2855  -10.6577  -43.9880 C.3       3 UNK        -0.1800 
     59 N           1.2150  -11.6766  -44.8075 N.am      3 UNK        -0.5000 
     60 C          -0.0909  -11.9354  -44.9819 C.2       2 UNK         0.5000 
     61 O          -0.9898  -11.3974  -44.3354 O.2       2 UNK        -0.5000 
     62 CA         -0.4519  -13.0382  -45.9822 C.3       2 UNK         0.1400 
     63 CB         -0.2727  -12.5644  -47.4339 C.3       2 UNK        -0.1800 
     64 N           0.3734  -14.2129  -45.7054 N.am      2 UNK        -0.5000 
     65 C           0.0721  -15.5081  -45.8539 C.2       1 UNK         0.5000 
     66 O           0.8343  -16.3754  -45.4347 O.2       1 UNK        -0.5000 
     67 C          -0.5391  -22.9343  -47.6712 C.2       11 UNK         0.5000 
     68 O          -1.1998  -23.6734  -48.3994 O.2       11 UNK        -0.5000 
     69 N          -1.0425  -21.8659  -47.0357 N.am      12 UNK        -0.5000 
     70 CA         -2.4103  -21.3643  -47.1739 C.3       12 UNK         0.1400 
     71 CB         -2.5793  -20.1119  -46.3071 C.3       12 UNK        -0.1800 
     72 C          -3.4934  -22.3985  -46.8241 C.2       12 UNK         0.5000 
     73 O          -4.5078  -22.4624  -47.5175 O.2       12 UNK        -0.5000 
     74 N          -3.2489  -23.2022  -45.7819 N.am      13 UNK        -0.5000 
     75 CA         -4.1232  -24.2923  -45.3502 C.3       13 UNK         0.1400 
     76 CB         -3.6154  -24.8392  -44.0075 C.3       13 UNK        -0.1800 
     77 C          -4.2394  -25.4292  -46.3841 C.2       13 UNK         0.5000 
     78 O          -5.3074  -26.0309  -46.5024 O.2       13 UNK        -0.5000 
     79 N          -3.1485  -25.7000  -47.1126 N.am      14 UNK        -0.5000 
     80 CA         -3.0824  -26.7317  -48.1457 C.3       14 UNK         0.1400 
     81 CB         -1.6329  -27.2278  -48.2693 C.3       14 UNK        -0.1800 
     82 C          -3.5982  -26.2200  -49.5014 C.2       14 UNK         0.5000 
     83 O          -4.3362  -26.9325  -50.1822 O.2       14 UNK        -0.5000 
     84 N          -3.1965  -24.9970  -49.8690 N.am      15 UNK        -0.5000 
     85 CA         -3.4545  -24.3822  -51.1718 C.3       15 UNK         0.1400 
     86 CB         -2.2553  -23.4953  -51.5359 C.3       15 UNK        -0.1800 
     87 C          -4.7677  -23.5789  -51.2406 C.2       15 UNK         0.5000 
     88 O          -5.0027  -22.9209  -52.2549 O.2       15 UNK        -0.5000 
     89 N          -5.5820  -23.6198  -50.1759 N.am      16 UNK        -0.5000 
     90 CA         -6.8819  -22.9542  -50.0278 C.3       16 UNK         0.1400 
     91 CB         -7.9146  -23.5583  -51.0031 C.3       16 UNK        -0.1800 
     92 C          -6.7630  -21.4220  -50.1512 C.2       16 UNK         0.5000 
     93 O          -7.3408  -20.8190  -51.0558 O.2       16 UNK        -0.5000 
     94 N          -5.9588  -20.8318  -49.2562 N.am      17 UNK        -0.5000 
     95 CA         -5.5841  -19.4122  -49.2082 C.3       17 UNK         0.1400 
     96 CB         -6.8049  -18.5206  -48.9004 C.3       17 UNK        -0.1800 
     97 C          -4.8035  -18.9717  -50.4647 C.2       17 UNK         0.5000 
     98 O          -5.0007  -17.8645  -50.9659 O.2       17 UNK        -0.5000 
     99 N          -3.9431  -19.8803  -50.9497 N.am      18 UNK        -0.5000 
    100 CA        -3.0813  -19.7772  -52.1331 C.3       18 UNK         0.1400 
    101 CB        -2.1460  -18.5552  -52.0442 C.3       18 UNK        -0.1800 
    102 C         -3.8263  -19.8324  -53.4830 C.2       18 UNK         0.5000 
    103 O         -3.1750  -19.7153  -54.5221 O.2       18 UNK        -0.5000 
    104 N         -5.1502  -20.0477  -53.4755 N.am      19 UNK        -0.5000 
    105 CA        -5.9982  -20.0909  -54.6701 C.3       19 UNK         0.1400 
    106 CB        -7.4731  -20.1512  -54.2482 C.3       19 UNK        -0.1800 
    107 C         -5.6680  -21.2520  -55.6265 C.2       19 UNK         0.5000 
    108 O         -5.7916  -21.0869  -56.8405 O.2       19 UNK        -0.5000 
    109 N         -5.2338  -22.3916  -55.0722 N.am      20 UNK        -0.5000 
    110 CA        -4.7799  -23.5584  -55.8322 C.3       20 UNK         0.1400 
    111 CB        -5.0115  -24.8220  -54.9888 C.3       20 UNK        -0.1800 
    112 C         -3.3009  -23.4558  -56.2605 C.2       20 UNK         0.5000 
    113 O         -2.8409  -24.3062  -57.0241 O.2       20 UNK        -0.5000 
    114 N         -2.5820  -22.4441  -55.7568 N.am      21 UNK        -0.5000 
    115 CA        -1.1832  -22.1634  -56.0570 C.3       21 UNK         0.1400 
    116 CB        -0.4174  -21.9776  -54.7316 C.3       21 UNK        -0.1800 
    117 C         -1.1116  -20.9522  -57.0059 C.2       21 UNK         0.5000 
    118 O         -1.5364  -21.0663  -58.1572 O.2       21 UNK        -0.5000 
    119 N         -0.5675  -19.8269  -56.5277 N.am      22 UNK        -0.5000 
    120 CA        -0.4206  -18.5694  -57.2775 C.3       22 UNK         0.1400 
    121 C         -1.7390  -17.7692  -57.5008 C.2       22 UNK         0.5000 
    122 N         -2.8256  -18.0483  -56.7919 N.am      22 UNK        -0.7600 
    123 O         -1.7789  -16.8836  -58.3510 O.2       22 UNK        -0.5000 
    124 C124        0.7040  -17.6778  -56.6851 C.3       23 UNK        -0.0398 
    125 S125        0.4773  -17.3069  -54.9090 S.3       23 UNK        -0.2404 
    126 C126        1.9190  -18.1292  -54.1575 C.3       23 UNK        -0.0205 
    127 H127       -3.2171  -17.6945  -43.4798 H         1 UNK         0.0600 
    128 H128       -4.6819  -16.7450  -43.7578 H         1 UNK         0.0600 
    129 H129       -4.5022  -18.3341  -44.5050 H         1 UNK         0.0600 
    130 H130       -1.4925  -16.7960  -44.5958 H         1 UNK         0.3000 
    131 H131       -1.8158  -15.1001  -46.8663 H         1 UNK         0.0600 
    132 H132       -1.9656  -17.3976  -47.9779 H         1 UNK         0.0800 
    133 H133       -0.3349  -17.7125  -47.4636 H         1 UNK         0.0800 
    134 H134        1.8425  -15.7520  -49.7302 H         1 UNK         0.0800 
    135 H135        1.6422  -16.8960  -48.4383 H         1 UNK         0.0800 
    136 H136        1.8256  -16.4187  -52.0389 H         1 UNK         0.1150 
    137 H137        1.3785  -20.5537  -53.0480 H         1 UNK         0.1150 
    138 H138        0.7319  -19.2561  -49.0145 H         1 UNK         0.1150 
    139 H139       -0.2298  -21.4290  -49.9295 H         1 UNK         0.0800 
    140 H140        0.2031  -21.9654  -51.5211 H         1 UNK         0.0800 
    141 H141        1.5497  -21.1783  -48.0122 H         1 UNK         0.0800 
    142 H142        2.8749  -22.2805  -47.8106 H         1 UNK         0.0800 
    143 H143        1.1659  -24.2221  -47.8311 H         1 UNK         0.0600 
    144 H144        1.5900  -22.3948  -45.6036 H         1 UNK         0.3000 
    145 H145        0.2423  -24.5291  -43.1290 H         1 UNK         0.0600 
    146 H146        2.4979  -24.3471  -42.1120 H         1 UNK         0.0600 
    147 H147        2.5227  -25.5109  -43.4270 H         1 UNK         0.0600 
    148 H148        3.1971  -23.9039  -43.6698 H         1 UNK         0.0600 
    149 H149        1.6867  -22.0606  -42.9980 H         1 UNK         0.3000 
    150 H150       -0.9871  -19.8651  -43.7302 H         1 UNK         0.0600 
    151 H151       -1.4126  -20.5785  -41.3217 H         1 UNK         0.0600 
    152 H152       -0.7270  -18.9809  -41.5216 H         1 UNK         0.0600 
    153 H153        0.3006  -20.3208  -41.0006 H         1 UNK         0.0600 
    154 H154        1.5971  -19.2811  -42.7695 H         1 UNK         0.3000 
    155 H155        3.6649  -19.7543  -44.5096 H         1 UNK         0.0600 
    156 H156        4.2643  -18.3664  -46.5358 H         1 UNK         0.0600 
    157 H157        2.5517  -18.2604  -46.9376 H         1 UNK         0.0600 
    158 H158        3.3695  -19.8172  -46.9577 H         1 UNK         0.0600 
    159 H159        2.1021  -17.2529  -44.3147 H         1 UNK         0.3000 
    160 H160        4.5355  -15.9563  -42.0067 H         1 UNK         0.0600 
    161 H161        3.0302  -14.7500  -44.3792 H         1 UNK         0.0600 
    162 H162        4.7826  -14.8239  -44.2452 H         1 UNK         0.0600 
    163 H163        3.8623  -13.8770  -43.0907 H         1 UNK         0.0600 
    164 H164        2.0286  -15.0498  -41.9843 H         1 UNK         0.3000 
    165 H165        0.1229  -17.3875  -40.2108 H         1 UNK         0.0600 
    166 H166        1.8820  -15.2125  -38.9740 H         1 UNK         0.0600 
    167 H167        0.4324  -15.9141  -38.2570 H         1 UNK         0.0600 
    168 H168        1.8638  -16.9049  -38.4894 H         1 UNK         0.0600 
    169 H169       -0.1515  -14.6032  -40.2623 H         1 UNK         0.3000 
    170 H170       -1.8757  -14.1916  -43.2793 H         1 UNK         0.0600 
    171 H171       -3.6021  -15.3993  -41.9640 H         1 UNK         0.0600 
    172 H172       -3.1393  -14.5298  -40.5114 H         1 UNK         0.0600 
    173 H173       -3.8412  -13.6618  -41.8760 H         1 UNK         0.0600 
    174 H174       -1.0498  -12.3054  -42.5570 H         1 UNK         0.3000 
    175 H175       -1.0437  -10.3855  -40.3308 H         1 UNK         0.0600 
    176 H176        1.1955   -9.9696  -39.2656 H         1 UNK         0.0600 
    177 H177        0.2242  -11.1090  -38.3504 H         1 UNK         0.0600 
    178 H178        1.5474  -11.6953  -39.3475 H         1 UNK         0.0600 
    179 H179       -0.0081   -9.9092  -42.2160 H         1 UNK         0.3000 
    180 H180        1.3240   -9.8011  -43.9052 H         1 UNK         0.0600 
    181 H181        3.7901  -11.6227  -43.9377 H         1 UNK         0.0600 
    182 H182        3.7285  -10.0163  -43.2250 H         1 UNK         0.0600 
    183 H183        3.5120  -10.2125  -44.9569 H         1 UNK         0.0600 
    184 H184        1.8898  -12.1346  -45.4011 H         1 UNK         0.3000 
    185 H185       -1.5043  -13.2648  -45.8055 H         1 UNK         0.0600 
    186 H186       -0.7969  -11.6234  -47.6055 H         1 UNK         0.0600 
    187 H187        0.7773  -12.4061  -47.6816 H         1 UNK         0.0600 
    188 H188       -0.6762  -13.2861  -48.1416 H         1 UNK         0.0600 
    189 H189        1.2382  -14.0052  -45.2311 H         1 UNK         0.3000 
    190 H190       -0.4136  -21.3090  -46.4630 H         1 UNK         0.3000 
    191 H191       -2.5423  -21.0795  -48.2195 H         1 UNK         0.0600 
    192 H192       -1.7652  -19.4057  -46.4618 H         1 UNK         0.0600 
    193 H193       -3.5115  -19.6002  -46.5419 H         1 UNK         0.0600 
    194 H194       -2.6097  -20.3594  -45.2468 H         1 UNK         0.0600 
    195 H195       -2.4225  -23.0285  -45.2159 H         1 UNK         0.3000 
    196 H196       -5.1230  -23.8807  -45.1971 H         1 UNK         0.0600 
    197 H197       -4.2476  -25.6531  -43.6501 H         1 UNK         0.0600 
    198 H198       -3.6187  -24.0642  -43.2407 H         1 UNK         0.0600 
    199 H199       -2.5973  -25.2227  -44.0901 H         1 UNK         0.0600 
    200 H200       -2.3227  -25.1296  -46.9864 H         1 UNK         0.3000 
    201 H201       -3.7016  -27.5808  -47.8479 H         1 UNK         0.0600 
    202 H202       -1.2780  -27.6429  -47.3256 H         1 UNK         0.0600 
    203 H203       -0.9517  -26.4256  -48.5559 H         1 UNK         0.0600 
    204 H204       -1.5514  -28.0130  -49.0219 H         1 UNK         0.0600 
    205 H205       -2.5591  -24.4916  -49.2554 H         1 UNK         0.3000 
    206 H206       -3.5240  -25.1693  -51.9245 H         1 UNK         0.0600 
    207 H207       -1.3252  -24.0638  -51.5191 H         1 UNK         0.0600 
    208 H208       -2.3611  -23.0793  -52.5383 H         1 UNK         0.0600 
    209 H209       -2.1534  -22.6666  -50.8358 H         1 UNK         0.0600 
    210 H210       -5.2588  -24.1335  -49.3680 H         1 UNK         0.3000 
    211 H211       -7.2251  -23.1610  -49.0129 H         1 UNK         0.0600 
    212 H212       -7.6498  -23.3749  -52.0451 H         1 UNK         0.0600 
    213 H213       -8.9029  -23.1277  -50.8382 H         1 UNK         0.0600 
    214 H214       -8.0021  -24.6359  -50.8653 H         1 UNK         0.0600 
    215 H215       -5.5047  -21.4332  -48.5686 H         1 UNK         0.3000 
    216 H216       -4.8910  -19.3071  -48.3742 H         1 UNK         0.0600 
    217 H217       -7.3287  -18.8641  -48.0085 H         1 UNK         0.0600 
    218 H218       -7.5181  -18.5061  -49.7250 H         1 UNK         0.0600 
    219 H219       -6.4966  -17.4904  -48.7174 H         1 UNK         0.0600 
    220 H220       -3.9237  -20.7754  -50.4844 H         1 UNK         0.3000 
    221 H221       -2.4455  -20.6611  -52.1136 H         1 UNK         0.0600 
    222 H222       -2.6815  -17.6171  -52.1896 H         1 UNK         0.0600 
    223 H223       -1.6443  -18.5077  -51.0783 H         1 UNK         0.0600 
    224 H224       -1.3713  -18.6034  -52.8094 H         1 UNK         0.0600 
    225 H225       -5.6155  -20.1925  -52.5888 H         1 UNK         0.3000 
    226 H226       -5.8397  -19.1592  -55.2172 H         1 UNK         0.0600 
    227 H227       -7.7332  -19.3180  -53.5950 H         1 UNK         0.0600 
    228 H228       -8.1304  -20.1026  -55.1173 H         1 UNK         0.0600 
    229 H229       -7.6992  -21.0772  -53.7180 H         1 UNK         0.0600 
    230 H230       -5.1737  -22.4580  -54.0573 H         1 UNK         0.3000 
    231 H231       -5.3793  -23.6483  -56.7405 H         1 UNK         0.0600 
    232 H232       -6.0430  -24.8852  -54.6414 H         1 UNK         0.0600 
    233 H233       -4.3601  -24.8442  -54.1163 H         1 UNK         0.0600 
    234 H234       -4.8075  -25.7219  -55.5702 H         1 UNK         0.0600 
    235 H235       -3.0625  -21.7387  -55.2127 H         1 UNK         0.3000 
    236 H236       -0.7268  -23.0033  -56.5844 H         1 UNK         0.0600 
    237 H237       -0.4540  -22.8879  -54.1332 H         1 UNK         0.0600 
    238 H238        0.6357  -21.7646  -54.9182 H         1 UNK         0.0600 
    239 H239       -0.8276  -21.1690  -54.1257 H         1 UNK         0.0600 
    240 H240       -0.2938  -19.7887  -55.5573 H         1 UNK         0.3000 
    241 H241       -0.0913  -18.8445  -58.2815 H         1 UNK         0.0600 
    242 H242       -3.6676  -17.5230  -56.9596 H         1 UNK         0.3800 
    243 H243       -2.8080  -18.7431  -56.0487 H         1 UNK         0.3800 
    244 H244        1.6670  -18.1676  -56.8334 H         1 UNK         0.0800 
    245 H245        0.7776  -16.7344  -57.2289 H         1 UNK         0.0800 
    246 H246        2.1550  -19.0430  -54.7050 H         1 UNK         0.0800 
    247 H247        2.7927  -17.4811  -54.2404 H         1 UNK         0.0800 
@<TRIPOS>BOND
     1    1    2 1    
     2    1  127 1    
     3    1  128 1    
     4    1  129 1    
     5    2    3 2    
     6    2    4 am   BACKBONE|DICT|INTERRES
     7    4    5 1    
     8    4  130 1    
     9    5    6 1    
    10    5   65 1    
    11    5  131 1    
    12    6    7 1    
    13    6  132 1    
    14    6  133 1    
    15    7    8 1    
    16    8    9 1    
    17    8  134 1    
    18    8  135 1    
    19    9   10 ar   
    20    9   14 ar   
    21   10   11 ar   
    22   10  136 1    
    23   11   12 ar   
    24   11  126 1    
    25   12   13 ar   
    26   12  137 1    
    27   13   14 ar   
    28   13   15 1    
    29   14  138 1    
    30   15   16 1    
    31   15  139 1    
    32   15  140 1    
    33   16   17 1    
    34   17   18 1    
    35   17  141 1    
    36   17  142 1    
    37   18   19 1    
    38   18   67 1    
    39   18  143 1    
    40   19   20 am   BACKBONE|DICT|INTERRES
    41   19  144 1    
    42   20   21 2    
    43   20   22 1    
    44   22   23 1    
    45   22   24 1    
    46   22  145 1    
    47   23  146 1    
    48   23  147 1    
    49   23  148 1    
    50   24   25 am   BACKBONE|DICT|INTERRES
    51   24  149 1    
    52   25   26 2    
    53   25   27 1    
    54   27   28 1    
    55   27   29 1    
    56   27  150 1    
    57   28  151 1    
    58   28  152 1    
    59   28  153 1    
    60   29   30 am   BACKBONE|DICT|INTERRES
    61   29  154 1    
    62   30   31 2    
    63   30   32 1    
    64   32   33 1    
    65   32   34 1    
    66   32  155 1    
    67   33  156 1    
    68   33  157 1    
    69   33  158 1    
    70   34   35 am   BACKBONE|DICT|INTERRES
    71   34  159 1    
    72   35   36 2    
    73   35   37 1    
    74   37   38 1    
    75   37   39 1    
    76   37  160 1    
    77   38  161 1    
    78   38  162 1    
    79   38  163 1    
    80   39   40 am   BACKBONE|DICT|INTERRES
    81   39  164 1    
    82   40   41 2    
    83   40   42 1    
    84   42   43 1    
    85   42   44 1    
    86   42  165 1    
    87   43  166 1    
    88   43  167 1    
    89   43  168 1    
    90   44   45 am   BACKBONE|DICT|INTERRES
    91   44  169 1    
    92   45   46 2    
    93   45   47 1    
    94   47   48 1    
    95   47   49 1    
    96   47  170 1    
    97   48  171 1    
    98   48  172 1    
    99   48  173 1    
   100   49   50 am   BACKBONE|DICT|INTERRES
   101   49  174 1    
   102   50   51 2    
   103   50   52 1    
   104   52   53 1    
   105   52   54 1    
   106   52  175 1    
   107   53  176 1    
   108   53  177 1    
   109   53  178 1    
   110   54   55 am   BACKBONE|DICT|INTERRES
   111   54  179 1    
   112   55   56 2    
   113   55   57 1    
   114   57   58 1    
   115   57   59 1    
   116   57  180 1    
   117   58  181 1    
   118   58  182 1    
   119   58  183 1    
   120   59   60 am   BACKBONE|DICT|INTERRES
   121   59  184 1    
   122   60   61 2    
   123   60   62 1    
   124   62   63 1    
   125   62   64 1    
   126   62  185 1    
   127   63  186 1    
   128   63  187 1    
   129   63  188 1    
   130   64   65 am   BACKBONE|DICT|INTERRES
   131   64  189 1    
   132   65   66 2    
   133   67   68 2    
   134   67   69 am   BACKBONE|DICT|INTERRES
   135   69   70 1    
   136   69  190 1    
   137   70   71 1    
   138   70   72 1    
   139   70  191 1    
   140   71  192 1    
   141   71  193 1    
   142   71  194 1    
   143   72   73 2    
   144   72   74 am   BACKBONE|DICT|INTERRES
   145   74   75 1    
   146   74  195 1    
   147   75   76 1    
   148   75   77 1    
   149   75  196 1    
   150   76  197 1    
   151   76  198 1    
   152   76  199 1    
   153   77   78 2    
   154   77   79 am   BACKBONE|DICT|INTERRES
   155   79   80 1    
   156   79  200 1    
   157   80   81 1    
   158   80   82 1    
   159   80  201 1    
   160   81  202 1    
   161   81  203 1    
   162   81  204 1    
   163   82   83 2    
   164   82   84 am   BACKBONE|DICT|INTERRES
   165   84   85 1    
   166   84  205 1    
   167   85   86 1    
   168   85   87 1    
   169   85  206 1    
   170   86  207 1    
   171   86  208 1    
   172   86  209 1    
   173   87   88 2    
   174   87   89 am   BACKBONE|DICT|INTERRES
   175   89   90 1    
   176   89  210 1    
   177   90   91 1    
   178   90   92 1    
   179   90  211 1    
   180   91  212 1    
   181   91  213 1    
   182   91  214 1    
   183   92   93 2    
   184   92   94 am   BACKBONE|DICT|INTERRES
   185   94   95 1    
   186   94  215 1    
   187   95   96 1    
   188   95   97 1    
   189   95  216 1    
   190   96  217 1    
   191   96  218 1    
   192   96  219 1    
   193   97   98 2    
   194   97   99 am   BACKBONE|DICT|INTERRES
   195   99  100 1    
   196   99  220 1    
   197  100  101 1    
   198  100  102 1    
   199  100  221 1    
   200  101  222 1    
   201  101  223 1    
   202  101  224 1    
   203  102  103 2    
   204  102  104 am   BACKBONE|DICT|INTERRES
   205  104  105 1    
   206  104  225 1    
   207  105  106 1    
   208  105  107 1    
   209  105  226 1    
   210  106  227 1    
   211  106  228 1    
   212  106  229 1    
   213  107  108 2    
   214  107  109 am   BACKBONE|DICT|INTERRES
   215  109  110 1    
   216  109  230 1    
   217  110  111 1    
   218  110  112 1    
   219  110  231 1    
   220  111  232 1    
   221  111  233 1    
   222  111  234 1    
   223  112  113 2    
   224  112  114 am   BACKBONE|DICT|INTERRES
   225  114  115 1    
   226  114  235 1    
   227  115  116 1    
   228  115  117 1    
   229  115  236 1    
   230  116  237 1    
   231  116  238 1    
   232  116  239 1    
   233  117  118 2    
   234  117  119 am   BACKBONE|DICT|INTERRES
   235  119  120 1    
   236  119  240 1    
   237  120  121 1    
   238  120  124 1    
   239  120  241 1    
   240  121  122 am   BACKBONE|DICT|INTERRES
   241  121  123 2    
   242  122  242 1    
   243  122  243 1    
   244  124  125 1    
   245  124  244 1    
   246  124  245 1    
   247  125  126 1    
   248  126  246 1    
   249  126  247 1    
@<TRIPOS>SUBSTRUCTURE
     1 UNK         1 GROUP             0       ****    0 ROOT    
