@<TRIPOS>MOLECULE
3R540
247   249    1
SMALL
USER_CHARGES


@<TRIPOS>ATOM
      1 CA          4.8529  -17.7181  -47.9011 C.3       0 UNK        -0.1800 
      2 C           3.8353  -16.7289  -47.3557 C.2       0 UNK         0.5000 
      3 O           3.5722  -16.7172  -46.1541 O.2       0 UNK        -0.5000 
      4 N           3.2816  -15.8772  -48.2272 N.am      1 UNK        -0.5000 
      5 CA          2.3351  -14.8048  -47.8940 C.3       1 UNK         0.1400 
      6 C6          1.4908  -14.3785  -49.1233 C.3       23 UNK        -0.0398 
      7 S7          0.3521  -15.6985  -49.6498 S.3       23 UNK        -0.2404 
      8 C8          1.1925  -16.3963  -51.1007 C.3       23 UNK        -0.0205 
      9 C9          0.8684  -17.8747  -51.2264 C.ar      23 UNK        -0.0193 
     10 C10        -0.3558  -18.2865  -51.7593 C.ar      23 UNK        -0.1150 
     11 C11        -0.6684  -19.6454  -51.8484 C.ar      23 UNK        -0.0193 
     12 C12         0.2504  -20.5950  -51.3909 C.ar      23 UNK        -0.1150 
     13 C13         1.4813  -20.1962  -50.8584 C.ar      23 UNK        -0.0193 
     14 C14         1.7864  -18.8328  -50.7897 C.ar      23 UNK        -0.1150 
     15 C15         2.4798  -21.2503  -50.3907 C.3       23 UNK        -0.0205 
     16 S16         3.3226  -20.8645  -48.8140 S.3       23 UNK        -0.2404 
     17 C17         1.9514  -20.5004  -47.6623 C.3       23 UNK        -0.0398 
     18 CA          1.4184  -21.7624  -46.9427 C.3       11 UNK         0.1400 
     19 N           0.8151  -21.4487  -45.6448 N.am      11 UNK        -0.5000 
     20 C           0.4052  -22.3670  -44.7572 C.2       10 UNK         0.5000 
     21 O           0.5572  -23.5806  -44.9059 O.2       10 UNK        -0.5000 
     22 CA         -0.3461  -21.8456  -43.5193 C.3       10 UNK         0.1400 
     23 CB          0.6382  -21.3325  -42.4579 C.3       10 UNK        -0.1800 
     24 N          -1.3183  -20.8002  -43.8482 N.am      10 UNK        -0.5000 
     25 C          -2.3983  -20.9926  -44.6198 C.2       9 UNK         0.5000 
     26 O          -2.7057  -22.0827  -45.0969 O.2       9 UNK        -0.5000 
     27 CA         -3.2661  -19.7661  -44.9501 C.3       9 UNK         0.1400 
     28 CB         -4.2452  -19.4667  -43.8063 C.3       9 UNK        -0.1800 
     29 N          -2.4813  -18.5719  -45.2568 N.am      9 UNK        -0.5000 
     30 C          -1.6327  -18.4566  -46.2887 C.2       8 UNK         0.5000 
     31 O          -1.4254  -19.3495  -47.1101 O.2       8 UNK        -0.5000 
     32 CA         -0.8373  -17.1415  -46.3788 C.3       8 UNK         0.1400 
     33 CB         -1.7303  -15.9936  -46.8747 C.3       8 UNK        -0.1800 
     34 N          -0.2278  -16.7689  -45.1018 N.am      8 UNK        -0.5000 
     35 C           0.6563  -17.5226  -44.4305 C.2       7 UNK         0.5000 
     36 O           1.0932  -18.6006  -44.8361 O.2       7 UNK        -0.5000 
     37 CA          1.0527  -17.0189  -43.0321 C.3       7 UNK         0.1400 
     38 CB          2.1016  -15.8982  -43.1135 C.3       7 UNK        -0.1800 
     39 N          -0.1139  -16.5526  -42.2805 N.am      7 UNK        -0.5000 
     40 C          -1.0828  -17.3578  -41.8190 C.2       6 UNK         0.5000 
     41 O          -1.0750  -18.5806  -41.9505 O.2       6 UNK        -0.5000 
     42 CA         -2.2818  -16.6821  -41.1291 C.3       6 UNK         0.1400 
     43 CB         -1.9711  -16.4090  -39.6500 C.3       6 UNK        -0.1800 
     44 N          -2.6762  -15.4329  -41.7795 N.am      6 UNK        -0.5000 
     45 C          -3.1635  -15.3421  -43.0255 C.2       5 UNK         0.5000 
     46 O          -3.3846  -16.3151  -43.7436 O.2       5 UNK        -0.5000 
     47 CA         -3.3946  -13.9234  -43.5782 C.3       5 UNK         0.1400 
     48 CB         -4.8312  -13.4610  -43.2947 C.3       5 UNK        -0.1800 
     49 N          -2.4510  -12.9451  -43.0315 N.am      5 UNK        -0.5000 
     50 C          -1.1305  -12.9637  -43.2528 C.2       4 UNK         0.5000 
     51 O          -0.5663  -13.7941  -43.9712 O.2       4 UNK        -0.5000 
     52 CA         -0.3008  -11.9341  -42.4689 C.3       4 UNK         0.1400 
     53 CB          0.3312  -12.5949  -41.2339 C.3       4 UNK        -0.1800 
     54 N           0.7582  -11.3532  -43.2856 N.am      4 UNK        -0.5000 
     55 C           0.5793  -10.4947  -44.2940 C.2       3 UNK         0.5000 
     56 O          -0.5246  -10.0669  -44.6344 O.2       3 UNK        -0.5000 
     57 CA          1.8371  -10.0231  -45.0514 C.3       3 UNK         0.1400 
     58 CB          2.5240   -8.8582  -44.3137 C.3       3 UNK        -0.1800 
     59 N           2.7962  -11.0861  -45.3813 N.am      3 UNK        -0.5000 
     60 C           3.5528  -11.8455  -44.5777 C.2       2 UNK         0.5000 
     61 O           3.5401  -11.7666  -43.3477 O.2       2 UNK        -0.5000 
     62 CA          4.4447  -12.8908  -45.2810 C.3       2 UNK         0.1400 
     63 CB          5.3201  -13.6843  -44.2944 C.3       2 UNK        -0.1800 
     64 N           3.6647  -13.8419  -46.0738 N.am      2 UNK        -0.5000 
     65 C           3.0790  -13.6111  -47.2549 C.2       1 UNK         0.5000 
     66 O           3.1312  -12.5234  -47.8333 O.2       1 UNK        -0.5000 
     67 C           0.4361  -22.5406  -47.8384 C.2       11 UNK         0.5000 
     68 O           0.7946  -23.5889  -48.3744 O.2       11 UNK        -0.5000 
     69 N          -0.7987  -22.0349  -47.9482 N.am      12 UNK        -0.5000 
     70 CA         -1.8785  -22.6474  -48.7140 C.3       12 UNK         0.1400 
     71 CB         -3.0875  -21.7132  -48.7152 C.3       12 UNK        -0.1800 
     72 C          -2.2638  -24.0486  -48.2129 C.2       12 UNK         0.5000 
     73 O          -2.4625  -24.9406  -49.0341 O.2       12 UNK        -0.5000 
     74 N          -2.3116  -24.2397  -46.8878 N.am      13 UNK        -0.5000 
     75 CA         -2.5539  -25.5320  -46.2457 C.3       13 UNK         0.1400 
     76 CB         -2.7103  -25.3385  -44.7301 C.3       13 UNK        -0.1800 
     77 C          -1.4561  -26.5664  -46.5538 C.2       13 UNK         0.5000 
     78 O          -1.7777  -27.7252  -46.8178 O.2       13 UNK        -0.5000 
     79 N          -0.1895  -26.1259  -46.5547 N.am      14 UNK        -0.5000 
     80 CA          0.9665  -26.9427  -46.9298 C.3       14 UNK         0.1400 
     81 CB          2.2593  -26.2238  -46.5146 C.3       14 UNK        -0.1800 
     82 C           0.9846  -27.2896  -48.4318 C.2       14 UNK         0.5000 
     83 O           1.3230  -28.4177  -48.7917 O.2       14 UNK        -0.5000 
     84 N           0.5998  -26.3235  -49.2762 N.am      15 UNK        -0.5000 
     85 CA          0.4917  -26.4674  -50.7300 C.3       15 UNK         0.1400 
     86 CB          0.4590  -25.0656  -51.3607 C.3       15 UNK        -0.1800 
     87 C          -0.7341  -27.2846  -51.1898 C.2       15 UNK         0.5000 
     88 O          -0.7588  -27.7224  -52.3407 O.2       15 UNK        -0.5000 
     89 N          -1.7264  -27.4495  -50.3021 N.am      16 UNK        -0.5000 
     90 CA         -3.0627  -28.0074  -50.5407 C.3       16 UNK         0.1400 
     91 CB         -2.9895  -29.4988  -50.9298 C.3       16 UNK        -0.1800 
     92 C          -3.8695  -27.1452  -51.5366 C.2       16 UNK         0.5000 
     93 O          -4.4811  -27.6672  -52.4712 O.2       16 UNK        -0.5000 
     94 N          -3.8259  -25.8278  -51.3163 N.am      17 UNK        -0.5000 
     95 CA         -4.4395  -24.7835  -52.1291 C.3       17 UNK         0.1400 
     96 CB         -3.3055  -23.9108  -52.6953 C.3       17 UNK        -0.1800 
     97 C          -5.4055  -23.9372  -51.2790 C.2       17 UNK         0.5000 
     98 O          -5.4967  -24.1237  -50.0630 O.2       17 UNK        -0.5000 
     99 N          -6.1074  -23.0056  -51.9368 N.am      18 UNK        -0.5000 
    100 CA        -6.9263  -21.9770  -51.2920 C.3       18 UNK         0.1400 
    101 CB        -7.8759  -21.3708  -52.3374 C.3       18 UNK        -0.1800 
    102 C         -6.0432  -20.8749  -50.6773 C.2       18 UNK         0.5000 
    103 O         -4.9819  -20.5756  -51.2241 O.2       18 UNK        -0.5000 
    104 N         -6.5099  -20.2682  -49.5773 N.am      19 UNK        -0.5000 
    105 CA        -5.8043  -19.2126  -48.8350 C.3       19 UNK         0.1400 
    106 CB        -6.4055  -19.1121  -47.4234 C.3       19 UNK        -0.1800 
    107 C         -5.7933  -17.8344  -49.5317 C.2       19 UNK         0.5000 
    108 O         -5.1114  -16.9242  -49.0583 O.2       19 UNK        -0.5000 
    109 N         -6.5510  -17.6993  -50.6270 N.am      20 UNK        -0.5000 
    110 CA        -6.5666  -16.5395  -51.5169 C.3       20 UNK         0.1400 
    111 CB        -7.9188  -16.5255  -52.2565 C.3       20 UNK        -0.1800 
    112 C         -5.3643  -16.5537  -52.4900 C.2       20 UNK         0.5000 
    113 O         -4.3804  -17.2617  -52.2653 O.2       20 UNK        -0.5000 
    114 N         -5.4598  -15.7759  -53.5756 N.am      21 UNK        -0.5000 
    115 CA        -4.5013  -15.7600  -54.6811 C.3       21 UNK         0.1400 
    116 CB        -4.6964  -14.4639  -55.4881 C.3       21 UNK        -0.1800 
    117 C         -4.6567  -17.0255  -55.5505 C.2       21 UNK         0.5000 
    118 O         -5.3176  -16.9844  -56.5905 O.2       21 UNK        -0.5000 
    119 N         -4.0936  -18.1387  -55.0683 N.am      22 UNK        -0.5000 
    120 CA        -4.1040  -19.4587  -55.7138 C.3       22 UNK         0.1400 
    121 C         -3.4046  -19.5011  -57.1063 C.2       22 UNK         0.5000 
    122 N         -3.7724  -20.4493  -57.9583 N.am      22 UNK        -0.7600 
    123 O         -2.5186  -18.7065  -57.4157 O.2       22 UNK        -0.5000 
    124 C124       -3.5734  -20.5606  -54.7566 C.3       23 UNK        -0.0398 
    125 S125       -1.8314  -20.3445  -54.2418 S.3       23 UNK        -0.2404 
    126 C126       -1.9941  -20.0810  -52.4497 C.3       23 UNK        -0.0205 
    127 H127        5.8624  -17.3342  -47.7558 H         1 UNK         0.0600 
    128 H128        4.7033  -17.9038  -48.9647 H         1 UNK         0.0600 
    129 H129        4.7735  -18.6688  -47.3747 H         1 UNK         0.0600 
    130 H130        3.5704  -15.9136  -49.1932 H         1 UNK         0.3000 
    131 H131        1.6436  -15.1779  -47.1346 H         1 UNK         0.0600 
    132 H132        0.8719  -13.5134  -48.8781 H         1 UNK         0.0800 
    133 H133        2.1262  -14.0701  -49.9551 H         1 UNK         0.0800 
    134 H134        2.2708  -16.2551  -51.0202 H         1 UNK         0.0800 
    135 H135        0.8751  -15.8624  -51.9974 H         1 UNK         0.0800 
    136 H136       -1.0685  -17.5480  -52.0998 H         1 UNK         0.1150 
    137 H137        0.0098  -21.6464  -51.4631 H         1 UNK         0.1150 
    138 H138        2.7356  -18.5163  -50.3825 H         1 UNK         0.1150 
    139 H139        1.9958  -22.2223  -50.3009 H         1 UNK         0.0800 
    140 H140        3.2394  -21.3664  -51.1645 H         1 UNK         0.0800 
    141 H141        1.1554  -19.9435  -48.1594 H         1 UNK         0.0800 
    142 H142        2.3616  -19.8091  -46.9249 H         1 UNK         0.0800 
    143 H143        2.2642  -22.4216  -46.7344 H         1 UNK         0.0600 
    144 H144        0.6804  -20.4652  -45.4283 H         1 UNK         0.3000 
    145 H145       -0.8954  -22.6860  -43.0898 H         1 UNK         0.0600 
    146 H146        1.3705  -22.0988  -42.2008 H         1 UNK         0.0600 
    147 H147        1.1865  -20.4566  -42.8052 H         1 UNK         0.0600 
    148 H148        0.1187  -21.0593  -41.5394 H         1 UNK         0.0600 
    149 H149       -1.1568  -19.8843  -43.4410 H         1 UNK         0.3000 
    150 H150       -3.8527  -20.0073  -45.8381 H         1 UNK         0.0600 
    151 H151       -4.8523  -20.3420  -43.5720 H         1 UNK         0.0600 
    152 H152       -4.9279  -18.6601  -44.0739 H         1 UNK         0.0600 
    153 H153       -3.7220  -19.1748  -42.8953 H         1 UNK         0.0600 
    154 H154       -2.6256  -17.7700  -44.6479 H         1 UNK         0.3000 
    155 H155       -0.0296  -17.2897  -47.0984 H         1 UNK         0.0600 
    156 H156       -2.5662  -15.8057  -46.2026 H         1 UNK         0.0600 
    157 H157       -1.1654  -15.0664  -46.9721 H         1 UNK         0.0600 
    158 H158       -2.1502  -16.2259  -47.8545 H         1 UNK         0.0600 
    159 H159       -0.5251  -15.8925  -44.6900 H         1 UNK         0.3000 
    160 H160        1.4953  -17.8552  -42.4867 H         1 UNK         0.0600 
    161 H161        1.7527  -15.0492  -43.7015 H         1 UNK         0.0600 
    162 H162        3.0173  -16.2631  -43.5788 H         1 UNK         0.0600 
    163 H163        2.3694  -15.5331  -42.1221 H         1 UNK         0.0600 
    164 H164       -0.2209  -15.5545  -42.1811 H         1 UNK         0.3000 
    165 H165       -3.1274  -17.3711  -41.1798 H         1 UNK         0.0600 
    166 H166       -2.8403  -16.0016  -39.1332 H         1 UNK         0.0600 
    167 H167       -1.6898  -17.3285  -39.1348 H         1 UNK         0.0600 
    168 H168       -1.1485  -15.7022  -39.5332 H         1 UNK         0.0600 
    169 H169       -2.5381  -14.5821  -41.2553 H         1 UNK         0.3000 
    170 H170       -3.2537  -13.9615  -44.6603 H         1 UNK         0.0600 
    171 H171       -5.5554  -14.1624  -43.7114 H         1 UNK         0.0600 
    172 H172       -5.0271  -13.3838  -42.2245 H         1 UNK         0.0600 
    173 H173       -5.0282  -12.4876  -43.7442 H         1 UNK         0.0600 
    174 H174       -2.8395  -12.2338  -42.4286 H         1 UNK         0.3000 
    175 H175       -0.9554  -11.1266  -42.1342 H         1 UNK         0.0600 
    176 H176        1.0247  -13.3891  -41.5131 H         1 UNK         0.0600 
    177 H177        0.8822  -11.8671  -40.6379 H         1 UNK         0.0600 
    178 H178       -0.4301  -13.0330  -40.5873 H         1 UNK         0.0600 
    179 H179        1.7104  -11.6540  -43.0950 H         1 UNK         0.3000 
    180 H180        1.4916   -9.6386  -46.0124 H         1 UNK         0.0600 
    181 H181        2.8905   -9.1555  -43.3309 H         1 UNK         0.0600 
    182 H182        1.8297   -8.0305  -44.1640 H         1 UNK         0.0600 
    183 H183        3.3691   -8.4738  -44.8848 H         1 UNK         0.0600 
    184 H184        2.8586  -11.3062  -46.3720 H         1 UNK         0.3000 
    185 H185        5.1118  -12.3457  -45.9521 H         1 UNK         0.0600 
    186 H186        5.9554  -13.0175  -43.7101 H         1 UNK         0.0600 
    187 H187        4.7155  -14.2615  -43.5938 H         1 UNK         0.0600 
    188 H188        5.9763  -14.3784  -44.8199 H         1 UNK         0.0600 
    189 H189        3.6005  -14.7874  -45.7087 H         1 UNK         0.3000 
    190 H190       -1.0118  -21.1469  -47.4992 H         1 UNK         0.3000 
    191 H191       -1.5339  -22.7501  -49.7441 H         1 UNK         0.0600 
    192 H192       -3.4323  -21.4931  -47.7056 H         1 UNK         0.0600 
    193 H193       -3.9187  -22.1636  -49.2529 H         1 UNK         0.0600 
    194 H194       -2.8478  -20.7709  -49.2084 H         1 UNK         0.0600 
    195 H195       -2.2056  -23.4378  -46.2707 H         1 UNK         0.3000 
    196 H196       -3.4956  -25.9232  -46.6363 H         1 UNK         0.0600 
    197 H197       -2.8949  -26.2904  -44.2307 H         1 UNK         0.0600 
    198 H198       -3.5514  -24.6837  -44.5020 H         1 UNK         0.0600 
    199 H199       -1.8160  -24.9011  -44.2854 H         1 UNK         0.0600 
    200 H200       -0.0059  -25.1604  -46.3052 H         1 UNK         0.3000 
    201 H201        0.9106  -27.8809  -46.3739 H         1 UNK         0.0600 
    202 H202        2.2750  -26.0311  -45.4417 H         1 UNK         0.0600 
    203 H203        2.3742  -25.2678  -47.0257 H         1 UNK         0.0600 
    204 H204        3.1352  -26.8293  -46.7503 H         1 UNK         0.0600 
    205 H205        0.4125  -25.3985  -48.8976 H         1 UNK         0.3000 
    206 H206        1.3835  -26.9832  -51.0915 H         1 UNK         0.0600 
    207 H207        1.3518  -24.4964  -51.1025 H         1 UNK         0.0600 
    208 H208        0.4143  -25.1240  -52.4489 H         1 UNK         0.0600 
    209 H209       -0.4096  -24.4973  -51.0276 H         1 UNK         0.0600 
    210 H210       -1.6132  -26.9840  -49.4105 H         1 UNK         0.3000 
    211 H211       -3.5893  -27.9440  -49.5873 H         1 UNK         0.0600 
    212 H212       -2.5303  -29.6451  -51.9076 H         1 UNK         0.0600 
    213 H213       -3.9867  -29.9381  -50.9705 H         1 UNK         0.0600 
    214 H214       -2.4137  -30.0676  -50.1997 H         1 UNK         0.0600 
    215 H215       -3.3522  -25.4966  -50.4759 H         1 UNK         0.3000 
    216 H216       -5.0069  -25.2189  -52.9540 H         1 UNK         0.0600 
    217 H217       -3.6919  -23.1280  -53.3463 H         1 UNK         0.0600 
    218 H218       -2.6076  -24.5056  -53.2851 H         1 UNK         0.0600 
    219 H219       -2.7383  -23.4270  -51.8993 H         1 UNK         0.0600 
    220 H220       -5.9624  -22.8972  -52.9292 H         1 UNK         0.3000 
    221 H221       -7.5212  -22.4410  -50.5023 H         1 UNK         0.0600 
    222 H222       -7.3282  -20.8835  -53.1455 H         1 UNK         0.0600 
    223 H223       -8.5158  -22.1351  -52.7790 H         1 UNK         0.0600 
    224 H224       -8.5298  -20.6231  -51.8868 H         1 UNK         0.0600 
    225 H225       -7.4003  -20.5576  -49.1986 H         1 UNK         0.3000 
    226 H226       -4.7601  -19.5064  -48.7283 H         1 UNK         0.0600 
    227 H227       -6.3372  -20.0643  -46.8968 H         1 UNK         0.0600 
    228 H228       -5.8734  -18.3738  -46.8216 H         1 UNK         0.0600 
    229 H229       -7.4549  -18.8170  -47.4539 H         1 UNK         0.0600 
    230 H230       -7.0444  -18.5166  -50.9506 H         1 UNK         0.3000 
    231 H231       -6.4930  -15.6310  -50.9158 H         1 UNK         0.0600 
    232 H232       -8.0577  -15.6051  -52.8243 H         1 UNK         0.0600 
    233 H233       -8.7508  -16.5889  -51.5547 H         1 UNK         0.0600 
    234 H234       -8.0058  -17.3619  -52.9516 H         1 UNK         0.0600 
    235 H235       -6.3022  -15.2366  -53.7119 H         1 UNK         0.3000 
    236 H236       -3.4868  -15.7492  -54.2762 H         1 UNK         0.0600 
    237 H237       -4.5102  -13.5848  -54.8709 H         1 UNK         0.0600 
    238 H238       -4.0039  -14.4218  -56.3297 H         1 UNK         0.0600 
    239 H239       -5.7074  -14.3829  -55.8894 H         1 UNK         0.0600 
    240 H240       -3.6274  -18.0868  -54.1715 H         1 UNK         0.3000 
    241 H241       -5.1564  -19.6825  -55.8994 H         1 UNK         0.0600 
    242 H242       -4.4953  -21.1158  -57.7348 H         1 UNK         0.3800 
    243 H243       -3.3219  -20.4963  -58.8593 H         1 UNK         0.3800 
    244 H244       -4.2071  -20.6042  -53.8696 H         1 UNK         0.0800 
    245 H245       -3.6658  -21.5408  -55.2263 H         1 UNK         0.0800 
    246 H246       -2.7555  -19.3257  -52.2538 H         1 UNK         0.0800 
    247 H247       -2.3426  -20.9979  -51.9730 H         1 UNK         0.0800 
@<TRIPOS>BOND
     1    1    2 1    
     2    1  127 1    
     3    1  128 1    
     4    1  129 1    
     5    2    3 2    
     6    2    4 am   BACKBONE|DICT|INTERRES
     7    4    5 1    
     8    4  130 1    
     9    5    6 1    
    10    5   65 1    
    11    5  131 1    
    12    6    7 1    
    13    6  132 1    
    14    6  133 1    
    15    7    8 1    
    16    8    9 1    
    17    8  134 1    
    18    8  135 1    
    19    9   10 ar   
    20    9   14 ar   
    21   10   11 ar   
    22   10  136 1    
    23   11   12 ar   
    24   11  126 1    
    25   12   13 ar   
    26   12  137 1    
    27   13   14 ar   
    28   13   15 1    
    29   14  138 1    
    30   15   16 1    
    31   15  139 1    
    32   15  140 1    
    33   16   17 1    
    34   17   18 1    
    35   17  141 1    
    36   17  142 1    
    37   18   19 1    
    38   18   67 1    
    39   18  143 1    
    40   19   20 am   BACKBONE|DICT|INTERRES
    41   19  144 1    
    42   20   21 2    
    43   20   22 1    
    44   22   23 1    
    45   22   24 1    
    46   22  145 1    
    47   23  146 1    
    48   23  147 1    
    49   23  148 1    
    50   24   25 am   BACKBONE|DICT|INTERRES
    51   24  149 1    
    52   25   26 2    
    53   25   27 1    
    54   27   28 1    
    55   27   29 1    
    56   27  150 1    
    57   28  151 1    
    58   28  152 1    
    59   28  153 1    
    60   29   30 am   BACKBONE|DICT|INTERRES
    61   29  154 1    
    62   30   31 2    
    63   30   32 1    
    64   32   33 1    
    65   32   34 1    
    66   32  155 1    
    67   33  156 1    
    68   33  157 1    
    69   33  158 1    
    70   34   35 am   BACKBONE|DICT|INTERRES
    71   34  159 1    
    72   35   36 2    
    73   35   37 1    
    74   37   38 1    
    75   37   39 1    
    76   37  160 1    
    77   38  161 1    
    78   38  162 1    
    79   38  163 1    
    80   39   40 am   BACKBONE|DICT|INTERRES
    81   39  164 1    
    82   40   41 2    
    83   40   42 1    
    84   42   43 1    
    85   42   44 1    
    86   42  165 1    
    87   43  166 1    
    88   43  167 1    
    89   43  168 1    
    90   44   45 am   BACKBONE|DICT|INTERRES
    91   44  169 1    
    92   45   46 2    
    93   45   47 1    
    94   47   48 1    
    95   47   49 1    
    96   47  170 1    
    97   48  171 1    
    98   48  172 1    
    99   48  173 1    
   100   49   50 am   BACKBONE|DICT|INTERRES
   101   49  174 1    
   102   50   51 2    
   103   50   52 1    
   104   52   53 1    
   105   52   54 1    
   106   52  175 1    
   107   53  176 1    
   108   53  177 1    
   109   53  178 1    
   110   54   55 am   BACKBONE|DICT|INTERRES
   111   54  179 1    
   112   55   56 2    
   113   55   57 1    
   114   57   58 1    
   115   57   59 1    
   116   57  180 1    
   117   58  181 1    
   118   58  182 1    
   119   58  183 1    
   120   59   60 am   BACKBONE|DICT|INTERRES
   121   59  184 1    
   122   60   61 2    
   123   60   62 1    
   124   62   63 1    
   125   62   64 1    
   126   62  185 1    
   127   63  186 1    
   128   63  187 1    
   129   63  188 1    
   130   64   65 am   BACKBONE|DICT|INTERRES
   131   64  189 1    
   132   65   66 2    
   133   67   68 2    
   134   67   69 am   BACKBONE|DICT|INTERRES
   135   69   70 1    
   136   69  190 1    
   137   70   71 1    
   138   70   72 1    
   139   70  191 1    
   140   71  192 1    
   141   71  193 1    
   142   71  194 1    
   143   72   73 2    
   144   72   74 am   BACKBONE|DICT|INTERRES
   145   74   75 1    
   146   74  195 1    
   147   75   76 1    
   148   75   77 1    
   149   75  196 1    
   150   76  197 1    
   151   76  198 1    
   152   76  199 1    
   153   77   78 2    
   154   77   79 am   BACKBONE|DICT|INTERRES
   155   79   80 1    
   156   79  200 1    
   157   80   81 1    
   158   80   82 1    
   159   80  201 1    
   160   81  202 1    
   161   81  203 1    
   162   81  204 1    
   163   82   83 2    
   164   82   84 am   BACKBONE|DICT|INTERRES
   165   84   85 1    
   166   84  205 1    
   167   85   86 1    
   168   85   87 1    
   169   85  206 1    
   170   86  207 1    
   171   86  208 1    
   172   86  209 1    
   173   87   88 2    
   174   87   89 am   BACKBONE|DICT|INTERRES
   175   89   90 1    
   176   89  210 1    
   177   90   91 1    
   178   90   92 1    
   179   90  211 1    
   180   91  212 1    
   181   91  213 1    
   182   91  214 1    
   183   92   93 2    
   184   92   94 am   BACKBONE|DICT|INTERRES
   185   94   95 1    
   186   94  215 1    
   187   95   96 1    
   188   95   97 1    
   189   95  216 1    
   190   96  217 1    
   191   96  218 1    
   192   96  219 1    
   193   97   98 2    
   194   97   99 am   BACKBONE|DICT|INTERRES
   195   99  100 1    
   196   99  220 1    
   197  100  101 1    
   198  100  102 1    
   199  100  221 1    
   200  101  222 1    
   201  101  223 1    
   202  101  224 1    
   203  102  103 2    
   204  102  104 am   BACKBONE|DICT|INTERRES
   205  104  105 1    
   206  104  225 1    
   207  105  106 1    
   208  105  107 1    
   209  105  226 1    
   210  106  227 1    
   211  106  228 1    
   212  106  229 1    
   213  107  108 2    
   214  107  109 am   BACKBONE|DICT|INTERRES
   215  109  110 1    
   216  109  230 1    
   217  110  111 1    
   218  110  112 1    
   219  110  231 1    
   220  111  232 1    
   221  111  233 1    
   222  111  234 1    
   223  112  113 2    
   224  112  114 am   BACKBONE|DICT|INTERRES
   225  114  115 1    
   226  114  235 1    
   227  115  116 1    
   228  115  117 1    
   229  115  236 1    
   230  116  237 1    
   231  116  238 1    
   232  116  239 1    
   233  117  118 2    
   234  117  119 am   BACKBONE|DICT|INTERRES
   235  119  120 1    
   236  119  240 1    
   237  120  121 1    
   238  120  124 1    
   239  120  241 1    
   240  121  122 am   BACKBONE|DICT|INTERRES
   241  121  123 2    
   242  122  242 1    
   243  122  243 1    
   244  124  125 1    
   245  124  244 1    
   246  124  245 1    
   247  125  126 1    
   248  126  246 1    
   249  126  247 1    
@<TRIPOS>SUBSTRUCTURE
     1 UNK         1 GROUP             0       ****    0 ROOT    
