@<TRIPOS>MOLECULE
3R540
247   249    1
SMALL
USER_CHARGES


@<TRIPOS>ATOM
      1 CA          4.8000  -16.2543  -45.7465 C.3       0 UNK        -0.1800 
      2 C           3.8277  -16.0982  -46.9035 C.2       0 UNK         0.5000 
      3 O           3.4989  -14.9721  -47.2759 O.2       0 UNK        -0.5000 
      4 N           3.3463  -17.2211  -47.4497 N.am      1 UNK        -0.5000 
      5 CA          2.4166  -17.3601  -48.5838 C.3       1 UNK         0.1400 
      6 C6          2.8866  -16.6802  -49.8999 C.3       23 UNK        -0.0398 
      7 S7          4.6159  -17.0516  -50.3636 S.3       23 UNK        -0.2404 
      8 C8          4.4456  -18.0061  -51.9119 C.3       23 UNK        -0.0205 
      9 C9          4.2394  -19.5068  -51.7158 C.ar      23 UNK        -0.0193 
     10 C10         3.3971  -20.2076  -52.5854 C.ar      23 UNK        -0.1150 
     11 C11         3.2335  -21.5922  -52.4662 C.ar      23 UNK        -0.0193 
     12 C12         3.9436  -22.2799  -51.4770 C.ar      23 UNK        -0.1150 
     13 C13         4.7656  -21.5926  -50.5802 C.ar      23 UNK        -0.0193 
     14 C14         4.9206  -20.2104  -50.7156 C.ar      23 UNK        -0.1150 
     15 C15         5.4569  -22.3300  -49.4376 C.3       23 UNK        -0.0205 
     16 S16         4.2905  -23.2715  -48.3925 S.3       23 UNK        -0.2404 
     17 C17         3.0018  -22.0220  -48.0561 C.3       23 UNK        -0.0398 
     18 CA          2.5740  -21.9438  -46.5690 C.3       11 UNK         0.1400 
     19 N           3.6620  -21.6644  -45.6277 N.am      11 UNK        -0.5000 
     20 C           4.5824  -20.6900  -45.6617 C.2       10 UNK         0.5000 
     21 O           4.6582  -19.8194  -46.5313 O.2       10 UNK        -0.5000 
     22 CA          5.5896  -20.7268  -44.4970 C.3       10 UNK         0.1400 
     23 CB          6.6113  -19.5763  -44.5141 C.3       10 UNK        -0.1800 
     24 N           4.8474  -20.6951  -43.2412 N.am      10 UNK        -0.5000 
     25 C           4.8746  -21.6301  -42.2834 C.2       9 UNK         0.5000 
     26 O           5.6265  -22.6050  -42.3025 O.2       9 UNK        -0.5000 
     27 CA          3.8742  -21.4725  -41.1168 C.3       9 UNK         0.1400 
     28 CB          4.5619  -20.8299  -39.9027 C.3       9 UNK        -0.1800 
     29 N           2.6907  -20.6804  -41.4577 N.am      9 UNK        -0.5000 
     30 C           1.7784  -20.9983  -42.3872 C.2       8 UNK         0.5000 
     31 O           1.7705  -22.0673  -42.9990 O.2       8 UNK        -0.5000 
     32 CA          0.7184  -19.9286  -42.7170 C.3       8 UNK         0.1400 
     33 CB         -0.5846  -20.2260  -41.9598 C.3       8 UNK        -0.1800 
     34 N           1.1191  -18.5465  -42.4381 N.am      8 UNK        -0.5000 
     35 C           2.2101  -17.9129  -42.8929 C.2       7 UNK         0.5000 
     36 O           3.0903  -18.4533  -43.5597 O.2       7 UNK        -0.5000 
     37 CA          2.3767  -16.4394  -42.4889 C.3       7 UNK         0.1400 
     38 CB          1.6987  -15.5173  -43.5090 C.3       7 UNK        -0.1800 
     39 N           1.8179  -16.1703  -41.1651 N.am      7 UNK        -0.5000 
     40 C           2.4965  -16.2618  -40.0147 C.2       6 UNK         0.5000 
     41 O           3.6859  -16.5729  -39.9454 O.2       6 UNK        -0.5000 
     42 CA          1.7195  -15.9473  -38.7206 C.3       6 UNK         0.1400 
     43 CB          1.8696  -14.4629  -38.3540 C.3       6 UNK        -0.1800 
     44 N           0.2946  -16.2730  -38.8107 N.am      6 UNK        -0.5000 
     45 C          -0.1961  -17.5195  -38.8027 C.2       5 UNK         0.5000 
     46 O           0.5008  -18.5267  -38.6763 O.2       5 UNK        -0.5000 
     47 CA         -1.7197  -17.6713  -38.9920 C.3       5 UNK         0.1400 
     48 CB         -2.4289  -17.6702  -37.6293 C.3       5 UNK        -0.1800 
     49 N          -2.3515  -16.6695  -39.8621 N.am      5 UNK        -0.5000 
     50 C          -2.0008  -16.4133  -41.1292 C.2       4 UNK         0.5000 
     51 O          -0.9902  -16.8714  -41.6613 O.2       4 UNK        -0.5000 
     52 CA         -2.9056  -15.4606  -41.9315 C.3       4 UNK         0.1400 
     53 CB         -2.3574  -14.0273  -41.8614 C.3       4 UNK        -0.1800 
     54 N          -3.0008  -15.8606  -43.3377 N.am      4 UNK        -0.5000 
     55 C          -3.5245  -17.0130  -43.7819 C.2       3 UNK         0.5000 
     56 O          -4.0807  -17.8324  -43.0494 O.2       3 UNK        -0.5000 
     57 CA         -3.4347  -17.3042  -45.2954 C.3       3 UNK         0.1400 
     58 CB         -4.8300  -17.2989  -45.9406 C.3       3 UNK        -0.1800 
     59 N          -2.5735  -16.3800  -46.0393 N.am      3 UNK        -0.5000 
     60 C          -1.2360  -16.4310  -46.0470 C.2       2 UNK         0.5000 
     61 O          -0.5817  -17.2144  -45.3589 O.2       2 UNK        -0.5000 
     62 CA         -0.5254  -15.4193  -46.9681 C.3       2 UNK         0.1400 
     63 CB         -0.3485  -14.0605  -46.2738 C.3       2 UNK        -0.1800 
     64 N           0.7754  -15.9020  -47.4286 N.am      2 UNK        -0.5000 
     65 C           0.9632  -16.9412  -48.2519 C.2       1 UNK         0.5000 
     66 O           0.0292  -17.5605  -48.7621 O.2       1 UNK        -0.5000 
     67 C           1.4040  -20.9539  -46.4225 C.2       11 UNK         0.5000 
     68 O           1.5943  -19.7467  -46.5499 O.2       11 UNK        -0.5000 
     69 N           0.1881  -21.4921  -46.2651 N.am      12 UNK        -0.5000 
     70 CA         -1.0723  -20.7587  -46.4046 C.3       12 UNK         0.1400 
     71 CB         -2.0986  -21.3248  -45.4070 C.3       12 UNK        -0.1800 
     72 C          -1.5531  -20.8577  -47.8658 C.2       12 UNK         0.5000 
     73 O          -2.6441  -21.3622  -48.1331 O.2       12 UNK        -0.5000 
     74 N          -0.6944  -20.4258  -48.7973 N.am      13 UNK        -0.5000 
     75 CA         -0.8831  -20.5456  -50.2423 C.3       13 UNK         0.1400 
     76 CB          0.4056  -20.1225  -50.9581 C.3       13 UNK        -0.1800 
     77 C          -2.0838  -19.7403  -50.7663 C.2       13 UNK         0.5000 
     78 O          -2.8153  -20.2249  -51.6315 O.2       13 UNK        -0.5000 
     79 N          -2.2846  -18.5475  -50.1942 N.am      14 UNK        -0.5000 
     80 CA         -3.3466  -17.5977  -50.5271 C.3       14 UNK         0.1400 
     81 CB         -2.9508  -16.2139  -49.9903 C.3       14 UNK        -0.1800 
     82 C          -4.7564  -17.9946  -50.0357 C.2       14 UNK         0.5000 
     83 O          -5.6621  -17.1619  -50.1075 O.2       14 UNK        -0.5000 
     84 N          -4.9422  -19.2319  -49.5533 N.am      15 UNK        -0.5000 
     85 CA         -6.2252  -19.7987  -49.1309 C.3       15 UNK         0.1400 
     86 CB         -6.0197  -21.2633  -48.7198 C.3       15 UNK        -0.1800 
     87 C          -7.3140  -19.6877  -50.2175 C.2       15 UNK         0.5000 
     88 O          -7.0426  -19.9612  -51.3903 O.2       15 UNK        -0.5000 
     89 N          -8.5109  -19.2500  -49.8006 N.am      16 UNK        -0.5000 
     90 CA         -9.6788  -18.9505  -50.6389 C.3       16 UNK         0.1400 
     91 CB        -10.2393  -20.2436  -51.2700 C.3       16 UNK        -0.1800 
     92 C          -9.4031  -17.8434  -51.6819 C.2       16 UNK         0.5000 
     93 O          -9.8980  -17.9223  -52.8049 O.2       16 UNK        -0.5000 
     94 N          -8.5819  -16.8487  -51.3078 N.am      17 UNK        -0.5000 
     95 CA         -8.0507  -15.7808  -52.1689 C.3       17 UNK         0.1400 
     96 CB         -9.1718  -14.8268  -52.6322 C.3       17 UNK        -0.1800 
     97 C          -7.2078  -16.3468  -53.3337 C.2       17 UNK         0.5000 
     98 O          -7.3239  -15.8971  -54.4742 O.2       17 UNK        -0.5000 
     99 N          -6.4001  -17.3619  -52.9998 N.am      18 UNK        -0.5000 
    100 CA        -5.5340  -18.1815  -53.8515 C.3       18 UNK         0.1400 
    101 CB        -4.5041  -17.3197  -54.6086 C.3       18 UNK        -0.1800 
    102 C         -6.2814  -19.1560  -54.7851 C.2       18 UNK         0.5000 
    103 O         -5.6224  -19.8765  -55.5374 O.2       18 UNK        -0.5000 
    104 N         -7.6201  -19.2307  -54.6993 N.am      19 UNK        -0.5000 
    105 CA        -8.4516  -20.1551  -55.4814 C.3       19 UNK         0.1400 
    106 CB        -9.9319  -19.7690  -55.3541 C.3       19 UNK        -0.1800 
    107 C         -8.2453  -21.6371  -55.1093 C.2       19 UNK         0.5000 
    108 O         -8.6224  -22.5116  -55.8900 O.2       19 UNK        -0.5000 
    109 N         -7.6169  -21.8975  -53.9532 N.am      20 UNK        -0.5000 
    110 CA        -7.1398  -23.2162  -53.5372 C.3       20 UNK         0.1400 
    111 CB        -6.7263  -23.1445  -52.0599 C.3       20 UNK        -0.1800 
    112 C         -5.9746  -23.7562  -54.3975 C.2       20 UNK         0.5000 
    113 O         -5.7007  -24.9546  -54.3267 O.2       20 UNK        -0.5000 
    114 N         -5.3227  -22.8811  -55.1857 N.am      21 UNK        -0.5000 
    115 CA        -4.1780  -23.1488  -56.0644 C.3       21 UNK         0.1400 
    116 CB        -4.5718  -24.0989  -57.2149 C.3       21 UNK        -0.1800 
    117 C         -2.9615  -23.6349  -55.2543 C.2       21 UNK         0.5000 
    118 O         -2.5040  -24.7666  -55.4237 O.2       21 UNK        -0.5000 
    119 N         -2.5004  -22.7577  -54.3546 N.am      22 UNK        -0.5000 
    120 CA        -1.5705  -23.0436  -53.2562 C.3       22 UNK         0.1400 
    121 C         -2.2983  -23.8172  -52.1204 C.2       22 UNK         0.5000 
    122 N         -3.1656  -23.1409  -51.3782 N.am      22 UNK        -0.7600 
    123 O         -2.0993  -25.0113  -51.9136 O.2       22 UNK        -0.5000 
    124 C124       -0.2183  -23.6706  -53.7012 C.3       23 UNK        -0.0398 
    125 S125        1.0924  -23.3688  -52.4670 S.3       23 UNK        -0.2404 
    126 C126        2.2769  -22.3350  -53.3934 C.3       23 UNK        -0.0205 
    127 H127        4.6106  -15.5009  -44.9818 H         1 UNK         0.0600 
    128 H128        5.8263  -16.1436  -46.0960 H         1 UNK         0.0600 
    129 H129        4.6937  -17.2341  -45.2860 H         1 UNK         0.0600 
    130 H130        3.6399  -18.1109  -47.0533 H         1 UNK         0.3000 
    131 H131        2.3833  -18.4328  -48.7805 H         1 UNK         0.0600 
    132 H132        2.8010  -15.5955  -49.8176 H         1 UNK         0.0800 
    133 H133        2.2272  -16.9673  -50.7205 H         1 UNK         0.0800 
    134 H134        5.3602  -17.8727  -52.4907 H         1 UNK         0.0800 
    135 H135        3.6434  -17.5775  -52.5144 H         1 UNK         0.0800 
    136 H136        2.8648  -19.6719  -53.3588 H         1 UNK         0.1150 
    137 H137        3.8207  -23.3490  -51.3745 H         1 UNK         0.1150 
    138 H138        5.5705  -19.6807  -50.0336 H         1 UNK         0.1150 
    139 H139        6.1994  -23.0139  -49.8503 H         1 UNK         0.0800 
    140 H140        5.9992  -21.6295  -48.8002 H         1 UNK         0.0800 
    141 H141        2.1457  -22.2747  -48.6847 H         1 UNK         0.0800 
    142 H142        3.3357  -21.0412  -48.3965 H         1 UNK         0.0800 
    143 H143        2.2062  -22.9313  -46.2854 H         1 UNK         0.0600 
    144 H144        3.6766  -22.2727  -44.8213 H         1 UNK         0.3000 
    145 H145        6.1418  -21.6632  -44.5985 H         1 UNK         0.0600 
    146 H146        7.3825  -19.7332  -43.7601 H         1 UNK         0.0600 
    147 H147        7.1123  -19.5035  -45.4802 H         1 UNK         0.0600 
    148 H148        6.1416  -18.6168  -44.3060 H         1 UNK         0.0600 
    149 H149        4.1659  -19.9410  -43.1753 H         1 UNK         0.3000 
    150 H150        3.5377  -22.4722  -40.8351 H         1 UNK         0.0600 
    151 H151        5.4378  -21.4047  -39.5990 H         1 UNK         0.0600 
    152 H152        3.8897  -20.7861  -39.0454 H         1 UNK         0.0600 
    153 H153        4.8943  -19.8139  -40.1209 H         1 UNK         0.0600 
    154 H154        2.6066  -19.7791  -41.0102 H         1 UNK         0.3000 
    155 H155        0.5153  -19.9883  -43.7865 H         1 UNK         0.0600 
    156 H156       -0.4573  -20.0986  -40.8846 H         1 UNK         0.0600 
    157 H157       -0.9151  -21.2515  -42.1288 H         1 UNK         0.0600 
    158 H158       -1.3899  -19.5666  -42.2851 H         1 UNK         0.0600 
    159 H159        0.4177  -17.9768  -41.9707 H         1 UNK         0.3000 
    160 H160        3.4455  -16.2143  -42.4923 H         1 UNK         0.0600 
    161 H161        1.9354  -14.4715  -43.3140 H         1 UNK         0.0600 
    162 H162        0.6142  -15.6261  -43.4857 H         1 UNK         0.0600 
    163 H163        2.0264  -15.7457  -44.5231 H         1 UNK         0.0600 
    164 H164        0.8210  -15.9972  -41.1305 H         1 UNK         0.3000 
    165 H165        2.1600  -16.5419  -37.9173 H         1 UNK         0.0600 
    166 H166        1.3856  -14.2405  -37.4028 H         1 UNK         0.0600 
    167 H167        2.9210  -14.1898  -38.2539 H         1 UNK         0.0600 
    168 H168        1.4327  -13.8138  -39.1140 H         1 UNK         0.0600 
    169 H169       -0.3483  -15.5022  -38.9169 H         1 UNK         0.3000 
    170 H170       -1.8870  -18.6450  -39.4562 H         1 UNK         0.0600 
    171 H171       -2.0009  -18.4217  -36.9641 H         1 UNK         0.0600 
    172 H172       -2.3417  -16.7035  -37.1317 H         1 UNK         0.0600 
    173 H173       -3.4893  -17.9001  -37.7350 H         1 UNK         0.0600 
    174 H174       -3.1797  -16.2256  -39.4922 H         1 UNK         0.3000 
    175 H175       -3.9098  -15.4792  -41.5034 H         1 UNK         0.0600 
    176 H176       -1.3580  -13.9571  -42.2937 H         1 UNK         0.0600 
    177 H177       -3.0037  -13.3307  -42.3958 H         1 UNK         0.0600 
    178 H178       -2.2934  -13.6819  -40.8288 H         1 UNK         0.0600 
    179 H179       -2.5394  -15.2655  -44.0074 H         1 UNK         0.3000 
    180 H180       -3.0244  -18.3105  -45.3981 H         1 UNK         0.0600 
    181 H181       -5.2993  -16.3165  -45.8771 H         1 UNK         0.0600 
    182 H182       -5.4929  -18.0124  -45.4494 H         1 UNK         0.0600 
    183 H183       -4.7787  -17.5800  -46.9921 H         1 UNK         0.0600 
    184 H184       -3.0453  -15.6843  -46.5988 H         1 UNK         0.3000 
    185 H185       -1.1457  -15.2634  -47.8511 H         1 UNK         0.0600 
    186 H186        0.0798  -13.3258  -46.9559 H         1 UNK         0.0600 
    187 H187       -1.3054  -13.6639  -45.9324 H         1 UNK         0.0600 
    188 H188        0.3062  -14.1268  -45.4070 H         1 UNK         0.0600 
    189 H189        1.6006  -15.4307  -47.0757 H         1 UNK         0.3000 
    190 H190        0.1032  -22.4963  -46.1957 H         1 UNK         0.3000 
    191 H191       -0.9261  -19.7023  -46.1746 H         1 UNK         0.0600 
    192 H192       -3.0510  -20.7988  -45.4825 H         1 UNK         0.0600 
    193 H193       -1.7507  -21.2167  -44.3816 H         1 UNK         0.0600 
    194 H194       -2.2933  -22.3832  -45.5838 H         1 UNK         0.0600 
    195 H195        0.1399  -19.9450  -48.4877 H         1 UNK         0.3000 
    196 H196       -1.0576  -21.6001  -50.4562 H         1 UNK         0.0600 
    197 H197        0.6287  -19.0656  -50.8168 H         1 UNK         0.0600 
    198 H198        0.3283  -20.2950  -52.0319 H         1 UNK         0.0600 
    199 H199        1.2591  -20.6945  -50.5952 H         1 UNK         0.0600 
    200 H200       -1.5930  -18.2340  -49.5169 H         1 UNK         0.3000 
    201 H201       -3.3997  -17.5305  -51.6148 H         1 UNK         0.0600 
    202 H202       -2.9862  -16.1932  -48.9022 H         1 UNK         0.0600 
    203 H203       -3.6285  -15.4409  -50.3550 H         1 UNK         0.0600 
    204 H204       -1.9445  -15.9357  -50.3046 H         1 UNK         0.0600 
    205 H205       -4.1514  -19.8607  -49.5401 H         1 UNK         0.3000 
    206 H206       -6.5507  -19.2388  -48.2520 H         1 UNK         0.0600 
    207 H207       -5.3598  -21.3394  -47.8556 H         1 UNK         0.0600 
    208 H208       -6.9653  -21.7335  -48.4470 H         1 UNK         0.0600 
    209 H209       -5.5808  -21.8492  -49.5277 H         1 UNK         0.0600 
    210 H210       -8.6286  -19.0493  -48.8171 H         1 UNK         0.3000 
    211 H211      -10.4442  -18.5515  -49.9719 H         1 UNK         0.0600 
    212 H212      -10.4349  -21.0000  -50.5101 H         1 UNK         0.0600 
    213 H213       -9.5514  -20.6729  -51.9986 H         1 UNK         0.0600 
    214 H214      -11.1813  -20.0519  -51.7848 H         1 UNK         0.0600 
    215 H215       -8.1844  -16.8889  -50.3788 H         1 UNK         0.3000 
    216 H216       -7.3627  -15.2027  -51.5503 H         1 UNK         0.0600 
    217 H217       -8.7567  -13.9651  -53.1561 H         1 UNK         0.0600 
    218 H218       -9.7411  -14.4469  -51.7841 H         1 UNK         0.0600 
    219 H219       -9.8693  -15.3155  -53.3129 H         1 UNK         0.0600 
    220 H220       -6.4215  -17.6452  -52.0266 H         1 UNK         0.3000 
    221 H221       -4.9767  -18.8187  -53.1631 H         1 UNK         0.0600 
    222 H222       -4.9719  -16.7188  -55.3886 H         1 UNK         0.0600 
    223 H223       -3.9785  -16.6448  -53.9334 H         1 UNK         0.0600 
    224 H224       -3.7518  -17.9455  -55.0901 H         1 UNK         0.0600 
    225 H225       -8.1053  -18.6308  -54.0441 H         1 UNK         0.3000 
    226 H226       -8.1668  -20.0431  -56.5296 H         1 UNK         0.0600 
    227 H227      -10.5425  -20.3394  -56.0550 H         1 UNK         0.0600 
    228 H228      -10.3156  -19.9715  -54.3544 H         1 UNK         0.0600 
    229 H229      -10.0891  -18.7123  -55.5712 H         1 UNK         0.0600 
    230 H230       -7.3737  -21.1219  -53.3483 H         1 UNK         0.3000 
    231 H231       -7.9682  -23.9217  -53.6277 H         1 UNK         0.0600 
    232 H232       -7.5602  -22.8350  -51.4297 H         1 UNK         0.0600 
    233 H233       -5.9123  -22.4346  -51.9115 H         1 UNK         0.0600 
    234 H234       -6.3862  -24.1153  -51.6973 H         1 UNK         0.0600 
    235 H235       -5.6234  -21.9125  -55.1671 H         1 UNK         0.3000 
    236 H236       -3.8995  -22.1934  -56.5120 H         1 UNK         0.0600 
    237 H237       -5.4200  -23.7058  -57.7754 H         1 UNK         0.0600 
    238 H238       -3.7458  -24.2201  -57.9165 H         1 UNK         0.0600 
    239 H239       -4.8406  -25.0923  -56.8548 H         1 UNK         0.0600 
    240 H240       -2.9674  -21.8643  -54.2911 H         1 UNK         0.3000 
    241 H241       -1.3310  -22.0594  -52.8555 H         1 UNK         0.0600 
    242 H242       -3.3071  -22.1475  -51.5230 H         1 UNK         0.3800 
    243 H243       -3.6469  -23.6148  -50.6314 H         1 UNK         0.3800 
    244 H244       -0.3116  -24.7450  -53.8658 H         1 UNK         0.0800 
    245 H245        0.0908  -23.2493  -54.6583 H         1 UNK         0.0800 
    246 H246        1.7234  -21.6234  -54.0080 H         1 UNK         0.0800 
    247 H247        2.8497  -22.9633  -54.0765 H         1 UNK         0.0800 
@<TRIPOS>BOND
     1    1    2 1    
     2    1  127 1    
     3    1  128 1    
     4    1  129 1    
     5    2    3 2    
     6    2    4 am   BACKBONE|DICT|INTERRES
     7    4    5 1    
     8    4  130 1    
     9    5    6 1    
    10    5   65 1    
    11    5  131 1    
    12    6    7 1    
    13    6  132 1    
    14    6  133 1    
    15    7    8 1    
    16    8    9 1    
    17    8  134 1    
    18    8  135 1    
    19    9   10 ar   
    20    9   14 ar   
    21   10   11 ar   
    22   10  136 1    
    23   11   12 ar   
    24   11  126 1    
    25   12   13 ar   
    26   12  137 1    
    27   13   14 ar   
    28   13   15 1    
    29   14  138 1    
    30   15   16 1    
    31   15  139 1    
    32   15  140 1    
    33   16   17 1    
    34   17   18 1    
    35   17  141 1    
    36   17  142 1    
    37   18   19 1    
    38   18   67 1    
    39   18  143 1    
    40   19   20 am   BACKBONE|DICT|INTERRES
    41   19  144 1    
    42   20   21 2    
    43   20   22 1    
    44   22   23 1    
    45   22   24 1    
    46   22  145 1    
    47   23  146 1    
    48   23  147 1    
    49   23  148 1    
    50   24   25 am   BACKBONE|DICT|INTERRES
    51   24  149 1    
    52   25   26 2    
    53   25   27 1    
    54   27   28 1    
    55   27   29 1    
    56   27  150 1    
    57   28  151 1    
    58   28  152 1    
    59   28  153 1    
    60   29   30 am   BACKBONE|DICT|INTERRES
    61   29  154 1    
    62   30   31 2    
    63   30   32 1    
    64   32   33 1    
    65   32   34 1    
    66   32  155 1    
    67   33  156 1    
    68   33  157 1    
    69   33  158 1    
    70   34   35 am   BACKBONE|DICT|INTERRES
    71   34  159 1    
    72   35   36 2    
    73   35   37 1    
    74   37   38 1    
    75   37   39 1    
    76   37  160 1    
    77   38  161 1    
    78   38  162 1    
    79   38  163 1    
    80   39   40 am   BACKBONE|DICT|INTERRES
    81   39  164 1    
    82   40   41 2    
    83   40   42 1    
    84   42   43 1    
    85   42   44 1    
    86   42  165 1    
    87   43  166 1    
    88   43  167 1    
    89   43  168 1    
    90   44   45 am   BACKBONE|DICT|INTERRES
    91   44  169 1    
    92   45   46 2    
    93   45   47 1    
    94   47   48 1    
    95   47   49 1    
    96   47  170 1    
    97   48  171 1    
    98   48  172 1    
    99   48  173 1    
   100   49   50 am   BACKBONE|DICT|INTERRES
   101   49  174 1    
   102   50   51 2    
   103   50   52 1    
   104   52   53 1    
   105   52   54 1    
   106   52  175 1    
   107   53  176 1    
   108   53  177 1    
   109   53  178 1    
   110   54   55 am   BACKBONE|DICT|INTERRES
   111   54  179 1    
   112   55   56 2    
   113   55   57 1    
   114   57   58 1    
   115   57   59 1    
   116   57  180 1    
   117   58  181 1    
   118   58  182 1    
   119   58  183 1    
   120   59   60 am   BACKBONE|DICT|INTERRES
   121   59  184 1    
   122   60   61 2    
   123   60   62 1    
   124   62   63 1    
   125   62   64 1    
   126   62  185 1    
   127   63  186 1    
   128   63  187 1    
   129   63  188 1    
   130   64   65 am   BACKBONE|DICT|INTERRES
   131   64  189 1    
   132   65   66 2    
   133   67   68 2    
   134   67   69 am   BACKBONE|DICT|INTERRES
   135   69   70 1    
   136   69  190 1    
   137   70   71 1    
   138   70   72 1    
   139   70  191 1    
   140   71  192 1    
   141   71  193 1    
   142   71  194 1    
   143   72   73 2    
   144   72   74 am   BACKBONE|DICT|INTERRES
   145   74   75 1    
   146   74  195 1    
   147   75   76 1    
   148   75   77 1    
   149   75  196 1    
   150   76  197 1    
   151   76  198 1    
   152   76  199 1    
   153   77   78 2    
   154   77   79 am   BACKBONE|DICT|INTERRES
   155   79   80 1    
   156   79  200 1    
   157   80   81 1    
   158   80   82 1    
   159   80  201 1    
   160   81  202 1    
   161   81  203 1    
   162   81  204 1    
   163   82   83 2    
   164   82   84 am   BACKBONE|DICT|INTERRES
   165   84   85 1    
   166   84  205 1    
   167   85   86 1    
   168   85   87 1    
   169   85  206 1    
   170   86  207 1    
   171   86  208 1    
   172   86  209 1    
   173   87   88 2    
   174   87   89 am   BACKBONE|DICT|INTERRES
   175   89   90 1    
   176   89  210 1    
   177   90   91 1    
   178   90   92 1    
   179   90  211 1    
   180   91  212 1    
   181   91  213 1    
   182   91  214 1    
   183   92   93 2    
   184   92   94 am   BACKBONE|DICT|INTERRES
   185   94   95 1    
   186   94  215 1    
   187   95   96 1    
   188   95   97 1    
   189   95  216 1    
   190   96  217 1    
   191   96  218 1    
   192   96  219 1    
   193   97   98 2    
   194   97   99 am   BACKBONE|DICT|INTERRES
   195   99  100 1    
   196   99  220 1    
   197  100  101 1    
   198  100  102 1    
   199  100  221 1    
   200  101  222 1    
   201  101  223 1    
   202  101  224 1    
   203  102  103 2    
   204  102  104 am   BACKBONE|DICT|INTERRES
   205  104  105 1    
   206  104  225 1    
   207  105  106 1    
   208  105  107 1    
   209  105  226 1    
   210  106  227 1    
   211  106  228 1    
   212  106  229 1    
   213  107  108 2    
   214  107  109 am   BACKBONE|DICT|INTERRES
   215  109  110 1    
   216  109  230 1    
   217  110  111 1    
   218  110  112 1    
   219  110  231 1    
   220  111  232 1    
   221  111  233 1    
   222  111  234 1    
   223  112  113 2    
   224  112  114 am   BACKBONE|DICT|INTERRES
   225  114  115 1    
   226  114  235 1    
   227  115  116 1    
   228  115  117 1    
   229  115  236 1    
   230  116  237 1    
   231  116  238 1    
   232  116  239 1    
   233  117  118 2    
   234  117  119 am   BACKBONE|DICT|INTERRES
   235  119  120 1    
   236  119  240 1    
   237  120  121 1    
   238  120  124 1    
   239  120  241 1    
   240  121  122 am   BACKBONE|DICT|INTERRES
   241  121  123 2    
   242  122  242 1    
   243  122  243 1    
   244  124  125 1    
   245  124  244 1    
   246  124  245 1    
   247  125  126 1    
   248  126  246 1    
   249  126  247 1    
@<TRIPOS>SUBSTRUCTURE
     1 UNK         1 GROUP             0       ****    0 ROOT    
