@<TRIPOS>MOLECULE
3R540
247   249    1
SMALL
USER_CHARGES


@<TRIPOS>ATOM
      1 CA         -0.4742  -13.4650  -47.7997 C.3       0 UNK        -0.1800 
      2 C           0.8948  -12.9739  -48.2468 C.2       0 UNK         0.5000 
      3 O           1.0126  -12.3867  -49.3219 O.2       0 UNK        -0.5000 
      4 N           1.9276  -13.2007  -47.4227 N.am      1 UNK        -0.5000 
      5 CA          3.3024  -12.7335  -47.6646 C.3       1 UNK         0.1400 
      6 C6          4.3619  -13.5081  -46.8355 C.3       23 UNK        -0.0398 
      7 S7          4.1511  -15.3221  -46.8709 S.3       23 UNK        -0.2404 
      8 C8          4.8213  -15.7436  -48.5053 C.3       23 UNK        -0.0205 
      9 C9          3.9840  -16.8212  -49.1757 C.ar      23 UNK        -0.0193 
     10 C10         2.8130  -16.4720  -49.8570 C.ar      23 UNK        -0.1150 
     11 C11         2.0562  -17.4484  -50.5107 C.ar      23 UNK        -0.0193 
     12 C12         2.4820  -18.7784  -50.4822 C.ar      23 UNK        -0.1150 
     13 C13         3.6422  -19.1439  -49.7960 C.ar      23 UNK        -0.0193 
     14 C14         4.3879  -18.1603  -49.1384 C.ar      23 UNK        -0.1150 
     15 C15         4.1059  -20.5944  -49.8063 C.3       23 UNK        -0.0205 
     16 S16         3.4545  -21.5489  -48.3997 S.3       23 UNK        -0.2404 
     17 C17         1.6704  -21.6062  -48.7806 C.3       23 UNK        -0.0398 
     18 CA          0.9252  -22.7121  -47.9973 C.3       11 UNK         0.1400 
     19 N           0.9521  -22.5009  -46.5457 N.am      11 UNK        -0.5000 
     20 C           0.5297  -23.3927  -45.6382 C.2       10 UNK         0.5000 
     21 O           0.1212  -24.5179  -45.9263 O.2       10 UNK        -0.5000 
     22 CA          0.5089  -22.9382  -44.1671 C.3       10 UNK         0.1400 
     23 CB          1.9050  -23.0359  -43.5342 C.3       10 UNK        -0.1800 
     24 N          -0.0192  -21.5824  -44.0092 N.am      10 UNK        -0.5000 
     25 C          -1.2857  -21.2327  -44.2759 C.2       9 UNK         0.5000 
     26 O          -2.1529  -22.0346  -44.6224 O.2       9 UNK        -0.5000 
     27 CA         -1.6363  -19.7349  -44.1851 C.3       9 UNK         0.1400 
     28 CB         -1.9233  -19.3229  -42.7340 C.3       9 UNK        -0.1800 
     29 N          -0.5964  -18.8721  -44.7470 N.am      9 UNK        -0.5000 
     30 C          -0.2203  -18.8831  -46.0343 C.2       8 UNK         0.5000 
     31 O          -0.7460  -19.5870  -46.8933 O.2       8 UNK        -0.5000 
     32 CA          0.9763  -17.9975  -46.4173 C.3       8 UNK         0.1400 
     33 CB          0.5241  -16.5484  -46.6300 C.3       8 UNK        -0.1800 
     34 N           2.0510  -18.0404  -45.4250 N.am      8 UNK        -0.5000 
     35 C           2.7272  -19.1482  -45.0903 C.2       7 UNK         0.5000 
     36 O           2.5237  -20.2521  -45.5891 O.2       7 UNK        -0.5000 
     37 CA          3.7451  -19.0140  -43.9458 C.3       7 UNK         0.1400 
     38 CB          5.0174  -18.2933  -44.4163 C.3       7 UNK        -0.1800 
     39 N           3.1780  -18.3133  -42.7937 N.am      7 UNK        -0.5000 
     40 C           2.1542  -18.7677  -42.0551 C.2       6 UNK         0.5000 
     41 O           1.6214  -19.8640  -42.2237 O.2       6 UNK        -0.5000 
     42 CA          1.6049  -17.8138  -40.9779 C.3       6 UNK         0.1400 
     43 CB          2.3595  -18.0009  -39.6534 C.3       6 UNK        -0.1800 
     44 N           1.6749  -16.4077  -41.3853 N.am      6 UNK        -0.5000 
     45 C           0.9604  -15.8772  -42.3855 C.2       5 UNK         0.5000 
     46 O           0.1301  -16.5048  -43.0483 O.2       5 UNK        -0.5000 
     47 CA          1.2757  -14.4224  -42.7473 C.3       5 UNK         0.1400 
     48 CB          2.4515  -14.3733  -43.7413 C.3       5 UNK        -0.1800 
     49 N           0.0843  -13.8046  -43.3238 N.am      5 UNK        -0.5000 
     50 C          -0.0755  -12.4937  -43.5332 C.2       4 UNK         0.5000 
     51 O           0.8150  -11.6667  -43.3216 O.2       4 UNK        -0.5000 
     52 CA         -1.4426  -12.0500  -44.0997 C.3       4 UNK         0.1400 
     53 CB         -2.5975  -12.3317  -43.1165 C.3       4 UNK        -0.1800 
     54 N          -1.4291  -10.6496  -44.5437 N.am      4 UNK        -0.5000 
     55 C          -1.3469   -9.5343  -43.8018 C.2       3 UNK         0.5000 
     56 O          -1.4835   -9.4971  -42.5773 O.2       3 UNK        -0.5000 
     57 CA         -0.9735   -8.2519  -44.5792 C.3       3 UNK         0.1400 
     58 CB         -1.1196   -6.9752  -43.7316 C.3       3 UNK        -0.1800 
     59 N           0.4065   -8.3385  -45.0681 N.am      3 UNK        -0.5000 
     60 C           0.8053   -9.0719  -46.1150 C.2       2 UNK         0.5000 
     61 O           0.0138   -9.6555  -46.8611 O.2       2 UNK        -0.5000 
     62 CA          2.3182   -9.2481  -46.3435 C.3       2 UNK         0.1400 
     63 CB          3.2034   -8.7963  -45.1638 C.3       2 UNK        -0.1800 
     64 N           2.5314  -10.6646  -46.6065 N.am      2 UNK        -0.5000 
     65 C           3.4351  -11.2109  -47.4265 C.2       1 UNK         0.5000 
     66 O           4.3250  -10.5744  -47.9919 O.2       1 UNK        -0.5000 
     67 C          -0.5167  -22.8901  -48.5207 C.2       11 UNK         0.5000 
     68 O          -0.7609  -23.8072  -49.3057 O.2       11 UNK        -0.5000 
     69 N          -1.4546  -22.0622  -48.0336 N.am      12 UNK        -0.5000 
     70 CA         -2.8844  -22.1564  -48.3283 C.3       12 UNK         0.1400 
     71 CB         -3.6428  -20.9867  -47.6822 C.3       12 UNK        -0.1800 
     72 C          -3.4862  -23.4919  -47.8674 C.2       12 UNK         0.5000 
     73 O          -4.2001  -24.1254  -48.6424 O.2       12 UNK        -0.5000 
     74 N          -3.1612  -23.9109  -46.6359 N.am      13 UNK        -0.5000 
     75 CA         -3.5798  -25.1861  -46.0541 C.3       13 UNK         0.1400 
     76 CB         -3.1624  -25.2467  -44.5774 C.3       13 UNK        -0.1800 
     77 C          -3.0401  -26.4001  -46.8307 C.2       13 UNK         0.5000 
     78 O          -3.8012  -27.3301  -47.0979 O.2       13 UNK        -0.5000 
     79 N          -1.7599  -26.3491  -47.2268 N.am      14 UNK        -0.5000 
     80 CA         -1.1031  -27.3631  -48.0566 C.3       14 UNK         0.1400 
     81 CB          0.3999  -27.0583  -48.1444 C.3       14 UNK        -0.1800 
     82 C          -1.7198  -27.4848  -49.4645 C.2       14 UNK         0.5000 
     83 O          -1.8306  -28.5945  -49.9865 O.2       14 UNK        -0.5000 
     84 N          -2.1441  -26.3494  -50.0342 N.am      15 UNK        -0.5000 
     85 CA         -2.8541  -26.2609  -51.3114 C.3       15 UNK         0.1400 
     86 CB         -2.6465  -24.8509  -51.8886 C.3       15 UNK        -0.1800 
     87 C          -4.3617  -26.5760  -51.2068 C.2       15 UNK         0.5000 
     88 O          -5.0438  -26.5609  -52.2325 O.2       15 UNK        -0.5000 
     89 N          -4.8727  -26.7981  -49.9844 N.am      16 UNK        -0.5000 
     90 CA         -6.2867  -26.9827  -49.6275 C.3       16 UNK         0.1400 
     91 CB         -6.8107  -28.3277  -50.1710 C.3       16 UNK        -0.1800 
     92 C          -7.1730  -25.7834  -50.0373 C.2       16 UNK         0.5000 
     93 O          -8.3423  -25.9619  -50.3804 O.2       16 UNK        -0.5000 
     94 N          -6.5692  -24.5858  -50.0325 N.am      17 UNK        -0.5000 
     95 CA         -7.0751  -23.2805  -50.4665 C.3       17 UNK         0.1400 
     96 CB         -8.2497  -22.8260  -49.5790 C.3       17 UNK        -0.1800 
     97 C          -7.4140  -23.1639  -51.9700 C.2       17 UNK         0.5000 
     98 O          -7.8287  -22.0865  -52.4007 O.2       17 UNK        -0.5000 
     99 N          -7.2177  -24.2348  -52.7534 N.am      18 UNK        -0.5000 
    100 CA        -7.5986  -24.3216  -54.1653 C.3       18 UNK         0.1400 
    101 CB        -7.4677  -25.7775  -54.6362 C.3       18 UNK        -0.1800 
    102 C         -6.7883  -23.3822  -55.0744 C.2       18 UNK         0.5000 
    103 O         -7.3331  -22.8430  -56.0388 O.2       18 UNK        -0.5000 
    104 N         -5.5127  -23.1692  -54.7296 N.am      19 UNK        -0.5000 
    105 CA        -4.6016  -22.2479  -55.4047 C.3       19 UNK         0.1400 
    106 CB        -3.1588  -22.7427  -55.2051 C.3       19 UNK        -0.1800 
    107 C         -4.8157  -20.8047  -54.9062 C.2       19 UNK         0.5000 
    108 O         -3.9259  -20.2284  -54.2773 O.2       19 UNK        -0.5000 
    109 N         -6.0158  -20.2639  -55.1590 N.am      20 UNK        -0.5000 
    110 CA        -6.4512  -18.8893  -54.8746 C.3       20 UNK         0.1400 
    111 CB        -5.7665  -17.9138  -55.8543 C.3       20 UNK        -0.1800 
    112 C         -6.2807  -18.4602  -53.3988 C.2       20 UNK         0.5000 
    113 O         -5.9693  -17.2990  -53.1277 O.2       20 UNK        -0.5000 
    114 N         -6.4737  -19.4137  -52.4749 N.am      21 UNK        -0.5000 
    115 CA        -6.3301  -19.2770  -51.0221 C.3       21 UNK         0.1400 
    116 CB        -7.4360  -18.3658  -50.4497 C.3       21 UNK        -0.1800 
    117 C         -4.9122  -18.8760  -50.5517 C.2       21 UNK         0.5000 
    118 O         -4.7817  -18.2492  -49.4994 O.2       21 UNK        -0.5000 
    119 N         -3.8745  -19.2581  -51.3092 N.am      22 UNK        -0.5000 
    120 CA        -2.4639  -19.0362  -50.9489 C.3       22 UNK         0.1400 
    121 C         -1.5022  -20.1173  -51.5118 C.2       22 UNK         0.5000 
    122 N         -1.7826  -20.7454  -52.6441 N.am      22 UNK        -0.7600 
    123 O         -0.4882  -20.4215  -50.8969 O.2       22 UNK        -0.5000 
    124 C124       -1.9890  -17.5929  -51.2728 C.3       23 UNK        -0.0398 
    125 S125       -0.6514  -17.0299  -50.1631 S.3       23 UNK        -0.2404 
    126 C126        0.7921  -17.0752  -51.2689 C.3       23 UNK        -0.0205 
    127 H127       -0.8262  -14.2524  -48.4662 H         1 UNK         0.0600 
    128 H128       -1.1927  -12.6457  -47.8276 H         1 UNK         0.0600 
    129 H129       -0.4515  -13.8585  -46.7842 H         1 UNK         0.0600 
    130 H130        1.7890  -13.7271  -46.5737 H         1 UNK         0.3000 
    131 H131        3.5248  -12.9051  -48.7197 H         1 UNK         0.0600 
    132 H132        4.3278  -13.2004  -45.7895 H         1 UNK         0.0800 
    133 H133        5.3676  -13.2657  -47.1835 H         1 UNK         0.0800 
    134 H134        4.8499  -14.8626  -49.1472 H         1 UNK         0.0800 
    135 H135        5.8555  -16.0721  -48.3930 H         1 UNK         0.0800 
    136 H136        2.4924  -15.4397  -49.8803 H         1 UNK         0.1150 
    137 H137        1.9081  -19.5337  -50.9990 H         1 UNK         0.1150 
    138 H138        5.2905  -18.4355  -48.6110 H         1 UNK         0.1150 
    139 H139        3.8158  -21.0785  -50.7401 H         1 UNK         0.0800 
    140 H140        5.1958  -20.6296  -49.7757 H         1 UNK         0.0800 
    141 H141        1.5652  -21.7749  -49.8536 H         1 UNK         0.0800 
    142 H142        1.2325  -20.6279  -48.5757 H         1 UNK         0.0800 
    143 H143        1.4436  -23.6540  -48.1891 H         1 UNK         0.0600 
    144 H144        1.3355  -21.6154  -46.2239 H         1 UNK         0.3000 
    145 H145       -0.1515  -23.6162  -43.6225 H         1 UNK         0.0600 
    146 H146        2.2956  -24.0514  -43.6090 H         1 UNK         0.0600 
    147 H147        2.6200  -22.3736  -44.0215 H         1 UNK         0.0600 
    148 H148        1.8763  -22.7745  -42.4762 H         1 UNK         0.0600 
    149 H149        0.6312  -20.8725  -43.6885 H         1 UNK         0.3000 
    150 H150       -2.5460  -19.5731  -44.7669 H         1 UNK         0.0600 
    151 H151       -2.2133  -18.2738  -42.6711 H         1 UNK         0.0600 
    152 H152       -1.0541  -19.4687  -42.0934 H         1 UNK         0.0600 
    153 H153       -2.7400  -19.9131  -42.3168 H         1 UNK         0.0600 
    154 H154       -0.1453  -18.2229  -44.1113 H         1 UNK         0.3000 
    155 H155        1.3759  -18.3710  -47.3631 H         1 UNK         0.0600 
    156 H156        0.2622  -16.0598  -45.6922 H         1 UNK         0.0600 
    157 H157       -0.3548  -16.5050  -47.2732 H         1 UNK         0.0600 
    158 H158        1.3049  -15.9677  -47.1167 H         1 UNK         0.0600 
    159 H159        2.2660  -17.1788  -44.9494 H         1 UNK         0.3000 
    160 H160        4.0223  -20.0214  -43.6278 H         1 UNK         0.0600 
    161 H161        5.4326  -18.7726  -45.3041 H         1 UNK         0.0600 
    162 H162        5.7880  -18.3133  -43.6456 H         1 UNK         0.0600 
    163 H163        4.8231  -17.2506  -44.6671 H         1 UNK         0.0600 
    164 H164        3.5611  -17.4058  -42.5771 H         1 UNK         0.3000 
    165 H165        0.5560  -18.0678  -40.8117 H         1 UNK         0.0600 
    166 H166        1.9310  -17.3822  -38.8647 H         1 UNK         0.0600 
    167 H167        2.3053  -19.0373  -39.3173 H         1 UNK         0.0600 
    168 H168        3.4146  -17.7415  -39.7488 H         1 UNK         0.0600 
    169 H169        2.3361  -15.8274  -40.8891 H         1 UNK         0.3000 
    170 H170        1.5436  -13.8863  -41.8344 H         1 UNK         0.0600 
    171 H171        2.7581  -13.3488  -43.9489 H         1 UNK         0.0600 
    172 H172        3.3270  -14.8915  -43.3484 H         1 UNK         0.0600 
    173 H173        2.1887  -14.8435  -44.6877 H         1 UNK         0.0600 
    174 H174       -0.6704  -14.4548  -43.5060 H         1 UNK         0.3000 
    175 H175       -1.6209  -12.6410  -44.9985 H         1 UNK         0.0600 
    176 H176       -2.4203  -11.8864  -42.1372 H         1 UNK         0.0600 
    177 H177       -3.5430  -11.9443  -43.4961 H         1 UNK         0.0600 
    178 H178       -2.7274  -13.4033  -42.9625 H         1 UNK         0.0600 
    179 H179       -1.2278  -10.5242  -45.5306 H         1 UNK         0.3000 
    180 H180       -1.6538   -8.1662  -45.4294 H         1 UNK         0.0600 
    181 H181       -0.9027   -6.0846  -44.3218 H         1 UNK         0.0600 
    182 H182       -0.4472   -6.9796  -42.8728 H         1 UNK         0.0600 
    183 H183       -2.1374   -6.8730  -43.3529 H         1 UNK         0.0600 
    184 H184        1.1132   -7.9291  -44.4745 H         1 UNK         0.3000 
    185 H185        2.5793   -8.6681  -47.2308 H         1 UNK         0.0600 
    186 H186        2.9516   -9.3269  -44.2442 H         1 UNK         0.0600 
    187 H187        4.2568   -8.9833  -45.3732 H         1 UNK         0.0600 
    188 H188        3.1024   -7.7266  -44.9774 H         1 UNK         0.0600 
    189 H189        1.8085  -11.2689  -46.2421 H         1 UNK         0.3000 
    190 H190       -1.1642  -21.2858  -47.4425 H         1 UNK         0.3000 
    191 H191       -3.0014  -22.0854  -49.4115 H         1 UNK         0.0600 
    192 H192       -3.6286  -21.0434  -46.5944 H         1 UNK         0.0600 
    193 H193       -4.6878  -20.9823  -47.9944 H         1 UNK         0.0600 
    194 H194       -3.2165  -20.0253  -47.9616 H         1 UNK         0.0600 
    195 H195       -2.6018  -23.3030  -46.0440 H         1 UNK         0.3000 
    196 H196       -4.6702  -25.2248  -46.0984 H         1 UNK         0.0600 
    197 H197       -3.4849  -26.1820  -44.1182 H         1 UNK         0.0600 
    198 H198       -3.6116  -24.4328  -44.0080 H         1 UNK         0.0600 
    199 H199       -2.0809  -25.1785  -44.4598 H         1 UNK         0.0600 
    200 H200       -1.1871  -25.5637  -46.9290 H         1 UNK         0.3000 
    201 H201       -1.2249  -28.3274  -47.5592 H         1 UNK         0.0600 
    202 H202        0.8576  -27.0449  -47.1550 H         1 UNK         0.0600 
    203 H203        0.5882  -26.0918  -48.6121 H         1 UNK         0.0600 
    204 H204        0.9188  -27.8156  -48.7333 H         1 UNK         0.0600 
    205 H205       -1.9568  -25.4705  -49.5618 H         1 UNK         0.3000 
    206 H206       -2.4194  -26.9804  -52.0080 H         1 UNK         0.0600 
    207 H207       -3.1091  -24.7627  -52.8714 H         1 UNK         0.0600 
    208 H208       -3.0816  -24.0834  -51.2473 H         1 UNK         0.0600 
    209 H209       -1.5869  -24.6238  -52.0077 H         1 UNK         0.0600 
    210 H210       -4.2350  -26.7657  -49.1987 H         1 UNK         0.3000 
    211 H211       -6.3223  -27.0275  -48.5383 H         1 UNK         0.0600 
    212 H212       -6.8626  -28.3323  -51.2602 H         1 UNK         0.0600 
    213 H213       -7.8124  -28.5386  -49.7950 H         1 UNK         0.0600 
    214 H214       -6.1692  -29.1530  -49.8620 H         1 UNK         0.0600 
    215 H215       -5.6154  -24.5612  -49.6726 H         1 UNK         0.3000 
    216 H216       -6.2488  -22.5899  -50.2965 H         1 UNK         0.0600 
    217 H217       -8.5416  -21.8001  -49.8068 H         1 UNK         0.0600 
    218 H218       -7.9801  -22.8578  -48.5233 H         1 UNK         0.0600 
    219 H219       -9.1300  -23.4534  -49.7203 H         1 UNK         0.0600 
    220 H220       -6.8349  -25.0744  -52.3376 H         1 UNK         0.3000 
    221 H221       -8.6484  -24.0318  -54.2449 H         1 UNK         0.0600 
    222 H222       -6.4360  -26.1271  -54.5814 H         1 UNK         0.0600 
    223 H223       -8.0798  -26.4451  -54.0295 H         1 UNK         0.0600 
    224 H224       -7.7961  -25.8845  -55.6708 H         1 UNK         0.0600 
    225 H225       -5.1618  -23.6337  -53.9052 H         1 UNK         0.3000 
    226 H226       -4.8056  -22.2555  -56.4775 H         1 UNK         0.0600 
    227 H227       -3.0233  -23.7391  -55.6261 H         1 UNK         0.0600 
    228 H228       -2.4457  -22.0821  -55.6999 H         1 UNK         0.0600 
    229 H229       -2.8904  -22.7877  -54.1506 H         1 UNK         0.0600 
    230 H230       -6.6964  -20.8556  -55.6233 H         1 UNK         0.3000 
    231 H231       -7.5233  -18.8604  -55.0736 H         1 UNK         0.0600 
    232 H232       -4.6913  -17.8579  -55.6800 H         1 UNK         0.0600 
    233 H233       -5.9228  -18.2192  -56.8889 H         1 UNK         0.0600 
    234 H234       -6.1688  -16.9051  -55.7526 H         1 UNK         0.0600 
    235 H235       -6.7689  -20.3312  -52.7918 H         1 UNK         0.3000 
    236 H236       -6.4980  -20.2720  -50.6126 H         1 UNK         0.0600 
    237 H237       -7.3062  -17.3283  -50.7584 H         1 UNK         0.0600 
    238 H238       -8.4231  -18.6932  -50.7760 H         1 UNK         0.0600 
    239 H239       -7.4355  -18.3849  -49.3592 H         1 UNK         0.0600 
    240 H240       -4.0447  -19.7418  -52.1821 H         1 UNK         0.3000 
    241 H241       -2.4010  -19.1616  -49.8673 H         1 UNK         0.0600 
    242 H242       -1.1358  -21.4456  -52.9663 H         1 UNK         0.3800 
    243 H243       -2.5734  -20.4911  -53.2340 H         1 UNK         0.3800 
    244 H244       -1.6997  -17.4955  -52.3204 H         1 UNK         0.0800 
    245 H245       -2.8116  -16.8903  -51.1343 H         1 UNK         0.0800 
    246 H246        0.9108  -16.1021  -51.7474 H         1 UNK         0.0800 
    247 H247        0.6269  -17.7952  -52.0718 H         1 UNK         0.0800 
@<TRIPOS>BOND
     1    1    2 1    
     2    1  127 1    
     3    1  128 1    
     4    1  129 1    
     5    2    3 2    
     6    2    4 am   BACKBONE|DICT|INTERRES
     7    4    5 1    
     8    4  130 1    
     9    5    6 1    
    10    5   65 1    
    11    5  131 1    
    12    6    7 1    
    13    6  132 1    
    14    6  133 1    
    15    7    8 1    
    16    8    9 1    
    17    8  134 1    
    18    8  135 1    
    19    9   10 ar   
    20    9   14 ar   
    21   10   11 ar   
    22   10  136 1    
    23   11   12 ar   
    24   11  126 1    
    25   12   13 ar   
    26   12  137 1    
    27   13   14 ar   
    28   13   15 1    
    29   14  138 1    
    30   15   16 1    
    31   15  139 1    
    32   15  140 1    
    33   16   17 1    
    34   17   18 1    
    35   17  141 1    
    36   17  142 1    
    37   18   19 1    
    38   18   67 1    
    39   18  143 1    
    40   19   20 am   BACKBONE|DICT|INTERRES
    41   19  144 1    
    42   20   21 2    
    43   20   22 1    
    44   22   23 1    
    45   22   24 1    
    46   22  145 1    
    47   23  146 1    
    48   23  147 1    
    49   23  148 1    
    50   24   25 am   BACKBONE|DICT|INTERRES
    51   24  149 1    
    52   25   26 2    
    53   25   27 1    
    54   27   28 1    
    55   27   29 1    
    56   27  150 1    
    57   28  151 1    
    58   28  152 1    
    59   28  153 1    
    60   29   30 am   BACKBONE|DICT|INTERRES
    61   29  154 1    
    62   30   31 2    
    63   30   32 1    
    64   32   33 1    
    65   32   34 1    
    66   32  155 1    
    67   33  156 1    
    68   33  157 1    
    69   33  158 1    
    70   34   35 am   BACKBONE|DICT|INTERRES
    71   34  159 1    
    72   35   36 2    
    73   35   37 1    
    74   37   38 1    
    75   37   39 1    
    76   37  160 1    
    77   38  161 1    
    78   38  162 1    
    79   38  163 1    
    80   39   40 am   BACKBONE|DICT|INTERRES
    81   39  164 1    
    82   40   41 2    
    83   40   42 1    
    84   42   43 1    
    85   42   44 1    
    86   42  165 1    
    87   43  166 1    
    88   43  167 1    
    89   43  168 1    
    90   44   45 am   BACKBONE|DICT|INTERRES
    91   44  169 1    
    92   45   46 2    
    93   45   47 1    
    94   47   48 1    
    95   47   49 1    
    96   47  170 1    
    97   48  171 1    
    98   48  172 1    
    99   48  173 1    
   100   49   50 am   BACKBONE|DICT|INTERRES
   101   49  174 1    
   102   50   51 2    
   103   50   52 1    
   104   52   53 1    
   105   52   54 1    
   106   52  175 1    
   107   53  176 1    
   108   53  177 1    
   109   53  178 1    
   110   54   55 am   BACKBONE|DICT|INTERRES
   111   54  179 1    
   112   55   56 2    
   113   55   57 1    
   114   57   58 1    
   115   57   59 1    
   116   57  180 1    
   117   58  181 1    
   118   58  182 1    
   119   58  183 1    
   120   59   60 am   BACKBONE|DICT|INTERRES
   121   59  184 1    
   122   60   61 2    
   123   60   62 1    
   124   62   63 1    
   125   62   64 1    
   126   62  185 1    
   127   63  186 1    
   128   63  187 1    
   129   63  188 1    
   130   64   65 am   BACKBONE|DICT|INTERRES
   131   64  189 1    
   132   65   66 2    
   133   67   68 2    
   134   67   69 am   BACKBONE|DICT|INTERRES
   135   69   70 1    
   136   69  190 1    
   137   70   71 1    
   138   70   72 1    
   139   70  191 1    
   140   71  192 1    
   141   71  193 1    
   142   71  194 1    
   143   72   73 2    
   144   72   74 am   BACKBONE|DICT|INTERRES
   145   74   75 1    
   146   74  195 1    
   147   75   76 1    
   148   75   77 1    
   149   75  196 1    
   150   76  197 1    
   151   76  198 1    
   152   76  199 1    
   153   77   78 2    
   154   77   79 am   BACKBONE|DICT|INTERRES
   155   79   80 1    
   156   79  200 1    
   157   80   81 1    
   158   80   82 1    
   159   80  201 1    
   160   81  202 1    
   161   81  203 1    
   162   81  204 1    
   163   82   83 2    
   164   82   84 am   BACKBONE|DICT|INTERRES
   165   84   85 1    
   166   84  205 1    
   167   85   86 1    
   168   85   87 1    
   169   85  206 1    
   170   86  207 1    
   171   86  208 1    
   172   86  209 1    
   173   87   88 2    
   174   87   89 am   BACKBONE|DICT|INTERRES
   175   89   90 1    
   176   89  210 1    
   177   90   91 1    
   178   90   92 1    
   179   90  211 1    
   180   91  212 1    
   181   91  213 1    
   182   91  214 1    
   183   92   93 2    
   184   92   94 am   BACKBONE|DICT|INTERRES
   185   94   95 1    
   186   94  215 1    
   187   95   96 1    
   188   95   97 1    
   189   95  216 1    
   190   96  217 1    
   191   96  218 1    
   192   96  219 1    
   193   97   98 2    
   194   97   99 am   BACKBONE|DICT|INTERRES
   195   99  100 1    
   196   99  220 1    
   197  100  101 1    
   198  100  102 1    
   199  100  221 1    
   200  101  222 1    
   201  101  223 1    
   202  101  224 1    
   203  102  103 2    
   204  102  104 am   BACKBONE|DICT|INTERRES
   205  104  105 1    
   206  104  225 1    
   207  105  106 1    
   208  105  107 1    
   209  105  226 1    
   210  106  227 1    
   211  106  228 1    
   212  106  229 1    
   213  107  108 2    
   214  107  109 am   BACKBONE|DICT|INTERRES
   215  109  110 1    
   216  109  230 1    
   217  110  111 1    
   218  110  112 1    
   219  110  231 1    
   220  111  232 1    
   221  111  233 1    
   222  111  234 1    
   223  112  113 2    
   224  112  114 am   BACKBONE|DICT|INTERRES
   225  114  115 1    
   226  114  235 1    
   227  115  116 1    
   228  115  117 1    
   229  115  236 1    
   230  116  237 1    
   231  116  238 1    
   232  116  239 1    
   233  117  118 2    
   234  117  119 am   BACKBONE|DICT|INTERRES
   235  119  120 1    
   236  119  240 1    
   237  120  121 1    
   238  120  124 1    
   239  120  241 1    
   240  121  122 am   BACKBONE|DICT|INTERRES
   241  121  123 2    
   242  122  242 1    
   243  122  243 1    
   244  124  125 1    
   245  124  244 1    
   246  124  245 1    
   247  125  126 1    
   248  126  246 1    
   249  126  247 1    
@<TRIPOS>SUBSTRUCTURE
     1 UNK         1 GROUP             0       ****    0 ROOT    
