@<TRIPOS>MOLECULE
3R540
247   249    1
SMALL
USER_CHARGES


@<TRIPOS>ATOM
      1 CA          5.7829  -15.4989  -48.0264 C.3       0 UNK        -0.1800 
      2 C           4.6648  -14.5422  -47.6413 C.2       0 UNK         0.5000 
      3 O           4.5723  -14.1406  -46.4813 O.2       0 UNK        -0.5000 
      4 N           3.8286  -14.1522  -48.6134 N.am      1 UNK        -0.5000 
      5 CA          2.6281  -13.3158  -48.4454 C.3       1 UNK         0.1400 
      6 C6          1.6671  -13.4242  -49.6570 C.3       23 UNK        -0.0398 
      7 S7          0.8556  -15.0574  -49.7391 S.3       23 UNK        -0.2404 
      8 C8          1.6743  -15.8132  -51.1746 C.3       23 UNK        -0.0205 
      9 C9          1.0799  -17.1789  -51.4837 C.ar      23 UNK        -0.0193 
     10 C10         0.0487  -17.3053  -52.4187 C.ar      23 UNK        -0.1150 
     11 C11        -0.4986  -18.5610  -52.7229 C.ar      23 UNK        -0.0193 
     12 C12        -0.0087  -19.6882  -52.0548 C.ar      23 UNK        -0.1150 
     13 C13         1.0257  -19.5766  -51.1217 C.ar      23 UNK        -0.0193 
     14 C14         1.5682  -18.3192  -50.8433 C.ar      23 UNK        -0.1150 
     15 C15         1.5873  -20.8148  -50.4403 C.3       23 UNK        -0.0205 
     16 S16         1.2851  -20.8044  -48.6473 S.3       23 UNK        -0.2404 
     17 C17        -0.4742  -21.2846  -48.5359 C.3       23 UNK        -0.0398 
     18 CA         -0.6651  -22.3969  -47.4791 C.3       11 UNK         0.1400 
     19 N          -0.3574  -21.9370  -46.1229 N.am      11 UNK        -0.5000 
     20 C          -0.0792  -22.7489  -45.0966 C.2       10 UNK         0.5000 
     21 O          -0.1119  -23.9761  -45.1737 O.2       10 UNK        -0.5000 
     22 CA          0.2664  -22.0847  -43.7538 C.3       10 UNK         0.1400 
     23 CB          1.6796  -21.4835  -43.7887 C.3       10 UNK        -0.1800 
     24 N          -0.6985  -21.0568  -43.3680 N.am      10 UNK        -0.5000 
     25 C          -1.9878  -21.2930  -43.0881 C.2       9 UNK         0.5000 
     26 O          -2.5013  -22.4126  -43.1147 O.2       9 UNK        -0.5000 
     27 CA         -2.8583  -20.0652  -42.7591 C.3       9 UNK         0.1400 
     28 CB         -2.6101  -19.5820  -41.3223 C.3       9 UNK        -0.1800 
     29 N          -2.6511  -18.9576  -43.6934 N.am      9 UNK        -0.5000 
     30 C          -2.9157  -19.0263  -45.0063 C.2       8 UNK         0.5000 
     31 O          -3.3858  -20.0186  -45.5573 O.2       8 UNK        -0.5000 
     32 CA         -2.5426  -17.8060  -45.8622 C.3       8 UNK         0.1400 
     33 CB         -3.5978  -16.6992  -45.7248 C.3       8 UNK        -0.1800 
     34 N          -1.2151  -17.2814  -45.5472 N.am      8 UNK        -0.5000 
     35 C          -0.0802  -17.9853  -45.6683 C.2       7 UNK         0.5000 
     36 O          -0.0363  -19.1455  -46.0691 O.2       7 UNK        -0.5000 
     37 CA          1.2172  -17.3070  -45.2077 C.3       7 UNK         0.1400 
     38 CB          1.6873  -16.2742  -46.2372 C.3       7 UNK        -0.1800 
     39 N           1.0759  -16.6685  -43.9023 N.am      7 UNK        -0.5000 
     40 C           0.7839  -17.3098  -42.7625 C.2       6 UNK         0.5000 
     41 O           0.6292  -18.5280  -42.6755 O.2       6 UNK        -0.5000 
     42 CA          0.5876  -16.4298  -41.5187 C.3       6 UNK         0.1400 
     43 CB          1.9399  -16.0187  -40.9166 C.3       6 UNK        -0.1800 
     44 N          -0.1985  -15.2351  -41.8223 N.am      6 UNK        -0.5000 
     45 C          -1.5060  -15.2459  -42.1149 C.2       5 UNK         0.5000 
     46 O          -2.1974  -16.2654  -42.1373 O.2       5 UNK        -0.5000 
     47 CA         -2.1353  -13.8876  -42.4740 C.3       5 UNK         0.1400 
     48 CB         -2.4581  -13.0839  -41.2053 C.3       5 UNK        -0.1800 
     49 N          -1.2897  -13.0828  -43.3596 N.am      5 UNK        -0.5000 
     50 C          -1.0043  -13.4179  -44.6249 C.2       4 UNK         0.5000 
     51 O          -1.3951  -14.4519  -45.1627 O.2       4 UNK        -0.5000 
     52 CA         -0.1169  -12.4501  -45.4249 C.3       4 UNK         0.1400 
     53 CB         -0.9412  -11.2452  -45.9040 C.3       4 UNK        -0.1800 
     54 N           1.0859  -11.9708  -44.7362 N.am      4 UNK        -0.5000 
     55 C           1.9928  -12.7155  -44.0872 C.2       3 UNK         0.5000 
     56 O           1.8490  -13.9119  -43.8333 O.2       3 UNK        -0.5000 
     57 CA          3.3078  -11.9992  -43.7331 C.3       3 UNK         0.1400 
     58 CB          4.2590  -12.8809  -42.9044 C.3       3 UNK        -0.1800 
     59 N           3.9658  -11.6430  -44.9874 N.am      3 UNK        -0.5000 
     60 C           4.0356  -10.4127  -45.5166 C.2       2 UNK         0.5000 
     61 O           3.6756   -9.3933  -44.9275 O.2       2 UNK        -0.5000 
     62 CA          4.5353  -10.3128  -46.9758 C.3       2 UNK         0.1400 
     63 CB          6.0606  -10.1375  -47.0164 C.3       2 UNK        -0.1800 
     64 N           4.1651  -11.4932  -47.7606 N.am      2 UNK        -0.5000 
     65 C           2.9029  -11.8450  -48.0436 C.2       1 UNK         0.5000 
     66 O           1.9559  -11.0674  -47.9266 O.2       1 UNK        -0.5000 
     67 C          -2.0492  -23.0692  -47.5723 C.2       11 UNK         0.5000 
     68 O          -2.2074  -23.9819  -48.3819 O.2       11 UNK        -0.5000 
     69 N          -3.0077  -22.6761  -46.7198 N.am      12 UNK        -0.5000 
     70 CA         -4.2877  -23.3706  -46.5620 C.3       12 UNK         0.1400 
     71 CB         -5.2536  -22.5250  -45.7205 C.3       12 UNK        -0.1800 
     72 C          -4.1275  -24.7768  -45.9590 C.2       12 UNK         0.5000 
     73 O          -4.8101  -25.7028  -46.3980 O.2       12 UNK        -0.5000 
     74 N          -3.2258  -24.9129  -44.9772 N.am      13 UNK        -0.5000 
     75 CA         -2.9107  -26.1813  -44.3239 C.3       13 UNK         0.1400 
     76 CB         -2.1948  -25.9074  -42.9918 C.3       13 UNK        -0.1800 
     77 C          -2.0742  -27.1127  -45.2198 C.2       13 UNK         0.5000 
     78 O          -2.3929  -28.2977  -45.3256 O.2       13 UNK        -0.5000 
     79 N          -1.0153  -26.5675  -45.8339 N.am      14 UNK        -0.5000 
     80 CA         -0.0683  -27.3105  -46.6656 C.3       14 UNK         0.1400 
     81 CB          1.2146  -26.4824  -46.8398 C.3       14 UNK        -0.1800 
     82 C          -0.6486  -27.7134  -48.0326 C.2       14 UNK         0.5000 
     83 O          -0.4615  -28.8571  -48.4474 O.2       14 UNK        -0.5000 
     84 N          -1.3344  -26.7634  -48.6859 N.am      15 UNK        -0.5000 
     85 CA         -1.9674  -26.8294  -50.0057 C.3       15 UNK         0.1400 
     86 CB         -3.3211  -27.5556  -49.8837 C.3       15 UNK        -0.1800 
     87 C          -1.0725  -27.4301  -51.1213 C.2       15 UNK         0.5000 
     88 O          -1.2498  -28.6011  -51.4556 O.2       15 UNK        -0.5000 
     89 N          -0.1156  -26.7028  -51.7265 N.am      16 UNK        -0.5000 
     90 CA          0.2592  -25.2818  -51.6333 C.3       16 UNK         0.1400 
     91 CB          0.8279  -24.9188  -50.2492 C.3       16 UNK        -0.1800 
     92 C          -0.8329  -24.3108  -52.1291 C.2       16 UNK         0.5000 
     93 O          -0.9621  -23.2048  -51.6062 O.2       16 UNK        -0.5000 
     94 N          -1.6311  -24.7634  -53.1087 N.am      17 UNK        -0.5000 
     95 CA         -2.7207  -24.0430  -53.7919 C.3       17 UNK         0.1400 
     96 CB         -2.1683  -22.8123  -54.5379 C.3       17 UNK        -0.1800 
     97 C          -3.9259  -23.6716  -52.8964 C.2       17 UNK         0.5000 
     98 O          -4.8371  -22.9836  -53.3575 O.2       17 UNK        -0.5000 
     99 N          -3.9065  -24.1292  -51.6364 N.am      18 UNK        -0.5000 
    100 CA        -4.9069  -23.9494  -50.5800 C.3       18 UNK         0.1400 
    101 CB        -6.2214  -24.6635  -50.9542 C.3       18 UNK        -0.1800 
    102 C         -5.1357  -22.4795  -50.1663 C.2       18 UNK         0.5000 
    103 O         -6.1626  -22.1830  -49.5547 O.2       18 UNK        -0.5000 
    104 N         -4.1967  -21.5846  -50.5153 N.am      19 UNK        -0.5000 
    105 CA        -4.1857  -20.1235  -50.3314 C.3       19 UNK         0.1400 
    106 CB        -4.2085  -19.7483  -48.8396 C.3       19 UNK        -0.1800 
    107 C         -5.2881  -19.3591  -51.0969 C.2       19 UNK         0.5000 
    108 O         -5.0158  -18.2873  -51.6398 O.2       19 UNK        -0.5000 
    109 N         -6.5003  -19.9233  -51.1550 N.am      20 UNK        -0.5000 
    110 CA        -7.7078  -19.3859  -51.7875 C.3       20 UNK         0.1400 
    111 CB        -8.8719  -20.3503  -51.5140 C.3       20 UNK        -0.1800 
    112 C         -7.5800  -19.1130  -53.2989 C.2       20 UNK         0.5000 
    113 O         -8.3414  -18.3037  -53.8297 O.2       20 UNK        -0.5000 
    114 N         -6.6115  -19.7633  -53.9594 N.am      21 UNK        -0.5000 
    115 CA        -6.2201  -19.4936  -55.3438 C.3       21 UNK         0.1400 
    116 CB        -5.2238  -20.5710  -55.7943 C.3       21 UNK        -0.1800 
    117 C         -5.6045  -18.0923  -55.5401 C.2       21 UNK         0.5000 
    118 O         -5.7029  -17.5425  -56.6382 O.2       21 UNK        -0.5000 
    119 N         -4.9876  -17.5497  -54.4828 N.am      22 UNK        -0.5000 
    120 CA        -4.3714  -16.2157  -54.4499 C.3       22 UNK         0.1400 
    121 C         -5.1957  -15.2225  -53.5891 C.2       22 UNK         0.5000 
    122 N         -5.7716  -15.6491  -52.4710 N.am      22 UNK        -0.7600 
    123 O         -5.3195  -14.0530  -53.9420 O.2       22 UNK        -0.5000 
    124 C124       -2.9093  -16.2675  -53.9415 C.3       23 UNK        -0.0398 
    125 S125       -1.8552  -17.3811  -54.9343 S.3       23 UNK        -0.2404 
    126 C126       -1.6056  -18.7612  -53.7626 C.3       23 UNK        -0.0205 
    127 H127        5.7494  -15.7574  -49.0850 H         1 UNK         0.0600 
    128 H128        5.7006  -16.4194  -47.4486 H         1 UNK         0.0600 
    129 H129        6.7523  -15.0477  -47.8153 H         1 UNK         0.0600 
    130 H130        3.9851  -14.4933  -49.5504 H         1 UNK         0.3000 
    131 H131        2.0975  -13.7210  -47.5828 H         1 UNK         0.0600 
    132 H132        0.8605  -12.6921  -49.5889 H         1 UNK         0.0800 
    133 H133        2.1904  -13.2059  -50.5890 H         1 UNK         0.0800 
    134 H134        1.5737  -15.1566  -52.0403 H         1 UNK         0.0800 
    135 H135        2.7430  -15.9085  -50.9783 H         1 UNK         0.0800 
    136 H136       -0.3121  -16.4136  -52.9079 H         1 UNK         0.1150 
    137 H137       -0.4220  -20.6624  -52.2762 H         1 UNK         0.1150 
    138 H138        2.3685  -18.2291  -50.1220 H         1 UNK         0.1150 
    139 H139        1.1792  -21.7248  -50.8802 H         1 UNK         0.0800 
    140 H140        2.6638  -20.8508  -50.6119 H         1 UNK         0.0800 
    141 H141       -0.8189  -21.6172  -49.5158 H         1 UNK         0.0800 
    142 H142       -1.0616  -20.4010  -48.2850 H         1 UNK         0.0800 
    143 H143        0.0556  -23.1827  -47.7140 H         1 UNK         0.0600 
    144 H144       -0.2846  -20.9276  -45.9980 H         1 UNK         0.3000 
    145 H145        0.2492  -22.8619  -42.9869 H         1 UNK         0.0600 
    146 H146        1.9649  -21.0932  -42.8117 H         1 UNK         0.0600 
    147 H147        2.4181  -22.2360  -44.0679 H         1 UNK         0.0600 
    148 H148        1.7531  -20.6670  -44.5079 H         1 UNK         0.0600 
    149 H149       -0.3465  -20.1057  -43.3018 H         1 UNK         0.3000 
    150 H150       -3.9033  -20.3725  -42.8365 H         1 UNK         0.0600 
    151 H151       -2.7718  -20.3879  -40.6055 H         1 UNK         0.0600 
    152 H152       -3.2879  -18.7700  -41.0581 H         1 UNK         0.0600 
    153 H153       -1.5902  -19.2209  -41.1876 H         1 UNK         0.0600 
    154 H154       -2.2717  -18.0992  -43.3106 H         1 UNK         0.3000 
    155 H155       -2.5235  -18.1281  -46.9047 H         1 UNK         0.0600 
    156 H156       -3.6182  -16.2856  -44.7158 H         1 UNK         0.0600 
    157 H157       -3.4016  -15.8814  -46.4183 H         1 UNK         0.0600 
    158 H158       -4.5954  -17.0802  -45.9468 H         1 UNK         0.0600 
    159 H159       -1.1720  -16.3131  -45.2388 H         1 UNK         0.3000 
    160 H160        1.9871  -18.0761  -45.1197 H         1 UNK         0.0600 
    161 H161        2.6170  -15.8089  -45.9153 H         1 UNK         0.0600 
    162 H162        0.9500  -15.4844  -46.3809 H         1 UNK         0.0600 
    163 H163        1.8685  -16.7393  -47.2071 H         1 UNK         0.0600 
    164 H164        1.2170  -15.6610  -43.8714 H         1 UNK         0.3000 
    165 H165        0.0466  -17.0170  -40.7734 H         1 UNK         0.0600 
    166 H166        1.8051  -15.4361  -40.0052 H         1 UNK         0.0600 
    167 H167        2.5325  -16.8967  -40.6569 H         1 UNK         0.0600 
    168 H168        2.5285  -15.4208  -41.6132 H         1 UNK         0.0600 
    169 H169        0.3086  -14.3657  -41.9033 H         1 UNK         0.3000 
    170 H170       -3.0739  -14.0878  -42.9954 H         1 UNK         0.0600 
    171 H171       -1.5554  -12.8206  -40.6526 H         1 UNK         0.0600 
    172 H172       -2.9852  -12.1608  -41.4471 H         1 UNK         0.0600 
    173 H173       -3.0992  -13.6566  -40.5337 H         1 UNK         0.0600 
    174 H174       -0.9163  -12.2219  -42.9878 H         1 UNK         0.3000 
    175 H175        0.2223  -12.9912  -46.3092 H         1 UNK         0.0600 
    176 H176       -0.3671  -10.6168  -46.5846 H         1 UNK         0.0600 
    177 H177       -1.2678  -10.6229  -45.0701 H         1 UNK         0.0600 
    178 H178       -1.8332  -11.5698  -46.4416 H         1 UNK         0.0600 
    179 H179        1.3158  -11.0005  -44.8972 H         1 UNK         0.3000 
    180 H180        3.0632  -11.1109  -43.1473 H         1 UNK         0.0600 
    181 H181        4.5314  -13.7930  -43.4377 H         1 UNK         0.0600 
    182 H182        3.7971  -13.1745  -41.9611 H         1 UNK         0.0600 
    183 H183        5.1789  -12.3476  -42.6648 H         1 UNK         0.0600 
    184 H184        4.2501  -12.4348  -45.5587 H         1 UNK         0.3000 
    185 H185        4.0732   -9.4350  -47.4322 H         1 UNK         0.0600 
    186 H186        6.5765  -10.9957  -46.5836 H         1 UNK         0.0600 
    187 H187        6.4160  -10.0122  -48.0393 H         1 UNK         0.0600 
    188 H188        6.3662   -9.2532  -46.4557 H         1 UNK         0.0600 
    189 H189        4.8793  -12.1976  -47.8753 H         1 UNK         0.3000 
    190 H190       -2.8500  -21.8737  -46.1178 H         1 UNK         0.3000 
    191 H191       -4.7340  -23.4933  -47.5471 H         1 UNK         0.0600 
    192 H192       -5.4796  -21.5810  -46.2164 H         1 UNK         0.0600 
    193 H193       -6.2009  -23.0443  -45.5707 H         1 UNK         0.0600 
    194 H194       -4.8410  -22.2999  -44.7365 H         1 UNK         0.0600 
    195 H195       -2.7200  -24.0961  -44.6568 H         1 UNK         0.3000 
    196 H196       -3.8490  -26.6923  -44.0972 H         1 UNK         0.0600 
    197 H197       -1.9635  -26.8390  -42.4739 H         1 UNK         0.0600 
    198 H198       -2.8187  -25.3106  -42.3263 H         1 UNK         0.0600 
    199 H199       -1.2570  -25.3704  -43.1371 H         1 UNK         0.0600 
    200 H200       -0.7917  -25.5909  -45.6497 H         1 UNK         0.3000 
    201 H201        0.1987  -28.2283  -46.1372 H         1 UNK         0.0600 
    202 H202        1.6935  -26.2953  -45.8785 H         1 UNK         0.0600 
    203 H203        1.0123  -25.5160  -47.3016 H         1 UNK         0.0600 
    204 H204        1.9375  -27.0045  -47.4679 H         1 UNK         0.0600 
    205 H205       -1.4390  -25.8633  -48.2311 H         1 UNK         0.3000 
    206 H206       -2.1930  -25.8040  -50.2803 H         1 UNK         0.0600 
    207 H207       -3.9737  -27.0499  -49.1713 H         1 UNK         0.0600 
    208 H208       -3.8421  -27.5787  -50.8416 H         1 UNK         0.0600 
    209 H209       -3.1988  -28.5861  -49.5481 H         1 UNK         0.0600 
    210 H210        0.4276  -27.2020  -52.4166 H         1 UNK         0.3000 
    211 H211        1.0808  -25.1668  -52.3416 H         1 UNK         0.0600 
    212 H212        0.0438  -24.7200  -49.5245 H         1 UNK         0.0600 
    213 H213        1.4347  -24.0156  -50.3078 H         1 UNK         0.0600 
    214 H214        1.4666  -25.7102  -49.8577 H         1 UNK         0.0600 
    215 H215       -1.4546  -25.6968  -53.4550 H         1 UNK         0.3000 
    216 H216       -3.1092  -24.7338  -54.5415 H         1 UNK         0.0600 
    217 H217       -2.9110  -22.4103  -55.2262 H         1 UNK         0.0600 
    218 H218       -1.2898  -23.0681  -55.1302 H         1 UNK         0.0600 
    219 H219       -1.8897  -22.0138  -53.8504 H         1 UNK         0.0600 
    220 H220       -3.0680  -24.6113  -51.3541 H         1 UNK         0.3000 
    221 H221       -4.5053  -24.4524  -49.7004 H         1 UNK         0.0600 
    222 H222       -6.7249  -24.1737  -51.7883 H         1 UNK         0.0600 
    223 H223       -6.0402  -25.7015  -51.2331 H         1 UNK         0.0600 
    224 H224       -6.9162  -24.6734  -50.1136 H         1 UNK         0.0600 
    225 H225       -3.4048  -21.9529  -51.0248 H         1 UNK         0.3000 
    226 H226       -3.2323  -19.7834  -50.7394 H         1 UNK         0.0600 
    227 H227       -3.3993  -20.2341  -48.2981 H         1 UNK         0.0600 
    228 H228       -4.0905  -18.6722  -48.7086 H         1 UNK         0.0600 
    229 H229       -5.1444  -20.0319  -48.3579 H         1 UNK         0.0600 
    230 H230       -6.6117  -20.7956  -50.6432 H         1 UNK         0.3000 
    231 H231       -7.9301  -18.4317  -51.3061 H         1 UNK         0.0600 
    232 H232       -8.6846  -21.3352  -51.9439 H         1 UNK         0.0600 
    233 H233       -9.8026  -19.9750  -51.9415 H         1 UNK         0.0600 
    234 H234       -9.0351  -20.4779  -50.4436 H         1 UNK         0.0600 
    235 H235       -6.0573  -20.4408  -53.4545 H         1 UNK         0.3000 
    236 H236       -7.1118  -19.5603  -55.9704 H         1 UNK         0.0600 
    237 H237       -4.9359  -20.4284  -56.8366 H         1 UNK         0.0600 
    238 H238       -4.3138  -20.5403  -55.1945 H         1 UNK         0.0600 
    239 H239       -5.6519  -21.5699  -55.7079 H         1 UNK         0.0600 
    240 H240       -4.9966  -18.0477  -53.6006 H         1 UNK         0.3000 
    241 H241       -4.3442  -15.8019  -55.4598 H         1 UNK         0.0600 
    242 H242       -5.6117  -16.5946  -52.1351 H         1 UNK         0.3800 
    243 H243       -6.3118  -15.0052  -51.9158 H         1 UNK         0.3800 
    244 H244       -2.4630  -15.2723  -53.9783 H         1 UNK         0.0800 
    245 H245       -2.8794  -16.5728  -52.8937 H         1 UNK         0.0800 
    246 H246       -1.3668  -19.6438  -54.3575 H         1 UNK         0.0800 
    247 H247       -2.5441  -18.9829  -53.2529 H         1 UNK         0.0800 
@<TRIPOS>BOND
     1    1    2 1    
     2    1  127 1    
     3    1  128 1    
     4    1  129 1    
     5    2    3 2    
     6    2    4 am   BACKBONE|DICT|INTERRES
     7    4    5 1    
     8    4  130 1    
     9    5    6 1    
    10    5   65 1    
    11    5  131 1    
    12    6    7 1    
    13    6  132 1    
    14    6  133 1    
    15    7    8 1    
    16    8    9 1    
    17    8  134 1    
    18    8  135 1    
    19    9   10 ar   
    20    9   14 ar   
    21   10   11 ar   
    22   10  136 1    
    23   11   12 ar   
    24   11  126 1    
    25   12   13 ar   
    26   12  137 1    
    27   13   14 ar   
    28   13   15 1    
    29   14  138 1    
    30   15   16 1    
    31   15  139 1    
    32   15  140 1    
    33   16   17 1    
    34   17   18 1    
    35   17  141 1    
    36   17  142 1    
    37   18   19 1    
    38   18   67 1    
    39   18  143 1    
    40   19   20 am   BACKBONE|DICT|INTERRES
    41   19  144 1    
    42   20   21 2    
    43   20   22 1    
    44   22   23 1    
    45   22   24 1    
    46   22  145 1    
    47   23  146 1    
    48   23  147 1    
    49   23  148 1    
    50   24   25 am   BACKBONE|DICT|INTERRES
    51   24  149 1    
    52   25   26 2    
    53   25   27 1    
    54   27   28 1    
    55   27   29 1    
    56   27  150 1    
    57   28  151 1    
    58   28  152 1    
    59   28  153 1    
    60   29   30 am   BACKBONE|DICT|INTERRES
    61   29  154 1    
    62   30   31 2    
    63   30   32 1    
    64   32   33 1    
    65   32   34 1    
    66   32  155 1    
    67   33  156 1    
    68   33  157 1    
    69   33  158 1    
    70   34   35 am   BACKBONE|DICT|INTERRES
    71   34  159 1    
    72   35   36 2    
    73   35   37 1    
    74   37   38 1    
    75   37   39 1    
    76   37  160 1    
    77   38  161 1    
    78   38  162 1    
    79   38  163 1    
    80   39   40 am   BACKBONE|DICT|INTERRES
    81   39  164 1    
    82   40   41 2    
    83   40   42 1    
    84   42   43 1    
    85   42   44 1    
    86   42  165 1    
    87   43  166 1    
    88   43  167 1    
    89   43  168 1    
    90   44   45 am   BACKBONE|DICT|INTERRES
    91   44  169 1    
    92   45   46 2    
    93   45   47 1    
    94   47   48 1    
    95   47   49 1    
    96   47  170 1    
    97   48  171 1    
    98   48  172 1    
    99   48  173 1    
   100   49   50 am   BACKBONE|DICT|INTERRES
   101   49  174 1    
   102   50   51 2    
   103   50   52 1    
   104   52   53 1    
   105   52   54 1    
   106   52  175 1    
   107   53  176 1    
   108   53  177 1    
   109   53  178 1    
   110   54   55 am   BACKBONE|DICT|INTERRES
   111   54  179 1    
   112   55   56 2    
   113   55   57 1    
   114   57   58 1    
   115   57   59 1    
   116   57  180 1    
   117   58  181 1    
   118   58  182 1    
   119   58  183 1    
   120   59   60 am   BACKBONE|DICT|INTERRES
   121   59  184 1    
   122   60   61 2    
   123   60   62 1    
   124   62   63 1    
   125   62   64 1    
   126   62  185 1    
   127   63  186 1    
   128   63  187 1    
   129   63  188 1    
   130   64   65 am   BACKBONE|DICT|INTERRES
   131   64  189 1    
   132   65   66 2    
   133   67   68 2    
   134   67   69 am   BACKBONE|DICT|INTERRES
   135   69   70 1    
   136   69  190 1    
   137   70   71 1    
   138   70   72 1    
   139   70  191 1    
   140   71  192 1    
   141   71  193 1    
   142   71  194 1    
   143   72   73 2    
   144   72   74 am   BACKBONE|DICT|INTERRES
   145   74   75 1    
   146   74  195 1    
   147   75   76 1    
   148   75   77 1    
   149   75  196 1    
   150   76  197 1    
   151   76  198 1    
   152   76  199 1    
   153   77   78 2    
   154   77   79 am   BACKBONE|DICT|INTERRES
   155   79   80 1    
   156   79  200 1    
   157   80   81 1    
   158   80   82 1    
   159   80  201 1    
   160   81  202 1    
   161   81  203 1    
   162   81  204 1    
   163   82   83 2    
   164   82   84 am   BACKBONE|DICT|INTERRES
   165   84   85 1    
   166   84  205 1    
   167   85   86 1    
   168   85   87 1    
   169   85  206 1    
   170   86  207 1    
   171   86  208 1    
   172   86  209 1    
   173   87   88 2    
   174   87   89 am   BACKBONE|DICT|INTERRES
   175   89   90 1    
   176   89  210 1    
   177   90   91 1    
   178   90   92 1    
   179   90  211 1    
   180   91  212 1    
   181   91  213 1    
   182   91  214 1    
   183   92   93 2    
   184   92   94 am   BACKBONE|DICT|INTERRES
   185   94   95 1    
   186   94  215 1    
   187   95   96 1    
   188   95   97 1    
   189   95  216 1    
   190   96  217 1    
   191   96  218 1    
   192   96  219 1    
   193   97   98 2    
   194   97   99 am   BACKBONE|DICT|INTERRES
   195   99  100 1    
   196   99  220 1    
   197  100  101 1    
   198  100  102 1    
   199  100  221 1    
   200  101  222 1    
   201  101  223 1    
   202  101  224 1    
   203  102  103 2    
   204  102  104 am   BACKBONE|DICT|INTERRES
   205  104  105 1    
   206  104  225 1    
   207  105  106 1    
   208  105  107 1    
   209  105  226 1    
   210  106  227 1    
   211  106  228 1    
   212  106  229 1    
   213  107  108 2    
   214  107  109 am   BACKBONE|DICT|INTERRES
   215  109  110 1    
   216  109  230 1    
   217  110  111 1    
   218  110  112 1    
   219  110  231 1    
   220  111  232 1    
   221  111  233 1    
   222  111  234 1    
   223  112  113 2    
   224  112  114 am   BACKBONE|DICT|INTERRES
   225  114  115 1    
   226  114  235 1    
   227  115  116 1    
   228  115  117 1    
   229  115  236 1    
   230  116  237 1    
   231  116  238 1    
   232  116  239 1    
   233  117  118 2    
   234  117  119 am   BACKBONE|DICT|INTERRES
   235  119  120 1    
   236  119  240 1    
   237  120  121 1    
   238  120  124 1    
   239  120  241 1    
   240  121  122 am   BACKBONE|DICT|INTERRES
   241  121  123 2    
   242  122  242 1    
   243  122  243 1    
   244  124  125 1    
   245  124  244 1    
   246  124  245 1    
   247  125  126 1    
   248  126  246 1    
   249  126  247 1    
@<TRIPOS>SUBSTRUCTURE
     1 UNK         1 GROUP             0       ****    0 ROOT    
