@<TRIPOS>MOLECULE
3R540
247   249    1
SMALL
USER_CHARGES


@<TRIPOS>ATOM
      1 CA          1.3075  -15.1357  -52.8927 C.3       0 UNK        -0.1800 
      2 C           1.0752  -14.6489  -51.4708 C.2       0 UNK         0.5000 
      3 O           0.3024  -15.2704  -50.7441 O.2       0 UNK        -0.5000 
      4 N           1.7403  -13.5435  -51.0957 N.am      1 UNK        -0.5000 
      5 CA          1.7237  -12.8649  -49.7872 C.3       1 UNK         0.1400 
      6 C6          2.7172  -13.4552  -48.7426 C.3       23 UNK        -0.0398 
      7 S7          2.4303  -15.1836  -48.2225 S.3       23 UNK        -0.2404 
      8 C8          3.6918  -16.0376  -49.2129 C.3       23 UNK        -0.0205 
      9 C9          3.5610  -17.5494  -49.1235 C.ar      23 UNK        -0.0193 
     10 C10         2.5377  -18.2053  -49.8129 C.ar      23 UNK        -0.1150 
     11 C11         2.4543  -19.6005  -49.8017 C.ar      23 UNK        -0.0193 
     12 C12         3.3992  -20.3399  -49.0829 C.ar      23 UNK        -0.1150 
     13 C13         4.4195  -19.6942  -48.3768 C.ar      23 UNK        -0.0193 
     14 C14         4.4901  -18.2980  -48.3960 C.ar      23 UNK        -0.1150 
     15 C15         5.4765  -20.4974  -47.6317 C.3       23 UNK        -0.0205 
     16 S16         4.9372  -20.9606  -45.9563 S.3       23 UNK        -0.2404 
     17 C17         3.9435  -22.4492  -46.3059 C.3       23 UNK        -0.0398 
     18 CA          3.7380  -23.3253  -45.0455 C.3       11 UNK         0.1400 
     19 N           2.8461  -22.6726  -44.0803 N.am      11 UNK        -0.5000 
     20 C           2.7054  -23.0052  -42.7906 C.2       10 UNK         0.5000 
     21 O           3.3813  -23.8662  -42.2271 O.2       10 UNK        -0.5000 
     22 CA          1.5782  -22.2904  -42.0188 C.3       10 UNK         0.1400 
     23 CB          2.0465  -20.9198  -41.5073 C.3       10 UNK        -0.1800 
     24 N           0.3621  -22.1298  -42.8236 N.am      10 UNK        -0.5000 
     25 C          -0.4138  -23.1431  -43.2376 C.2       9 UNK         0.5000 
     26 O          -0.2057  -24.3218  -42.9526 O.2       9 UNK        -0.5000 
     27 CA         -1.5890  -22.7948  -44.1671 C.3       9 UNK         0.1400 
     28 CB         -2.8397  -22.4154  -43.3611 C.3       9 UNK        -0.1800 
     29 N          -1.2469  -21.7174  -45.0944 N.am      9 UNK        -0.5000 
     30 C          -0.4753  -21.8832  -46.1784 C.2       8 UNK         0.5000 
     31 O          -0.0217  -22.9733  -46.5296 O.2       8 UNK        -0.5000 
     32 CA         -0.1190  -20.6188  -46.9842 C.3       8 UNK         0.1400 
     33 CB         -1.1993  -20.3374  -48.0393 C.3       8 UNK        -0.1800 
     34 N           0.0647  -19.4332  -46.1443 N.am      8 UNK        -0.5000 
     35 C           1.0060  -19.3206  -45.1934 C.2       7 UNK         0.5000 
     36 O           1.8350  -20.1970  -44.9635 O.2       7 UNK        -0.5000 
     37 CA          0.9821  -18.0710  -44.2894 C.3       7 UNK         0.1400 
     38 CB          1.9291  -16.9982  -44.8414 C.3       7 UNK        -0.1800 
     39 N          -0.3516  -17.4968  -44.1107 N.am      7 UNK        -0.5000 
     40 C          -1.4257  -18.1620  -43.6578 C.2       6 UNK         0.5000 
     41 O          -1.3689  -19.3067  -43.2065 O.2       6 UNK        -0.5000 
     42 CA         -2.8018  -17.4747  -43.7908 C.3       6 UNK         0.1400 
     43 CB         -3.2596  -16.9265  -42.4315 C.3       6 UNK        -0.1800 
     44 N          -2.8561  -16.3949  -44.7806 N.am      6 UNK        -0.5000 
     45 C          -2.5138  -16.4787  -46.0763 C.2       5 UNK         0.5000 
     46 O          -2.1421  -17.5173  -46.6223 O.2       5 UNK        -0.5000 
     47 CA         -2.5064  -15.1597  -46.8745 C.3       5 UNK         0.1400 
     48 CB         -3.8409  -14.9882  -47.6164 C.3       5 UNK        -0.1800 
     49 N          -2.2376  -13.9511  -46.0801 N.am      5 UNK        -0.5000 
     50 C          -1.1874  -13.7502  -45.2654 C.2       4 UNK         0.5000 
     51 O          -0.3627  -14.6198  -44.9798 O.2       4 UNK        -0.5000 
     52 CA         -1.0382  -12.3284  -44.6985 C.3       4 UNK         0.1400 
     53 CB          0.2659  -12.1215  -43.9048 C.3       4 UNK        -0.1800 
     54 N          -1.0969  -11.3772  -45.8028 N.am      4 UNK        -0.5000 
     55 C          -1.6458  -10.1570  -45.7607 C.2       3 UNK         0.5000 
     56 O          -2.1445   -9.6703  -44.7450 O.2       3 UNK        -0.5000 
     57 CA         -1.6512   -9.3367  -47.0704 C.3       3 UNK         0.1400 
     58 CB         -0.5230   -8.2938  -47.0533 C.3       3 UNK        -0.1800 
     59 N          -1.5197  -10.1529  -48.2804 N.am      3 UNK        -0.5000 
     60 C          -2.4239  -11.0445  -48.7077 C.2       2 UNK         0.5000 
     61 O          -3.5226  -11.2058  -48.1756 O.2       2 UNK        -0.5000 
     62 CA         -2.0283  -11.9407  -49.8990 C.3       2 UNK         0.1400 
     63 CB         -2.6804  -11.4368  -51.1952 C.3       2 UNK        -0.1800 
     64 N          -0.5893  -12.1189  -50.1279 N.am      2 UNK        -0.5000 
     65 C           0.3044  -12.5849  -49.2413 C.2       1 UNK         0.5000 
     66 O           0.0459  -12.7706  -48.0535 O.2       1 UNK        -0.5000 
     67 C           3.2495  -24.7344  -45.4538 C.2       11 UNK         0.5000 
     68 O           4.0241  -25.4788  -46.0562 O.2       11 UNK        -0.5000 
     69 N           1.9899  -25.0709  -45.1348 N.am      12 UNK        -0.5000 
     70 CA          1.2877  -26.3148  -45.4606 C.3       12 UNK         0.1400 
     71 CB          1.9216  -27.5161  -44.7287 C.3       12 UNK        -0.1800 
     72 C           1.1458  -26.5274  -46.9817 C.2       12 UNK         0.5000 
     73 O           1.3452  -27.6369  -47.4798 O.2       12 UNK        -0.5000 
     74 N           0.7923  -25.4483  -47.6944 N.am      13 UNK        -0.5000 
     75 CA          0.5737  -25.4369  -49.1431 C.3       13 UNK         0.1400 
     76 CB          0.6409  -23.9844  -49.6414 C.3       13 UNK        -0.1800 
     77 C          -0.7593  -26.0901  -49.5627 C.2       13 UNK         0.5000 
     78 O          -0.9375  -26.3790  -50.7464 O.2       13 UNK        -0.5000 
     79 N          -1.6655  -26.2979  -48.5928 N.am      14 UNK        -0.5000 
     80 CA         -3.0073  -26.8781  -48.7311 C.3       14 UNK         0.1400 
     81 CB         -2.9302  -28.3530  -49.1788 C.3       14 UNK        -0.1800 
     82 C          -3.9415  -26.0217  -49.6119 C.2       14 UNK         0.5000 
     83 O          -4.7688  -26.5586  -50.3514 O.2       14 UNK        -0.5000 
     84 N          -3.7841  -24.6949  -49.5130 N.am      15 UNK        -0.5000 
     85 CA         -4.5957  -23.6981  -50.2045 C.3       15 UNK         0.1400 
     86 CB         -3.9510  -22.3189  -50.0133 C.3       15 UNK        -0.1800 
     87 C          -6.0410  -23.6882  -49.6787 C.2       15 UNK         0.5000 
     88 O          -6.2444  -23.7004  -48.4610 O.2       15 UNK        -0.5000 
     89 N          -7.0113  -23.6376  -50.6006 N.am      16 UNK        -0.5000 
     90 CA         -8.4449  -23.5809  -50.3111 C.3       16 UNK         0.1400 
     91 CB         -9.2307  -23.6063  -51.6313 C.3       16 UNK        -0.1800 
     92 C          -8.7967  -22.3321  -49.4850 C.2       16 UNK         0.5000 
     93 O          -8.5253  -21.2171  -49.9330 O.2       16 UNK        -0.5000 
     94 N          -9.3285  -22.5520  -48.2742 N.am      17 UNK        -0.5000 
     95 CA         -9.6631  -21.5422  -47.2599 C.3       17 UNK         0.1400 
     96 CB        -10.8500  -20.6775  -47.7348 C.3       17 UNK        -0.1800 
     97 C          -8.4582  -20.6878  -46.7972 C.2       17 UNK         0.5000 
     98 O          -8.6573  -19.5745  -46.3083 O.2       17 UNK        -0.5000 
     99 N          -7.2353  -21.2199  -46.9637 N.am      18 UNK        -0.5000 
    100 CA        -5.9448  -20.5675  -46.7173 C.3       18 UNK         0.1400 
    101 CB        -5.7252  -20.3321  -45.2090 C.3       18 UNK        -0.1800 
    102 C         -5.7425  -19.2945  -47.5705 C.2       18 UNK         0.5000 
    103 O         -5.2257  -18.2925  -47.0762 O.2       18 UNK        -0.5000 
    104 N         -6.1785  -19.3522  -48.8365 N.am      19 UNK        -0.5000 
    105 CA        -5.9973  -18.2967  -49.8326 C.3       19 UNK         0.1400 
    106 CB        -6.9139  -18.5957  -51.0301 C.3       19 UNK        -0.1800 
    107 C         -4.5343  -18.1640  -50.3009 C.2       19 UNK         0.5000 
    108 O         -3.7208  -19.0666  -50.0928 O.2       19 UNK        -0.5000 
    109 N         -4.2412  -17.0592  -50.9975 N.am      20 UNK        -0.5000 
    110 CA        -2.9468  -16.7316  -51.6060 C.3       20 UNK         0.1400 
    111 CB        -2.9244  -15.2170  -51.8747 C.3       20 UNK        -0.1800 
    112 C         -2.6512  -17.5567  -52.8826 C.2       20 UNK         0.5000 
    113 O         -2.2730  -16.9967  -53.9141 O.2       20 UNK        -0.5000 
    114 N         -2.8403  -18.8805  -52.7992 N.am      21 UNK        -0.5000 
    115 CA        -2.7644  -19.8401  -53.9065 C.3       21 UNK         0.1400 
    116 CB        -3.2196  -21.2174  -53.4023 C.3       21 UNK        -0.1800 
    117 C         -1.3785  -19.9438  -54.5716 C.2       21 UNK         0.5000 
    118 O         -1.2931  -20.3534  -55.7301 O.2       21 UNK        -0.5000 
    119 N         -0.3286  -19.5575  -53.8381 N.am      22 UNK        -0.5000 
    120 CA         1.0511  -19.4497  -54.3359 C.3       22 UNK         0.1400 
    121 C          1.2984  -18.2257  -55.2696 C.2       22 UNK         0.5000 
    122 N          0.3640  -17.2931  -55.4230 N.am      22 UNK        -0.7600 
    123 O          2.3607  -18.1255  -55.8772 O.2       22 UNK        -0.5000 
    124 C124        2.0848  -19.4836  -53.1811 C.3       23 UNK        -0.0398 
    125 S125        1.9497  -20.9874  -52.1512 S.3       23 UNK        -0.2404 
    126 C126        1.3506  -20.3112  -50.5708 C.3       23 UNK        -0.0205 
    127 H127        0.3584  -15.1989  -53.4247 H         1 UNK         0.0600 
    128 H128        1.7585  -16.1273  -52.8784 H         1 UNK         0.0600 
    129 H129        1.9665  -14.4705  -53.4509 H         1 UNK         0.0600 
    130 H130        2.3404  -13.1045  -51.7799 H         1 UNK         0.3000 
    131 H131        2.1068  -11.8671  -50.0071 H         1 UNK         0.0600 
    132 H132        3.7318  -13.3728  -49.1336 H         1 UNK         0.0800 
    133 H133        2.7162  -12.8391  -47.8418 H         1 UNK         0.0800 
    134 H134        3.6040  -15.7353  -50.2569 H         1 UNK         0.0800 
    135 H135        4.6814  -15.7181  -48.8829 H         1 UNK         0.0800 
    136 H136        1.8142  -17.6236  -50.3669 H         1 UNK         0.1150 
    137 H137        3.3464  -21.4192  -49.0854 H         1 UNK         0.1150 
    138 H138        5.2848  -17.7949  -47.8633 H         1 UNK         0.1150 
    139 H139        5.7476  -21.3862  -48.2031 H         1 UNK         0.0800 
    140 H140        6.3922  -19.9104  -47.5465 H         1 UNK         0.0800 
    141 H141        2.9821  -22.1470  -46.7247 H         1 UNK         0.0800 
    142 H142        4.4567  -23.0129  -47.0872 H         1 UNK         0.0800 
    143 H143        4.7082  -23.4659  -44.5643 H         1 UNK         0.0600 
    144 H144        2.3207  -21.8749  -44.4345 H         1 UNK         0.3000 
    145 H145        1.3248  -22.9050  -41.1524 H         1 UNK         0.0600 
    146 H146        1.2488  -20.3996  -40.9765 H         1 UNK         0.0600 
    147 H147        2.3853  -20.2785  -42.3203 H         1 UNK         0.0600 
    148 H148        2.8810  -21.0311  -40.8140 H         1 UNK         0.0600 
    149 H149        0.1160  -21.1893  -43.1023 H         1 UNK         0.3000 
    150 H150       -1.8284  -23.6883  -44.7482 H         1 UNK         0.0600 
    151 H151       -3.1333  -23.2280  -42.6955 H         1 UNK         0.0600 
    152 H152       -3.6843  -22.2159  -44.0197 H         1 UNK         0.0600 
    153 H153       -2.6770  -21.5321  -42.7439 H         1 UNK         0.0600 
    154 H154       -1.5211  -20.7815  -44.8241 H         1 UNK         0.3000 
    155 H155        0.8254  -20.8096  -47.4964 H         1 UNK         0.0600 
    156 H156       -1.3121  -21.1797  -48.7219 H         1 UNK         0.0600 
    157 H157       -0.9489  -19.4628  -48.6398 H         1 UNK         0.0600 
    158 H158       -2.1732  -20.1537  -47.5829 H         1 UNK         0.0600 
    159 H159       -0.6097  -18.6822  -46.2680 H         1 UNK         0.3000 
    160 H160        1.3419  -18.3694  -43.3037 H         1 UNK         0.0600 
    161 H161        1.5780  -16.6219  -45.8022 H         1 UNK         0.0600 
    162 H162        2.9336  -17.3967  -44.9907 H         1 UNK         0.0600 
    163 H163        2.0094  -16.1511  -44.1600 H         1 UNK         0.0600 
    164 H164       -0.4777  -16.5508  -44.4595 H         1 UNK         0.3000 
    165 H165       -3.5118  -18.2384  -44.1096 H         1 UNK         0.0600 
    166 H166       -4.2734  -16.5294  -42.4863 H         1 UNK         0.0600 
    167 H167       -3.2607  -17.7111  -41.6735 H         1 UNK         0.0600 
    168 H168       -2.6033  -16.1298  -42.0789 H         1 UNK         0.0600 
    169 H169       -3.1234  -15.4866  -44.4323 H         1 UNK         0.3000 
    170 H170       -1.7087  -15.2352  -47.6168 H         1 UNK         0.0600 
    171 H171       -4.6772  -14.9052  -46.9213 H         1 UNK         0.0600 
    172 H172       -3.8412  -14.1004  -48.2467 H         1 UNK         0.0600 
    173 H173       -4.0376  -15.8449  -48.2617 H         1 UNK         0.0600 
    174 H174       -2.8496  -13.1664  -46.2544 H         1 UNK         0.3000 
    175 H175       -1.8834  -12.1689  -44.0260 H         1 UNK         0.0600 
    176 H176        1.1439  -12.2823  -44.5317 H         1 UNK         0.0600 
    177 H177        0.3247  -11.1121  -43.4978 H         1 UNK         0.0600 
    178 H178        0.3276  -12.8144  -43.0648 H         1 UNK         0.0600 
    179 H179       -0.7214  -11.7263  -46.6832 H         1 UNK         0.3000 
    180 H180       -2.6058   -8.8091  -47.1216 H         1 UNK         0.0600 
    181 H181       -0.5608   -7.6561  -47.9367 H         1 UNK         0.0600 
    182 H182        0.4598   -8.7659  -47.0198 H         1 UNK         0.0600 
    183 H183       -0.6046   -7.6435  -46.1813 H         1 UNK         0.0600 
    184 H184       -0.6418  -10.0932  -48.7745 H         1 UNK         0.3000 
    185 H185       -2.4271  -12.9301  -49.6792 H         1 UNK         0.0600 
    186 H186       -2.5113  -12.1302  -52.0192 H         1 UNK         0.0600 
    187 H187       -3.7600  -11.3342  -51.0772 H         1 UNK         0.0600 
    188 H188       -2.2876  -10.4626  -51.4885 H         1 UNK         0.0600 
    189 H189       -0.2756  -11.9854  -51.0781 H         1 UNK         0.3000 
    190 H190        1.4397  -24.3865  -44.6343 H         1 UNK         0.3000 
    191 H191        0.2733  -26.1986  -45.0767 H         1 UNK         0.0600 
    192 H192        1.3198  -28.4157  -44.8627 H         1 UNK         0.0600 
    193 H193        1.9915  -27.3301  -43.6569 H         1 UNK         0.0600 
    194 H194        2.9236  -27.7364  -45.0974 H         1 UNK         0.0600 
    195 H195        0.6240  -24.5690  -47.2085 H         1 UNK         0.3000 
    196 H196        1.3804  -25.9983  -49.6189 H         1 UNK         0.0600 
    197 H197        0.5687  -23.9387  -50.7288 H         1 UNK         0.0600 
    198 H198        1.5827  -23.5135  -49.3591 H         1 UNK         0.0600 
    199 H199       -0.1720  -23.3823  -49.2350 H         1 UNK         0.0600 
    200 H200       -1.4079  -26.0097  -47.6603 H         1 UNK         0.3000 
    201 H201       -3.4467  -26.8656  -47.7326 H         1 UNK         0.0600 
    202 H202       -2.5680  -28.4492  -50.2027 H         1 UNK         0.0600 
    203 H203       -3.9118  -28.8263  -49.1350 H         1 UNK         0.0600 
    204 H204       -2.2656  -28.9266  -48.5327 H         1 UNK         0.0600 
    205 H205       -3.0951  -24.3440  -48.8659 H         1 UNK         0.3000 
    206 H206       -4.5984  -23.9378  -51.2700 H         1 UNK         0.0600 
    207 H207       -2.9331  -22.2986  -50.4014 H         1 UNK         0.0600 
    208 H208       -4.5192  -21.5525  -50.5405 H         1 UNK         0.0600 
    209 H209       -3.9098  -22.0301  -48.9629 H         1 UNK         0.0600 
    210 H210       -6.7562  -23.6047  -51.5766 H         1 UNK         0.3000 
    211 H211       -8.7066  -24.4745  -49.7406 H         1 UNK         0.0600 
    212 H212       -8.9827  -22.7536  -52.2649 H         1 UNK         0.0600 
    213 H213      -10.3051  -23.5753  -51.4456 H         1 UNK         0.0600 
    214 H214       -9.0252  -24.5158  -52.1962 H         1 UNK         0.0600 
    215 H215       -9.4748  -23.5102  -47.9875 H         1 UNK         0.3000 
    216 H216       -9.9914  -22.0950  -46.3786 H         1 UNK         0.0600 
    217 H217      -11.2100  -20.0300  -46.9345 H         1 UNK         0.0600 
    218 H218      -11.6895  -21.2977  -48.0488 H         1 UNK         0.0600 
    219 H219      -10.5737  -20.0372  -48.5732 H         1 UNK         0.0600 
    220 H220       -7.1732  -22.1421  -47.3826 H         1 UNK         0.3000 
    221 H221       -5.1837  -21.2755  -47.0466 H         1 UNK         0.0600 
    222 H222       -4.6956  -20.0335  -45.0136 H         1 UNK         0.0600 
    223 H223       -6.3754  -19.5478  -44.8203 H         1 UNK         0.0600 
    224 H224       -5.9139  -21.2393  -44.6354 H         1 UNK         0.0600 
    225 H225       -6.6540  -20.1870  -49.1529 H         1 UNK         0.3000 
    226 H226       -6.2997  -17.3472  -49.3861 H         1 UNK         0.0600 
    227 H227       -7.9592  -18.6370  -50.7229 H         1 UNK         0.0600 
    228 H228       -6.8366  -17.8244  -51.7971 H         1 UNK         0.0600 
    229 H229       -6.6651  -19.5498  -51.4970 H         1 UNK         0.0600 
    230 H230       -4.9797  -16.3923  -51.1678 H         1 UNK         0.3000 
    231 H231       -2.1574  -16.9574  -50.8856 H         1 UNK         0.0600 
    232 H232       -1.9549  -14.8953  -52.2551 H         1 UNK         0.0600 
    233 H233       -3.1150  -14.6600  -50.9595 H         1 UNK         0.0600 
    234 H234       -3.6777  -14.9254  -52.6074 H         1 UNK         0.0600 
    235 H235       -3.1300  -19.2445  -51.8952 H         1 UNK         0.3000 
    236 H236       -3.4664  -19.5080  -54.6739 H         1 UNK         0.0600 
    237 H237       -2.5473  -21.6013  -52.6349 H         1 UNK         0.0600 
    238 H238       -4.2255  -21.1739  -52.9848 H         1 UNK         0.0600 
    239 H239       -3.2375  -21.9451  -54.2146 H         1 UNK         0.0600 
    240 H240       -0.4965  -19.2368  -52.8977 H         1 UNK         0.3000 
    241 H241        1.2385  -20.3286  -54.9558 H         1 UNK         0.0600 
    242 H242        0.5420  -16.5184  -56.0414 H         1 UNK         0.3800 
    243 H243       -0.5209  -17.3443  -54.9306 H         1 UNK         0.3800 
    244 H244        1.9840  -18.5941  -52.5602 H         1 UNK         0.0800 
    245 H245        3.1005  -19.4569  -53.5796 H         1 UNK         0.0800 
    246 H246        0.5069  -19.6429  -50.7488 H         1 UNK         0.0800 
    247 H247        0.9641  -21.1318  -49.9676 H         1 UNK         0.0800 
@<TRIPOS>BOND
     1    1    2 1    
     2    1  127 1    
     3    1  128 1    
     4    1  129 1    
     5    2    3 2    
     6    2    4 am   BACKBONE|DICT|INTERRES
     7    4    5 1    
     8    4  130 1    
     9    5    6 1    
    10    5   65 1    
    11    5  131 1    
    12    6    7 1    
    13    6  132 1    
    14    6  133 1    
    15    7    8 1    
    16    8    9 1    
    17    8  134 1    
    18    8  135 1    
    19    9   10 ar   
    20    9   14 ar   
    21   10   11 ar   
    22   10  136 1    
    23   11   12 ar   
    24   11  126 1    
    25   12   13 ar   
    26   12  137 1    
    27   13   14 ar   
    28   13   15 1    
    29   14  138 1    
    30   15   16 1    
    31   15  139 1    
    32   15  140 1    
    33   16   17 1    
    34   17   18 1    
    35   17  141 1    
    36   17  142 1    
    37   18   19 1    
    38   18   67 1    
    39   18  143 1    
    40   19   20 am   BACKBONE|DICT|INTERRES
    41   19  144 1    
    42   20   21 2    
    43   20   22 1    
    44   22   23 1    
    45   22   24 1    
    46   22  145 1    
    47   23  146 1    
    48   23  147 1    
    49   23  148 1    
    50   24   25 am   BACKBONE|DICT|INTERRES
    51   24  149 1    
    52   25   26 2    
    53   25   27 1    
    54   27   28 1    
    55   27   29 1    
    56   27  150 1    
    57   28  151 1    
    58   28  152 1    
    59   28  153 1    
    60   29   30 am   BACKBONE|DICT|INTERRES
    61   29  154 1    
    62   30   31 2    
    63   30   32 1    
    64   32   33 1    
    65   32   34 1    
    66   32  155 1    
    67   33  156 1    
    68   33  157 1    
    69   33  158 1    
    70   34   35 am   BACKBONE|DICT|INTERRES
    71   34  159 1    
    72   35   36 2    
    73   35   37 1    
    74   37   38 1    
    75   37   39 1    
    76   37  160 1    
    77   38  161 1    
    78   38  162 1    
    79   38  163 1    
    80   39   40 am   BACKBONE|DICT|INTERRES
    81   39  164 1    
    82   40   41 2    
    83   40   42 1    
    84   42   43 1    
    85   42   44 1    
    86   42  165 1    
    87   43  166 1    
    88   43  167 1    
    89   43  168 1    
    90   44   45 am   BACKBONE|DICT|INTERRES
    91   44  169 1    
    92   45   46 2    
    93   45   47 1    
    94   47   48 1    
    95   47   49 1    
    96   47  170 1    
    97   48  171 1    
    98   48  172 1    
    99   48  173 1    
   100   49   50 am   BACKBONE|DICT|INTERRES
   101   49  174 1    
   102   50   51 2    
   103   50   52 1    
   104   52   53 1    
   105   52   54 1    
   106   52  175 1    
   107   53  176 1    
   108   53  177 1    
   109   53  178 1    
   110   54   55 am   BACKBONE|DICT|INTERRES
   111   54  179 1    
   112   55   56 2    
   113   55   57 1    
   114   57   58 1    
   115   57   59 1    
   116   57  180 1    
   117   58  181 1    
   118   58  182 1    
   119   58  183 1    
   120   59   60 am   BACKBONE|DICT|INTERRES
   121   59  184 1    
   122   60   61 2    
   123   60   62 1    
   124   62   63 1    
   125   62   64 1    
   126   62  185 1    
   127   63  186 1    
   128   63  187 1    
   129   63  188 1    
   130   64   65 am   BACKBONE|DICT|INTERRES
   131   64  189 1    
   132   65   66 2    
   133   67   68 2    
   134   67   69 am   BACKBONE|DICT|INTERRES
   135   69   70 1    
   136   69  190 1    
   137   70   71 1    
   138   70   72 1    
   139   70  191 1    
   140   71  192 1    
   141   71  193 1    
   142   71  194 1    
   143   72   73 2    
   144   72   74 am   BACKBONE|DICT|INTERRES
   145   74   75 1    
   146   74  195 1    
   147   75   76 1    
   148   75   77 1    
   149   75  196 1    
   150   76  197 1    
   151   76  198 1    
   152   76  199 1    
   153   77   78 2    
   154   77   79 am   BACKBONE|DICT|INTERRES
   155   79   80 1    
   156   79  200 1    
   157   80   81 1    
   158   80   82 1    
   159   80  201 1    
   160   81  202 1    
   161   81  203 1    
   162   81  204 1    
   163   82   83 2    
   164   82   84 am   BACKBONE|DICT|INTERRES
   165   84   85 1    
   166   84  205 1    
   167   85   86 1    
   168   85   87 1    
   169   85  206 1    
   170   86  207 1    
   171   86  208 1    
   172   86  209 1    
   173   87   88 2    
   174   87   89 am   BACKBONE|DICT|INTERRES
   175   89   90 1    
   176   89  210 1    
   177   90   91 1    
   178   90   92 1    
   179   90  211 1    
   180   91  212 1    
   181   91  213 1    
   182   91  214 1    
   183   92   93 2    
   184   92   94 am   BACKBONE|DICT|INTERRES
   185   94   95 1    
   186   94  215 1    
   187   95   96 1    
   188   95   97 1    
   189   95  216 1    
   190   96  217 1    
   191   96  218 1    
   192   96  219 1    
   193   97   98 2    
   194   97   99 am   BACKBONE|DICT|INTERRES
   195   99  100 1    
   196   99  220 1    
   197  100  101 1    
   198  100  102 1    
   199  100  221 1    
   200  101  222 1    
   201  101  223 1    
   202  101  224 1    
   203  102  103 2    
   204  102  104 am   BACKBONE|DICT|INTERRES
   205  104  105 1    
   206  104  225 1    
   207  105  106 1    
   208  105  107 1    
   209  105  226 1    
   210  106  227 1    
   211  106  228 1    
   212  106  229 1    
   213  107  108 2    
   214  107  109 am   BACKBONE|DICT|INTERRES
   215  109  110 1    
   216  109  230 1    
   217  110  111 1    
   218  110  112 1    
   219  110  231 1    
   220  111  232 1    
   221  111  233 1    
   222  111  234 1    
   223  112  113 2    
   224  112  114 am   BACKBONE|DICT|INTERRES
   225  114  115 1    
   226  114  235 1    
   227  115  116 1    
   228  115  117 1    
   229  115  236 1    
   230  116  237 1    
   231  116  238 1    
   232  116  239 1    
   233  117  118 2    
   234  117  119 am   BACKBONE|DICT|INTERRES
   235  119  120 1    
   236  119  240 1    
   237  120  121 1    
   238  120  124 1    
   239  120  241 1    
   240  121  122 am   BACKBONE|DICT|INTERRES
   241  121  123 2    
   242  122  242 1    
   243  122  243 1    
   244  124  125 1    
   245  124  244 1    
   246  124  245 1    
   247  125  126 1    
   248  126  246 1    
   249  126  247 1    
@<TRIPOS>SUBSTRUCTURE
     1 UNK         1 GROUP             0       ****    0 ROOT    
