@<TRIPOS>MOLECULE
3R540
247   249    1
SMALL
USER_CHARGES


@<TRIPOS>ATOM
      1 CA         -2.3497  -10.0682  -48.4449 C.3       0 UNK        -0.1800 
      2 C          -0.8677  -10.3623  -48.6310 C.2       0 UNK         0.5000 
      3 O          -0.0978   -9.4572  -48.9544 O.2       0 UNK        -0.5000 
      4 N          -0.4699  -11.6242  -48.4354 N.am      1 UNK        -0.5000 
      5 CA          0.9207  -12.0838  -48.4695 C.3       1 UNK         0.1400 
      6 C6          1.0240  -13.6064  -48.7581 C.3       23 UNK        -0.0398 
      7 S7          0.0470  -14.6865  -47.6487 S.3       23 UNK        -0.2404 
      8 C8         -1.4674  -14.9884  -48.6185 C.3       23 UNK        -0.0205 
      9 C9         -1.2592  -15.9933  -49.7435 C.ar      23 UNK        -0.0193 
     10 C10        -0.9677  -15.5534  -51.0391 C.ar      23 UNK        -0.1150 
     11 C11        -0.8100  -16.4702  -52.0812 C.ar      23 UNK        -0.0193 
     12 C12        -0.9599  -17.8351  -51.8257 C.ar      23 UNK        -0.1150 
     13 C13        -1.2748  -18.2869  -50.5423 C.ar      23 UNK        -0.0193 
     14 C14        -1.4123  -17.3628  -49.5011 C.ar      23 UNK        -0.1150 
     15 C15        -1.5329  -19.7663  -50.3106 C.3       23 UNK        -0.0205 
     16 S16        -0.0163  -20.6995  -49.9398 S.3       23 UNK        -0.2404 
     17 C17         0.0866  -20.5324  -48.1281 C.3       23 UNK        -0.0398 
     18 CA         -0.4899  -21.7565  -47.3695 C.3       11 UNK         0.1400 
     19 N           0.0426  -21.8432  -46.0079 N.am      11 UNK        -0.5000 
     20 C          -0.0862  -22.9079  -45.2010 C.2       10 UNK         0.5000 
     21 O          -0.6201  -23.9609  -45.5443 O.2       10 UNK        -0.5000 
     22 CA          0.4324  -22.7655  -43.7556 C.3       10 UNK         0.1400 
     23 CB          1.8874  -23.2469  -43.6584 C.3       10 UNK        -0.1800 
     24 N           0.3498  -21.3989  -43.2417 N.am      10 UNK        -0.5000 
     25 C          -0.7765  -20.6837  -43.1055 C.2       9 UNK         0.5000 
     26 O          -1.9010  -21.1337  -43.3215 O.2       9 UNK        -0.5000 
     27 CA         -0.6094  -19.1983  -42.7326 C.3       9 UNK         0.1400 
     28 CB         -0.8084  -19.0094  -41.2221 C.3       9 UNK        -0.1800 
     29 N           0.6892  -18.6500  -43.1510 N.am      9 UNK        -0.5000 
     30 C           1.0748  -18.5396  -44.4341 C.2       8 UNK         0.5000 
     31 O           0.3518  -18.8666  -45.3762 O.2       8 UNK        -0.5000 
     32 CA          2.5054  -18.0571  -44.7371 C.3       8 UNK         0.1400 
     33 CB          2.5047  -16.7956  -45.6121 C.3       8 UNK        -0.1800 
     34 N           3.2983  -17.8234  -43.5287 N.am      8 UNK        -0.5000 
     35 C           4.1095  -18.7378  -42.9803 C.2       7 UNK         0.5000 
     36 O           4.2675  -19.8694  -43.4406 O.2       7 UNK        -0.5000 
     37 CA          4.8638  -18.3443  -41.6941 C.3       7 UNK         0.1400 
     38 CB          6.2329  -17.7398  -42.0413 C.3       7 UNK        -0.1800 
     39 N           4.1496  -17.4277  -40.8003 N.am      7 UNK        -0.5000 
     40 C           2.9492  -17.6540  -40.2508 C.2       6 UNK         0.5000 
     41 O           2.2515  -18.6276  -40.5311 O.2       6 UNK        -0.5000 
     42 CA          2.4336  -16.6422  -39.2146 C.3       6 UNK         0.1400 
     43 CB          3.4883  -15.6285  -38.7255 C.3       6 UNK        -0.1800 
     44 N           1.2987  -15.9197  -39.7775 N.am      6 UNK        -0.5000 
     45 C           0.1558  -15.6516  -39.1324 C.2       5 UNK         0.5000 
     46 O          -0.0808  -16.0390  -37.9870 O.2       5 UNK        -0.5000 
     47 CA         -0.8970  -14.7871  -39.8588 C.3       5 UNK         0.1400 
     48 CB         -1.2494  -13.5430  -39.0254 C.3       5 UNK        -0.1800 
     49 N          -0.4488  -14.3399  -41.1783 N.am      5 UNK        -0.5000 
     50 C          -0.7555  -14.9297  -42.3399 C.2       4 UNK         0.5000 
     51 O          -1.5035  -15.9012  -42.4389 O.2       4 UNK        -0.5000 
     52 CA         -0.1201  -14.3325  -43.6116 C.3       4 UNK         0.1400 
     53 CB         -1.1182  -13.3775  -44.2845 C.3       4 UNK        -0.1800 
     54 N           1.1550  -13.6291  -43.3991 N.am      4 UNK        -0.5000 
     55 C           2.2663  -14.1626  -42.8667 C.2       3 UNK         0.5000 
     56 O           2.3247  -15.3217  -42.4524 O.2       3 UNK        -0.5000 
     57 CA          3.5050  -13.2466  -42.7513 C.3       3 UNK         0.1400 
     58 CB          4.8157  -14.0382  -42.5530 C.3       3 UNK        -0.1800 
     59 N           3.6337  -12.2934  -43.8595 N.am      3 UNK        -0.5000 
     60 C           3.8242  -12.5912  -45.1522 C.2       2 UNK         0.5000 
     61 O           3.9448  -13.7348  -45.5946 O.2       2 UNK        -0.5000 
     62 CA          3.8886  -11.3996  -46.1244 C.3       2 UNK         0.1400 
     63 CB          5.3248  -11.1761  -46.6224 C.3       2 UNK        -0.1800 
     64 N           3.0083  -11.6238  -47.2696 N.am      2 UNK        -0.5000 
     65 C           1.6730  -11.6771  -47.1841 C.2       1 UNK         0.5000 
     66 O           1.0517  -11.4287  -46.1464 O.2       1 UNK        -0.5000 
     67 C          -2.0319  -21.7398  -47.3479 C.2       11 UNK         0.5000 
     68 O          -2.6687  -22.4900  -48.0901 O.2       11 UNK        -0.5000 
     69 N          -2.6004  -20.9003  -46.4703 N.am      12 UNK        -0.5000 
     70 CA         -4.0410  -20.7684  -46.2580 C.3       12 UNK         0.1400 
     71 CB         -4.3223  -19.5330  -45.3899 C.3       12 UNK        -0.1800 
     72 C          -4.6563  -22.0359  -45.6400 C.2       12 UNK         0.5000 
     73 O          -5.7022  -22.4884  -46.1061 O.2       12 UNK        -0.5000 
     74 N          -3.9662  -22.6178  -44.6477 N.am      13 UNK        -0.5000 
     75 CA         -4.3339  -23.8722  -43.9825 C.3       13 UNK         0.1400 
     76 CB         -3.3809  -24.1209  -42.8050 C.3       13 UNK        -0.1800 
     77 C          -4.3485  -25.0901  -44.9278 C.2       13 UNK         0.5000 
     78 O          -5.1306  -26.0158  -44.7123 O.2       13 UNK        -0.5000 
     79 N          -3.5254  -25.0447  -45.9837 N.am      14 UNK        -0.5000 
     80 CA         -3.4848  -26.0145  -47.0788 C.3       14 UNK         0.1400 
     81 CB         -2.0669  -26.0260  -47.6773 C.3       14 UNK        -0.1800 
     82 C          -4.5564  -25.7549  -48.1618 C.2       14 UNK         0.5000 
     83 O          -4.4242  -26.2777  -49.2681 O.2       14 UNK        -0.5000 
     84 N          -5.5833  -24.9484  -47.8502 N.am      15 UNK        -0.5000 
     85 CA         -6.6977  -24.5490  -48.7159 C.3       15 UNK         0.1400 
     86 CB         -7.5715  -25.7640  -49.0936 C.3       15 UNK        -0.1800 
     87 C          -6.2074  -23.7505  -49.9369 C.2       15 UNK         0.5000 
     88 O          -6.5308  -24.0901  -51.0760 O.2       15 UNK        -0.5000 
     89 N          -5.3874  -22.7262  -49.6621 N.am      16 UNK        -0.5000 
     90 CA         -4.6827  -21.8803  -50.6306 C.3       16 UNK         0.1400 
     91 CB         -5.6712  -21.0119  -51.4364 C.3       16 UNK        -0.1800 
     92 C          -3.7318  -22.7056  -51.5207 C.2       16 UNK         0.5000 
     93 O          -3.7622  -22.5739  -52.7453 O.2       16 UNK        -0.5000 
     94 N          -2.9413  -23.5735  -50.8709 N.am      17 UNK        -0.5000 
     95 CA         -2.0327  -24.5641  -51.4608 C.3       17 UNK         0.1400 
     96 CB         -0.7891  -23.8696  -52.0501 C.3       17 UNK        -0.1800 
     97 C          -2.7422  -25.4970  -52.4670 C.2       17 UNK         0.5000 
     98 O          -2.2900  -25.6457  -53.6031 O.2       17 UNK        -0.5000 
     99 N          -3.8616  -26.0859  -52.0222 N.am      18 UNK        -0.5000 
    100 CA        -4.7914  -26.9238  -52.7846 C.3       18 UNK         0.1400 
    101 CB        -4.1325  -28.2650  -53.1691 C.3       18 UNK        -0.1800 
    102 C         -5.4052  -26.1738  -53.9860 C.2       18 UNK         0.5000 
    103 O         -5.3983  -26.6840  -55.1082 O.2       18 UNK        -0.5000 
    104 N         -5.9228  -24.9680  -53.7097 N.am      19 UNK        -0.5000 
    105 CA        -6.5536  -24.0285  -54.6397 C.3       19 UNK         0.1400 
    106 CB        -7.9104  -24.5789  -55.1257 C.3       19 UNK        -0.1800 
    107 C         -5.6221  -23.5983  -55.7926 C.2       19 UNK         0.5000 
    108 O         -6.0223  -23.6245  -56.9584 O.2       19 UNK        -0.5000 
    109 N         -4.3900  -23.2017  -55.4446 N.am      20 UNK        -0.5000 
    110 CA        -3.3850  -22.7019  -56.3861 C.3       20 UNK         0.1400 
    111 CB        -2.0078  -22.6941  -55.7058 C.3       20 UNK        -0.1800 
    112 C         -3.7147  -21.2965  -56.9220 C.2       20 UNK         0.5000 
    113 O         -3.2847  -20.9547  -58.0251 O.2       20 UNK        -0.5000 
    114 N         -4.4491  -20.5045  -56.1225 N.am      21 UNK        -0.5000 
    115 CA        -4.9464  -19.1522  -56.4174 C.3       21 UNK         0.1400 
    116 CB        -6.0687  -19.2234  -57.4733 C.3       21 UNK        -0.1800 
    117 C         -3.8359  -18.1454  -56.7966 C.2       21 UNK         0.5000 
    118 O         -4.0740  -17.2282  -57.5845 O.2       21 UNK        -0.5000 
    119 N         -2.6374  -18.3574  -56.2369 N.am      22 UNK        -0.5000 
    120 CA        -1.3913  -17.6227  -56.5183 C.3       22 UNK         0.1400 
    121 C         -0.8080  -17.8608  -57.9464 C.2       22 UNK         0.5000 
    122 N         -1.2505  -18.8683  -58.6912 N.am      22 UNK        -0.7600 
    123 O          0.0878  -17.1411  -58.3801 O.2       22 UNK        -0.5000 
    124 C124       -1.4524  -16.1122  -56.1424 C.3       23 UNK        -0.0398 
    125 S125       -2.0513  -15.8222  -54.4425 S.3       23 UNK        -0.2404 
    126 C126       -0.5109  -15.9943  -53.4921 C.3       23 UNK        -0.0205 
    127 H127       -2.9108  -10.9643  -48.1788 H         1 UNK         0.0600 
    128 H128       -2.7711   -9.6644  -49.3654 H         1 UNK         0.0600 
    129 H129       -2.4891   -9.3325  -47.6530 H         1 UNK         0.0600 
    130 H130       -1.1360  -12.3090  -48.1113 H         1 UNK         0.3000 
    131 H131        1.4158  -11.5700  -49.2967 H         1 UNK         0.0600 
    132 H132        0.7285  -13.7896  -49.7888 H         1 UNK         0.0800 
    133 H133        2.0637  -13.9339  -48.7066 H         1 UNK         0.0800 
    134 H134       -2.2397  -15.3589  -47.9427 H         1 UNK         0.0800 
    135 H135       -1.8488  -14.0489  -49.0195 H         1 UNK         0.0800 
    136 H136       -0.8802  -14.4960  -51.2442 H         1 UNK         0.1150 
    137 H137       -0.8602  -18.5452  -52.6349 H         1 UNK         0.1150 
    138 H138       -1.6645  -17.7034  -48.5068 H         1 UNK         0.1150 
    139 H139       -2.2603  -19.8910  -49.5097 H         1 UNK         0.0800 
    140 H140       -1.9885  -20.1959  -51.2038 H         1 UNK         0.0800 
    141 H141       -0.3781  -19.5993  -47.8078 H         1 UNK         0.0800 
    142 H142        1.1460  -20.4233  -47.8922 H         1 UNK         0.0800 
    143 H143       -0.1777  -22.6632  -47.8930 H         1 UNK         0.0600 
    144 H144        0.4419  -20.9921  -45.6325 H         1 UNK         0.3000 
    145 H145       -0.1817  -23.4003  -43.1153 H         1 UNK         0.0600 
    146 H146        1.9850  -24.2718  -44.0190 H         1 UNK         0.0600 
    147 H147        2.5584  -22.6237  -44.2514 H         1 UNK         0.0600 
    148 H148        2.2400  -23.2316  -42.6269 H         1 UNK         0.0600 
    149 H149        1.2257  -20.9420  -43.0323 H         1 UNK         0.3000 
    150 H150       -1.3883  -18.6354  -43.2513 H         1 UNK         0.0600 
    151 H151       -0.6301  -17.9778  -40.9224 H         1 UNK         0.0600 
    152 H152       -0.1421  -19.6486  -40.6425 H         1 UNK         0.0600 
    153 H153       -1.8298  -19.2598  -40.9335 H         1 UNK         0.0600 
    154 H154        1.3423  -18.4167  -42.4115 H         1 UNK         0.3000 
    155 H155        2.9714  -18.8458  -45.3312 H         1 UNK         0.0600 
    156 H156        2.0369  -15.9506  -45.1139 H         1 UNK         0.0600 
    157 H157        1.9633  -16.9640  -46.5438 H         1 UNK         0.0600 
    158 H158        3.5202  -16.5022  -45.8780 H         1 UNK         0.0600 
    159 H159        3.1657  -16.9270  -43.0672 H         1 UNK         0.3000 
    160 H160        5.0362  -19.2650  -41.1329 H         1 UNK         0.0600 
    161 H161        6.8110  -18.4177  -42.6708 H         1 UNK         0.0600 
    162 H162        6.8222  -17.5514  -41.1438 H         1 UNK         0.0600 
    163 H163        6.1316  -16.7985  -42.5818 H         1 UNK         0.0600 
    164 H164        4.6470  -16.5937  -40.5276 H         1 UNK         0.3000 
    165 H165        2.1154  -17.2368  -38.3559 H         1 UNK         0.0600 
    166 H166        3.0897  -15.0220  -37.9120 H         1 UNK         0.0600 
    167 H167        4.3766  -16.1314  -38.3409 H         1 UNK         0.0600 
    168 H168        3.7979  -14.9462  -39.5168 H         1 UNK         0.0600 
    169 H169        1.4068  -15.6293  -40.7443 H         1 UNK         0.3000 
    170 H170       -1.7992  -15.3944  -39.9564 H         1 UNK         0.0600 
    171 H171       -2.0117  -12.9408  -39.5202 H         1 UNK         0.0600 
    172 H172       -1.6449  -13.8219  -38.0479 H         1 UNK         0.0600 
    173 H173       -0.3771  -12.9099  -38.8586 H         1 UNK         0.0600 
    174 H174        0.1661  -13.5397  -41.1976 H         1 UNK         0.3000 
    175 H175        0.0643  -15.1631  -44.2942 H         1 UNK         0.0600 
    176 H176       -1.2945  -12.4871  -43.6801 H         1 UNK         0.0600 
    177 H177       -2.0815  -13.8639  -44.4441 H         1 UNK         0.0600 
    178 H178       -0.7619  -13.0552  -45.2609 H         1 UNK         0.0600 
    179 H179        1.2007  -12.6818  -43.7484 H         1 UNK         0.3000 
    180 H180        3.3486  -12.6480  -41.8529 H         1 UNK         0.0600 
    181 H181        5.6741  -13.3703  -42.4835 H         1 UNK         0.0600 
    182 H182        4.9973  -14.7337  -43.3727 H         1 UNK         0.0600 
    183 H183        4.7882  -14.6218  -41.6341 H         1 UNK         0.0600 
    184 H184        3.5399  -11.3199  -43.6041 H         1 UNK         0.3000 
    185 H185        3.5586  -10.4945  -45.6099 H         1 UNK         0.0600 
    186 H186        5.7040  -12.0440  -47.1636 H         1 UNK         0.0600 
    187 H187        5.3830  -10.3137  -47.2868 H         1 UNK         0.0600 
    188 H188        6.0014  -10.9892  -45.7875 H         1 UNK         0.0600 
    189 H189        3.4606  -11.8585  -48.1409 H         1 UNK         0.3000 
    190 H190       -2.0032  -20.3492  -45.8702 H         1 UNK         0.3000 
    191 H191       -4.5108  -20.6105  -47.2311 H         1 UNK         0.0600 
    192 H192       -3.8672  -19.6168  -44.4027 H         1 UNK         0.0600 
    193 H193       -5.3945  -19.3952  -45.2453 H         1 UNK         0.0600 
    194 H194       -3.9389  -18.6265  -45.8589 H         1 UNK         0.0600 
    195 H195       -3.1391  -22.1440  -44.2914 H         1 UNK         0.3000 
    196 H196       -5.3438  -23.7507  -43.5858 H         1 UNK         0.0600 
    197 H197       -3.6748  -25.0100  -42.2458 H         1 UNK         0.0600 
    198 H198       -3.3830  -23.2823  -42.1083 H         1 UNK         0.0600 
    199 H199       -2.3576  -24.2727  -43.1470 H         1 UNK         0.0600 
    200 H200       -2.8922  -24.2596  -46.0648 H         1 UNK         0.3000 
    201 H201       -3.6820  -27.0096  -46.6756 H         1 UNK         0.0600 
    202 H202       -1.3240  -26.2701  -46.9179 H         1 UNK         0.0600 
    203 H203       -1.8013  -25.0583  -48.1027 H         1 UNK         0.0600 
    204 H204       -1.9727  -26.7725  -48.4667 H         1 UNK         0.0600 
    205 H205       -5.5767  -24.5105  -46.9375 H         1 UNK         0.3000 
    206 H206       -7.3166  -23.8681  -48.1297 H         1 UNK         0.0600 
    207 H207       -8.4603  -25.4474  -49.6404 H         1 UNK         0.0600 
    208 H208       -7.0372  -26.4729  -49.7266 H         1 UNK         0.0600 
    209 H209       -7.9097  -26.2969  -48.2050 H         1 UNK         0.0600 
    210 H210       -5.1375  -22.5785  -48.6936 H         1 UNK         0.3000 
    211 H211       -4.0599  -21.2054  -50.0468 H         1 UNK         0.0600 
    212 H212       -6.3139  -21.6132  -52.0794 H         1 UNK         0.0600 
    213 H213       -5.1377  -20.3074  -52.0756 H         1 UNK         0.0600 
    214 H214       -6.3114  -20.4285  -50.7749 H         1 UNK         0.0600 
    215 H215       -2.9794  -23.5570  -49.8577 H         1 UNK         0.3000 
    216 H216       -1.6946  -25.2026  -50.6440 H         1 UNK         0.0600 
    217 H217       -0.0938  -24.5968  -52.4707 H         1 UNK         0.0600 
    218 H218       -0.2493  -23.3196  -51.2808 H         1 UNK         0.0600 
    219 H219       -1.0516  -23.1688  -52.8421 H         1 UNK         0.0600 
    220 H220       -4.1227  -25.9405  -51.0486 H         1 UNK         0.3000 
    221 H221       -5.6189  -27.1472  -52.1094 H         1 UNK         0.0600 
    222 H222       -3.3137  -28.1291  -53.8762 H         1 UNK         0.0600 
    223 H223       -3.7363  -28.7743  -52.2906 H         1 UNK         0.0600 
    224 H224       -4.8567  -28.9353  -53.6334 H         1 UNK         0.0600 
    225 H225       -5.9086  -24.6564  -52.7405 H         1 UNK         0.3000 
    226 H226       -6.7564  -23.1255  -54.0626 H         1 UNK         0.0600 
    227 H227       -8.5553  -24.8330  -54.2844 H         1 UNK         0.0600 
    228 H228       -8.4395  -23.8388  -55.7270 H         1 UNK         0.0600 
    229 H229       -7.7900  -25.4730  -55.7382 H         1 UNK         0.0600 
    230 H230       -4.1374  -23.1808  -54.4580 H         1 UNK         0.3000 
    231 H231       -3.3418  -23.3825  -57.2388 H         1 UNK         0.0600 
    232 H232       -1.9930  -22.0382  -54.8348 H         1 UNK         0.0600 
    233 H233       -1.7248  -23.6940  -55.3783 H         1 UNK         0.0600 
    234 H234       -1.2338  -22.3472  -56.3917 H         1 UNK         0.0600 
    235 H235       -4.7149  -20.8825  -55.2240 H         1 UNK         0.3000 
    236 H236       -5.3865  -18.7787  -55.4918 H         1 UNK         0.0600 
    237 H237       -5.6876  -19.5390  -58.4451 H         1 UNK         0.0600 
    238 H238       -6.8465  -19.9263  -57.1747 H         1 UNK         0.0600 
    239 H239       -6.5458  -18.2519  -57.6073 H         1 UNK         0.0600 
    240 H240       -2.5479  -19.1413  -55.6081 H         1 UNK         0.3000 
    241 H241       -0.6520  -18.0780  -55.8591 H         1 UNK         0.0600 
    242 H242       -0.8544  -19.0135  -59.6062 H         1 UNK         0.3800 
    243 H243       -1.9860  -19.4869  -58.3641 H         1 UNK         0.3800 
    244 H244       -0.4705  -15.6476  -56.2464 H         1 UNK         0.0800 
    245 H245       -2.1093  -15.5768  -56.8291 H         1 UNK         0.0800 
    246 H246        0.1573  -16.7061  -53.9788 H         1 UNK         0.0800 
    247 H247        0.0152  -15.0386  -53.4752 H         1 UNK         0.0800 
@<TRIPOS>BOND
     1    1    2 1    
     2    1  127 1    
     3    1  128 1    
     4    1  129 1    
     5    2    3 2    
     6    2    4 am   BACKBONE|DICT|INTERRES
     7    4    5 1    
     8    4  130 1    
     9    5    6 1    
    10    5   65 1    
    11    5  131 1    
    12    6    7 1    
    13    6  132 1    
    14    6  133 1    
    15    7    8 1    
    16    8    9 1    
    17    8  134 1    
    18    8  135 1    
    19    9   10 ar   
    20    9   14 ar   
    21   10   11 ar   
    22   10  136 1    
    23   11   12 ar   
    24   11  126 1    
    25   12   13 ar   
    26   12  137 1    
    27   13   14 ar   
    28   13   15 1    
    29   14  138 1    
    30   15   16 1    
    31   15  139 1    
    32   15  140 1    
    33   16   17 1    
    34   17   18 1    
    35   17  141 1    
    36   17  142 1    
    37   18   19 1    
    38   18   67 1    
    39   18  143 1    
    40   19   20 am   BACKBONE|DICT|INTERRES
    41   19  144 1    
    42   20   21 2    
    43   20   22 1    
    44   22   23 1    
    45   22   24 1    
    46   22  145 1    
    47   23  146 1    
    48   23  147 1    
    49   23  148 1    
    50   24   25 am   BACKBONE|DICT|INTERRES
    51   24  149 1    
    52   25   26 2    
    53   25   27 1    
    54   27   28 1    
    55   27   29 1    
    56   27  150 1    
    57   28  151 1    
    58   28  152 1    
    59   28  153 1    
    60   29   30 am   BACKBONE|DICT|INTERRES
    61   29  154 1    
    62   30   31 2    
    63   30   32 1    
    64   32   33 1    
    65   32   34 1    
    66   32  155 1    
    67   33  156 1    
    68   33  157 1    
    69   33  158 1    
    70   34   35 am   BACKBONE|DICT|INTERRES
    71   34  159 1    
    72   35   36 2    
    73   35   37 1    
    74   37   38 1    
    75   37   39 1    
    76   37  160 1    
    77   38  161 1    
    78   38  162 1    
    79   38  163 1    
    80   39   40 am   BACKBONE|DICT|INTERRES
    81   39  164 1    
    82   40   41 2    
    83   40   42 1    
    84   42   43 1    
    85   42   44 1    
    86   42  165 1    
    87   43  166 1    
    88   43  167 1    
    89   43  168 1    
    90   44   45 am   BACKBONE|DICT|INTERRES
    91   44  169 1    
    92   45   46 2    
    93   45   47 1    
    94   47   48 1    
    95   47   49 1    
    96   47  170 1    
    97   48  171 1    
    98   48  172 1    
    99   48  173 1    
   100   49   50 am   BACKBONE|DICT|INTERRES
   101   49  174 1    
   102   50   51 2    
   103   50   52 1    
   104   52   53 1    
   105   52   54 1    
   106   52  175 1    
   107   53  176 1    
   108   53  177 1    
   109   53  178 1    
   110   54   55 am   BACKBONE|DICT|INTERRES
   111   54  179 1    
   112   55   56 2    
   113   55   57 1    
   114   57   58 1    
   115   57   59 1    
   116   57  180 1    
   117   58  181 1    
   118   58  182 1    
   119   58  183 1    
   120   59   60 am   BACKBONE|DICT|INTERRES
   121   59  184 1    
   122   60   61 2    
   123   60   62 1    
   124   62   63 1    
   125   62   64 1    
   126   62  185 1    
   127   63  186 1    
   128   63  187 1    
   129   63  188 1    
   130   64   65 am   BACKBONE|DICT|INTERRES
   131   64  189 1    
   132   65   66 2    
   133   67   68 2    
   134   67   69 am   BACKBONE|DICT|INTERRES
   135   69   70 1    
   136   69  190 1    
   137   70   71 1    
   138   70   72 1    
   139   70  191 1    
   140   71  192 1    
   141   71  193 1    
   142   71  194 1    
   143   72   73 2    
   144   72   74 am   BACKBONE|DICT|INTERRES
   145   74   75 1    
   146   74  195 1    
   147   75   76 1    
   148   75   77 1    
   149   75  196 1    
   150   76  197 1    
   151   76  198 1    
   152   76  199 1    
   153   77   78 2    
   154   77   79 am   BACKBONE|DICT|INTERRES
   155   79   80 1    
   156   79  200 1    
   157   80   81 1    
   158   80   82 1    
   159   80  201 1    
   160   81  202 1    
   161   81  203 1    
   162   81  204 1    
   163   82   83 2    
   164   82   84 am   BACKBONE|DICT|INTERRES
   165   84   85 1    
   166   84  205 1    
   167   85   86 1    
   168   85   87 1    
   169   85  206 1    
   170   86  207 1    
   171   86  208 1    
   172   86  209 1    
   173   87   88 2    
   174   87   89 am   BACKBONE|DICT|INTERRES
   175   89   90 1    
   176   89  210 1    
   177   90   91 1    
   178   90   92 1    
   179   90  211 1    
   180   91  212 1    
   181   91  213 1    
   182   91  214 1    
   183   92   93 2    
   184   92   94 am   BACKBONE|DICT|INTERRES
   185   94   95 1    
   186   94  215 1    
   187   95   96 1    
   188   95   97 1    
   189   95  216 1    
   190   96  217 1    
   191   96  218 1    
   192   96  219 1    
   193   97   98 2    
   194   97   99 am   BACKBONE|DICT|INTERRES
   195   99  100 1    
   196   99  220 1    
   197  100  101 1    
   198  100  102 1    
   199  100  221 1    
   200  101  222 1    
   201  101  223 1    
   202  101  224 1    
   203  102  103 2    
   204  102  104 am   BACKBONE|DICT|INTERRES
   205  104  105 1    
   206  104  225 1    
   207  105  106 1    
   208  105  107 1    
   209  105  226 1    
   210  106  227 1    
   211  106  228 1    
   212  106  229 1    
   213  107  108 2    
   214  107  109 am   BACKBONE|DICT|INTERRES
   215  109  110 1    
   216  109  230 1    
   217  110  111 1    
   218  110  112 1    
   219  110  231 1    
   220  111  232 1    
   221  111  233 1    
   222  111  234 1    
   223  112  113 2    
   224  112  114 am   BACKBONE|DICT|INTERRES
   225  114  115 1    
   226  114  235 1    
   227  115  116 1    
   228  115  117 1    
   229  115  236 1    
   230  116  237 1    
   231  116  238 1    
   232  116  239 1    
   233  117  118 2    
   234  117  119 am   BACKBONE|DICT|INTERRES
   235  119  120 1    
   236  119  240 1    
   237  120  121 1    
   238  120  124 1    
   239  120  241 1    
   240  121  122 am   BACKBONE|DICT|INTERRES
   241  121  123 2    
   242  122  242 1    
   243  122  243 1    
   244  124  125 1    
   245  124  244 1    
   246  124  245 1    
   247  125  126 1    
   248  126  246 1    
   249  126  247 1    
@<TRIPOS>SUBSTRUCTURE
     1 UNK         1 GROUP             0       ****    0 ROOT    
