@<TRIPOS>MOLECULE
3R540
247   249    1
SMALL
USER_CHARGES


@<TRIPOS>ATOM
      1 CA          3.1426  -15.6775  -53.9233 C.3       0 UNK        -0.1800 
      2 C           2.3758  -15.6247  -52.6102 C.2       0 UNK         0.5000 
      3 O           2.8670  -15.0508  -51.6387 O.2       0 UNK        -0.5000 
      4 N           1.1687  -16.2066  -52.5826 N.am      1 UNK        -0.5000 
      5 CA          0.2846  -16.3100  -51.4111 C.3       1 UNK         0.1400 
      6 C6         -1.0146  -17.0878  -51.7375 C.3       23 UNK        -0.0398 
      7 S7         -0.6733  -18.8045  -52.2514 S.3       23 UNK        -0.2404 
      8 C8         -1.3351  -19.7587  -50.8466 C.3       23 UNK        -0.0205 
      9 C9         -0.6841  -19.3793  -49.5254 C.ar      23 UNK        -0.0193 
     10 C10        -1.4589  -18.8794  -48.4741 C.ar      23 UNK        -0.1150 
     11 C11        -0.8679  -18.5297  -47.2543 C.ar      23 UNK        -0.0193 
     12 C12         0.5119  -18.6830  -47.1046 C.ar      23 UNK        -0.1150 
     13 C13         1.2980  -19.1863  -48.1441 C.ar      23 UNK        -0.0193 
     14 C14         0.6928  -19.5386  -49.3509 C.ar      23 UNK        -0.1150 
     15 C15         2.8009  -19.3440  -47.9648 C.3       23 UNK        -0.0205 
     16 S16         3.2965  -21.0809  -47.7226 S.3       23 UNK        -0.2404 
     17 C17         2.4657  -21.4880  -46.1483 C.3       23 UNK        -0.0398 
     18 CA          1.6797  -22.8199  -46.1706 C.3       11 UNK         0.1400 
     19 N           1.1845  -23.1597  -44.8360 N.am      11 UNK        -0.5000 
     20 C           0.8394  -24.3939  -44.4443 C.2       10 UNK         0.5000 
     21 O           0.9436  -25.3882  -45.1602 O.2       10 UNK        -0.5000 
     22 CA          0.2449  -24.5373  -43.0298 C.3       10 UNK         0.1400 
     23 CB          1.3586  -24.7723  -41.9991 C.3       10 UNK        -0.1800 
     24 N          -0.5475  -23.3746  -42.6270 N.am      10 UNK        -0.5000 
     25 C          -1.6920  -22.9962  -43.2133 C.2       9 UNK         0.5000 
     26 O          -2.2368  -23.6364  -44.1115 O.2       9 UNK        -0.5000 
     27 CA         -2.2991  -21.6543  -42.7607 C.3       9 UNK         0.1400 
     28 CB         -3.3478  -21.8772  -41.6620 C.3       9 UNK        -0.1800 
     29 N          -1.3021  -20.6919  -42.2843 N.am      9 UNK        -0.5000 
     30 C          -0.3146  -20.1665  -43.0201 C.2       8 UNK         0.5000 
     31 O          -0.1274  -20.4681  -44.2001 O.2       8 UNK        -0.5000 
     32 CA          0.6238  -19.1689  -42.3052 C.3       8 UNK         0.1400 
     33 CB          1.6459  -18.5207  -43.2548 C.3       8 UNK        -0.1800 
     34 N          -0.1090  -18.1125  -41.6025 N.am      8 UNK        -0.5000 
     35 C          -0.7026  -18.2441  -40.4063 C.2       7 UNK         0.5000 
     36 O          -0.7035  -19.2988  -39.7697 O.2       7 UNK        -0.5000 
     37 CA         -1.4330  -17.0179  -39.8217 C.3       7 UNK         0.1400 
     38 CB         -0.5519  -16.3210  -38.7738 C.3       7 UNK        -0.1800 
     39 N          -1.8322  -16.0349  -40.8277 N.am      7 UNK        -0.5000 
     40 C          -2.7584  -16.2276  -41.7766 C.2       6 UNK         0.5000 
     41 O          -3.4423  -17.2474  -41.8656 O.2       6 UNK        -0.5000 
     42 CA         -2.9430  -15.0946  -42.8073 C.3       6 UNK         0.1400 
     43 CB         -4.1845  -14.2606  -42.4548 C.3       6 UNK        -0.1800 
     44 N          -1.7891  -14.1951  -42.9489 N.am      6 UNK        -0.5000 
     45 C          -0.5588  -14.5648  -43.3285 C.2       5 UNK         0.5000 
     46 O          -0.2280  -15.7364  -43.5223 O.2       5 UNK        -0.5000 
     47 CA          0.4876  -13.4470  -43.4660 C.3       5 UNK         0.1400 
     48 CB          1.2220  -13.2448  -42.1315 C.3       5 UNK        -0.1800 
     49 N           1.4667  -13.7900  -44.4967 N.am      5 UNK        -0.5000 
     50 C           1.2884  -13.5891  -45.8074 C.2       4 UNK         0.5000 
     51 O           0.3212  -12.9906  -46.2829 O.2       4 UNK        -0.5000 
     52 CA          2.3649  -14.1850  -46.7317 C.3       4 UNK         0.1400 
     53 CB          2.1303  -15.6875  -46.9441 C.3       4 UNK        -0.1800 
     54 N           2.3796  -13.5237  -48.0351 N.am      4 UNK        -0.5000 
     55 C           3.0572  -12.3994  -48.3029 C.2       3 UNK         0.5000 
     56 O           3.7619  -11.8198  -47.4747 O.2       3 UNK        -0.5000 
     57 CA          2.9613  -11.8252  -49.7303 C.3       3 UNK         0.1400 
     58 CB          4.2518  -12.1134  -50.5139 C.3       3 UNK        -0.1800 
     59 N           1.8201  -12.3493  -50.4821 N.am      3 UNK        -0.5000 
     60 C           0.5791  -11.8465  -50.4078 C.2       2 UNK         0.5000 
     61 O           0.2872  -10.8620  -49.7280 O.2       2 UNK        -0.5000 
     62 CA         -0.5282  -12.5395  -51.2304 C.3       2 UNK         0.1400 
     63 CB         -0.8604  -11.7204  -52.4869 C.3       2 UNK        -0.1800 
     64 N          -0.2215  -13.9134  -51.6343 N.am      2 UNK        -0.5000 
     65 C          -0.0555  -14.9403  -50.7898 C.2       1 UNK         0.5000 
     66 O          -0.1130  -14.8262  -49.5687 O.2       1 UNK        -0.5000 
     67 C           0.5299  -22.8565  -47.2022 C.2       11 UNK         0.5000 
     68 O           0.7215  -23.3878  -48.2968 O.2       11 UNK        -0.5000 
     69 N          -0.6665  -22.3858  -46.8125 N.am      12 UNK        -0.5000 
     70 CA         -1.8904  -22.5174  -47.6104 C.3       12 UNK         0.1400 
     71 CB         -3.0464  -21.7451  -46.9567 C.3       12 UNK        -0.1800 
     72 C          -2.2877  -23.9883  -47.8329 C.2       12 UNK         0.5000 
     73 O          -2.6159  -24.3656  -48.9574 O.2       12 UNK        -0.5000 
     74 N          -2.2073  -24.7996  -46.7688 N.am      13 UNK        -0.5000 
     75 CA         -2.4548  -26.2415  -46.8000 C.3       13 UNK         0.1400 
     76 CB         -2.4747  -26.7897  -45.3655 C.3       13 UNK        -0.1800 
     77 C          -1.4395  -27.0124  -47.6649 C.2       13 UNK         0.5000 
     78 O          -1.8295  -27.9615  -48.3446 O.2       13 UNK        -0.5000 
     79 N          -0.1684  -26.5858  -47.6417 N.am      14 UNK        -0.5000 
     80 CA          0.9018  -27.1289  -48.4792 C.3       14 UNK         0.1400 
     81 CB          2.2648  -26.6404  -47.9658 C.3       14 UNK        -0.1800 
     82 C           0.7214  -26.7811  -49.9682 C.2       14 UNK         0.5000 
     83 O           0.9624  -27.6383  -50.8194 O.2       14 UNK        -0.5000 
     84 N           0.2901  -25.5438  -50.2566 N.am      15 UNK        -0.5000 
     85 CA         -0.0416  -25.0759  -51.6040 C.3       15 UNK         0.1400 
     86 CB         -0.2280  -23.5516  -51.5887 C.3       15 UNK        -0.1800 
     87 C          -1.2886  -25.7796  -52.1726 C.2       15 UNK         0.5000 
     88 O          -1.2752  -26.1948  -53.3323 O.2       15 UNK        -0.5000 
     89 N          -2.3206  -25.9235  -51.3284 N.am      16 UNK        -0.5000 
     90 CA         -3.5745  -26.6664  -51.4965 C.3       16 UNK         0.1400 
     91 CB         -3.3053  -28.1712  -51.6906 C.3       16 UNK        -0.1800 
     92 C          -4.5160  -26.1274  -52.5902 C.2       16 UNK         0.5000 
     93 O          -5.6758  -25.8324  -52.2997 O.2       16 UNK        -0.5000 
     94 N          -4.0173  -26.0340  -53.8271 N.am      17 UNK        -0.5000 
     95 CA         -4.7679  -25.6026  -55.0066 C.3       17 UNK         0.1400 
     96 CB         -4.0848  -26.1700  -56.2605 C.3       17 UNK        -0.1800 
     97 C          -4.8958  -24.0723  -55.1107 C.2       17 UNK         0.5000 
     98 O          -5.8291  -23.5855  -55.7510 O.2       17 UNK        -0.5000 
     99 N          -3.9535  -23.3427  -54.5005 N.am      18 UNK        -0.5000 
    100 CA        -3.9271  -21.8826  -54.4667 C.3       18 UNK         0.1400 
    101 CB        -2.5172  -21.4234  -54.0734 C.3       18 UNK        -0.1800 
    102 C         -4.9683  -21.3170  -53.4846 C.2       18 UNK         0.5000 
    103 O         -5.2562  -21.9425  -52.4610 O.2       18 UNK        -0.5000 
    104 N         -5.4897  -20.1268  -53.8021 N.am      19 UNK        -0.5000 
    105 CA        -6.3967  -19.3678  -52.9429 C.3       19 UNK         0.1400 
    106 CB        -7.0761  -18.2736  -53.7808 C.3       19 UNK        -0.1800 
    107 C         -5.6453  -18.7390  -51.7567 C.2       19 UNK         0.5000 
    108 O         -4.4785  -18.3625  -51.8964 O.2       19 UNK        -0.5000 
    109 N         -6.3413  -18.5809  -50.6247 N.am      20 UNK        -0.5000 
    110 CA        -5.8319  -17.9751  -49.3917 C.3       20 UNK         0.1400 
    111 CB        -6.6875  -18.4574  -48.2072 C.3       20 UNK        -0.1800 
    112 C         -5.7494  -16.4350  -49.4814 C.2       20 UNK         0.5000 
    113 O         -6.3263  -15.7258  -48.6539 O.2       20 UNK        -0.5000 
    114 N         -5.0082  -15.9406  -50.4827 N.am      21 UNK        -0.5000 
    115 CA        -4.7527  -14.5197  -50.7496 C.3       21 UNK         0.1400 
    116 CB        -4.0222  -14.3875  -52.0942 C.3       21 UNK        -0.1800 
    117 C         -3.9648  -13.8067  -49.6310 C.2       21 UNK         0.5000 
    118 O         -3.9537  -12.5765  -49.5846 O.2       21 UNK        -0.5000 
    119 N         -3.3453  -14.5948  -48.7459 N.am      22 UNK        -0.5000 
    120 CA        -2.7390  -14.1737  -47.4791 C.3       22 UNK         0.1400 
    121 C         -3.7236  -13.5119  -46.4680 C.2       22 UNK         0.5000 
    122 N         -5.0278  -13.7571  -46.5528 N.am      22 UNK        -0.7600 
    123 O         -3.2974  -12.7546  -45.6016 O.2       22 UNK        -0.5000 
    124 C124       -1.9763  -15.3514  -46.8217 C.3       23 UNK        -0.0398 
    125 S125       -2.9949  -16.8375  -46.5218 S.3       23 UNK        -0.2404 
    126 C126       -1.7003  -18.0375  -46.0713 C.3       23 UNK        -0.0205 
    127 H127        4.0877  -16.2023  -53.7834 H         1 UNK         0.0600 
    128 H128        3.3603  -14.6676  -54.2710 H         1 UNK         0.0600 
    129 H129        2.5791  -16.1921  -54.7021 H         1 UNK         0.0600 
    130 H130        0.8339  -16.6757  -53.4123 H         1 UNK         0.3000 
    131 H131        0.8320  -16.8677  -50.6481 H         1 UNK         0.0600 
    132 H132       -1.5589  -16.6028  -52.5487 H         1 UNK         0.0800 
    133 H133       -1.6930  -17.0962  -50.8823 H         1 UNK         0.0800 
    134 H134       -1.1628  -20.8186  -51.0293 H         1 UNK         0.0800 
    135 H135       -2.4167  -19.6271  -50.8024 H         1 UNK         0.0800 
    136 H136       -2.5263  -18.7760  -48.5996 H         1 UNK         0.1150 
    137 H137        0.9770  -18.4237  -46.1668 H         1 UNK         0.1150 
    138 H138        1.2944  -19.9329  -50.1578 H         1 UNK         0.1150 
    139 H139        3.3100  -18.9506  -48.8457 H         1 UNK         0.0800 
    140 H140        3.1529  -18.7499  -47.1199 H         1 UNK         0.0800 
    141 H141        1.8144  -20.6720  -45.8459 H         1 UNK         0.0800 
    142 H142        3.2412  -21.5388  -45.3830 H         1 UNK         0.0800 
    143 H143        2.3880  -23.5987  -46.4617 H         1 UNK         0.0600 
    144 H144        0.9939  -22.3809  -44.2201 H         1 UNK         0.3000 
    145 H145       -0.4106  -25.4105  -43.0304 H         1 UNK         0.0600 
    146 H146        0.9459  -24.9485  -41.0056 H         1 UNK         0.0600 
    147 H147        2.0367  -23.9203  -41.9359 H         1 UNK         0.0600 
    148 H148        1.9545  -25.6475  -42.2620 H         1 UNK         0.0600 
    149 H149       -0.1725  -22.7969  -41.8894 H         1 UNK         0.3000 
    150 H150       -2.7973  -21.2126  -43.6260 H         1 UNK         0.0600 
    151 H151       -4.1210  -22.5712  -41.9944 H         1 UNK         0.0600 
    152 H152       -3.8430  -20.9430  -41.3958 H         1 UNK         0.0600 
    153 H153       -2.9008  -22.2904  -40.7569 H         1 UNK         0.0600 
    154 H154       -1.3703  -20.3972  -41.3159 H         1 UNK         0.3000 
    155 H155        1.1894  -19.7467  -41.5715 H         1 UNK         0.0600 
    156 H156        2.2395  -19.2735  -43.7744 H         1 UNK         0.0600 
    157 H157        2.3403  -17.8830  -42.7079 H         1 UNK         0.0600 
    158 H158        1.1561  -17.9054  -44.0074 H         1 UNK         0.0600 
    159 H159       -0.1985  -17.2324  -42.1000 H         1 UNK         0.3000 
    160 H160       -2.3359  -17.3802  -39.3258 H         1 UNK         0.0600 
    161 H161        0.3597  -15.9190  -39.2181 H         1 UNK         0.0600 
    162 H162       -0.2550  -17.0164  -37.9874 H         1 UNK         0.0600 
    163 H163       -1.0835  -15.4989  -38.2941 H         1 UNK         0.0600 
    164 H164       -1.3257  -15.1624  -40.8336 H         1 UNK         0.3000 
    165 H165       -3.1122  -15.5660  -43.7767 H         1 UNK         0.0600 
    166 H166       -4.3900  -13.5111  -43.2186 H         1 UNK         0.0600 
    167 H167       -5.0710  -14.8917  -42.3780 H         1 UNK         0.0600 
    168 H168       -4.0645  -13.7448  -41.5014 H         1 UNK         0.0600 
    169 H169       -1.9797  -13.2126  -42.8131 H         1 UNK         0.3000 
    170 H170       -0.0154  -12.5156  -43.7356 H         1 UNK         0.0600 
    171 H171        1.7291  -14.1549  -41.8074 H         1 UNK         0.0600 
    172 H172        1.9689  -12.4545  -42.2088 H         1 UNK         0.0600 
    173 H173        0.5274  -12.9571  -41.3413 H         1 UNK         0.0600 
    174 H174        2.2573  -14.3368  -44.1888 H         1 UNK         0.3000 
    175 H175        3.3382  -14.0591  -46.2524 H         1 UNK         0.0600 
    176 H176        1.1777  -15.8797  -47.4361 H         1 UNK         0.0600 
    177 H177        2.9154  -16.1257  -47.5604 H         1 UNK         0.0600 
    178 H178        2.1239  -16.2235  -45.9943 H         1 UNK         0.0600 
    179 H179        1.7471  -13.8951  -48.7331 H         1 UNK         0.3000 
    180 H180        2.8639  -10.7411  -49.6412 H         1 UNK         0.0600 
    181 H181        4.2011  -11.7072  -51.5242 H         1 UNK         0.0600 
    182 H182        4.4474  -13.1832  -50.5903 H         1 UNK         0.0600 
    183 H183        5.1140  -11.6594  -50.0241 H         1 UNK         0.0600 
    184 H184        1.9882  -13.1833  -51.0335 H         1 UNK         0.3000 
    185 H185       -1.4171  -12.5705  -50.5993 H         1 UNK         0.0600 
    186 H186       -0.0097  -11.6670  -53.1675 H         1 UNK         0.0600 
    187 H187       -1.7004  -12.1527  -53.0306 H         1 UNK         0.0600 
    188 H188       -1.1370  -10.6981  -52.2257 H         1 UNK         0.0600 
    189 H189       -0.1127  -14.0814  -52.6238 H         1 UNK         0.3000 
    190 H190       -0.7469  -21.9453  -45.9055 H         1 UNK         0.3000 
    191 H191       -1.6962  -22.0729  -48.5886 H         1 UNK         0.0600 
    192 H192       -2.7995  -20.6956  -46.8248 H         1 UNK         0.0600 
    193 H193       -3.3105  -22.1502  -45.9808 H         1 UNK         0.0600 
    194 H194       -3.9406  -21.7882  -47.5796 H         1 UNK         0.0600 
    195 H195       -1.9957  -24.3930  -45.8617 H         1 UNK         0.3000 
    196 H196       -3.4439  -26.3970  -47.2357 H         1 UNK         0.0600 
    197 H197       -3.2308  -26.2880  -44.7613 H         1 UNK         0.0600 
    198 H198       -1.5116  -26.6601  -44.8722 H         1 UNK         0.0600 
    199 H199       -2.7061  -27.8555  -45.3584 H         1 UNK         0.0600 
    200 H200        0.0886  -25.8478  -46.9964 H         1 UNK         0.3000 
    201 H201        0.8802  -28.2169  -48.3879 H         1 UNK         0.0600 
    202 H202        2.4298  -26.9462  -46.9326 H         1 UNK         0.0600 
    203 H203        2.3488  -25.5548  -48.0120 H         1 UNK         0.0600 
    204 H204        3.0777  -27.0573  -48.5615 H         1 UNK         0.0600 
    205 H205        0.1844  -24.8739  -49.5005 H         1 UNK         0.3000 
    206 H206        0.8020  -25.3069  -52.2577 H         1 UNK         0.0600 
    207 H207       -1.0767  -23.2555  -50.9718 H         1 UNK         0.0600 
    208 H208        0.6574  -23.0483  -51.1995 H         1 UNK         0.0600 
    209 H209       -0.3997  -23.1726  -52.5963 H         1 UNK         0.0600 
    210 H210       -2.2427  -25.4568  -50.4269 H         1 UNK         0.3000 
    211 H211       -4.1018  -26.5535  -50.5477 H         1 UNK         0.0600 
    212 H212       -2.7679  -28.3761  -52.6169 H         1 UNK         0.0600 
    213 H213       -4.2397  -28.7325  -51.7248 H         1 UNK         0.0600 
    214 H214       -2.7146  -28.5742  -50.8682 H         1 UNK         0.0600 
    215 H215       -3.0326  -26.2568  -53.9521 H         1 UNK         0.3000 
    216 H216       -5.7773  -26.0161  -54.9531 H         1 UNK         0.0600 
    217 H217       -4.6271  -25.8874  -57.1638 H         1 UNK         0.0600 
    218 H218       -4.0493  -27.2592  -56.2309 H         1 UNK         0.0600 
    219 H219       -3.0624  -25.8035  -56.3618 H         1 UNK         0.0600 
    220 H220       -3.2526  -23.8258  -53.9598 H         1 UNK         0.3000 
    221 H221       -4.1452  -21.5095  -55.4698 H         1 UNK         0.0600 
    222 H222       -2.2687  -21.7256  -53.0561 H         1 UNK         0.0600 
    223 H223       -1.7608  -21.8323  -54.7434 H         1 UNK         0.0600 
    224 H224       -2.4398  -20.3368  -54.1208 H         1 UNK         0.0600 
    225 H225       -5.1658  -19.6554  -54.6338 H         1 UNK         0.3000 
    226 H226       -7.1643  -20.0437  -52.5596 H         1 UNK         0.0600 
    227 H227       -7.6328  -18.7029  -54.6141 H         1 UNK         0.0600 
    228 H228       -7.7839  -17.7020  -53.1790 H         1 UNK         0.0600 
    229 H229       -6.3499  -17.5692  -54.1888 H         1 UNK         0.0600 
    230 H230       -7.3075  -18.8742  -50.6044 H         1 UNK         0.3000 
    231 H231       -4.8153  -18.3362  -49.2247 H         1 UNK         0.0600 
    232 H232       -7.7253  -18.1353  -48.3013 H         1 UNK         0.0600 
    233 H233       -6.3042  -18.0655  -47.2638 H         1 UNK         0.0600 
    234 H234       -6.6777  -19.5448  -48.1308 H         1 UNK         0.0600 
    235 H235       -4.5953  -16.6116  -51.1250 H         1 UNK         0.3000 
    236 H236       -5.7198  -14.0201  -50.8336 H         1 UNK         0.0600 
    237 H237       -3.0338  -14.8428  -52.0587 H         1 UNK         0.0600 
    238 H238       -4.5838  -14.8611  -52.8997 H         1 UNK         0.0600 
    239 H239       -3.8891  -13.3391  -52.3637 H         1 UNK         0.0600 
    240 H240       -3.4174  -15.5922  -48.8721 H         1 UNK         0.3000 
    241 H241       -2.0028  -13.4077  -47.7295 H         1 UNK         0.0600 
    242 H242       -5.6570  -13.3165  -45.9017 H         1 UNK         0.3800 
    243 H243       -5.3936  -14.3894  -47.2544 H         1 UNK         0.3800 
    244 H244       -1.5259  -15.0370  -45.8833 H         1 UNK         0.0800 
    245 H245       -1.1439  -15.6452  -47.4565 H         1 UNK         0.0800 
    246 H246       -2.1688  -18.8948  -45.5892 H         1 UNK         0.0800 
    247 H247       -1.0587  -17.5863  -45.3133 H         1 UNK         0.0800 
@<TRIPOS>BOND
     1    1    2 1    
     2    1  127 1    
     3    1  128 1    
     4    1  129 1    
     5    2    3 2    
     6    2    4 am   BACKBONE|DICT|INTERRES
     7    4    5 1    
     8    4  130 1    
     9    5    6 1    
    10    5   65 1    
    11    5  131 1    
    12    6    7 1    
    13    6  132 1    
    14    6  133 1    
    15    7    8 1    
    16    8    9 1    
    17    8  134 1    
    18    8  135 1    
    19    9   10 ar   
    20    9   14 ar   
    21   10   11 ar   
    22   10  136 1    
    23   11   12 ar   
    24   11  126 1    
    25   12   13 ar   
    26   12  137 1    
    27   13   14 ar   
    28   13   15 1    
    29   14  138 1    
    30   15   16 1    
    31   15  139 1    
    32   15  140 1    
    33   16   17 1    
    34   17   18 1    
    35   17  141 1    
    36   17  142 1    
    37   18   19 1    
    38   18   67 1    
    39   18  143 1    
    40   19   20 am   BACKBONE|DICT|INTERRES
    41   19  144 1    
    42   20   21 2    
    43   20   22 1    
    44   22   23 1    
    45   22   24 1    
    46   22  145 1    
    47   23  146 1    
    48   23  147 1    
    49   23  148 1    
    50   24   25 am   BACKBONE|DICT|INTERRES
    51   24  149 1    
    52   25   26 2    
    53   25   27 1    
    54   27   28 1    
    55   27   29 1    
    56   27  150 1    
    57   28  151 1    
    58   28  152 1    
    59   28  153 1    
    60   29   30 am   BACKBONE|DICT|INTERRES
    61   29  154 1    
    62   30   31 2    
    63   30   32 1    
    64   32   33 1    
    65   32   34 1    
    66   32  155 1    
    67   33  156 1    
    68   33  157 1    
    69   33  158 1    
    70   34   35 am   BACKBONE|DICT|INTERRES
    71   34  159 1    
    72   35   36 2    
    73   35   37 1    
    74   37   38 1    
    75   37   39 1    
    76   37  160 1    
    77   38  161 1    
    78   38  162 1    
    79   38  163 1    
    80   39   40 am   BACKBONE|DICT|INTERRES
    81   39  164 1    
    82   40   41 2    
    83   40   42 1    
    84   42   43 1    
    85   42   44 1    
    86   42  165 1    
    87   43  166 1    
    88   43  167 1    
    89   43  168 1    
    90   44   45 am   BACKBONE|DICT|INTERRES
    91   44  169 1    
    92   45   46 2    
    93   45   47 1    
    94   47   48 1    
    95   47   49 1    
    96   47  170 1    
    97   48  171 1    
    98   48  172 1    
    99   48  173 1    
   100   49   50 am   BACKBONE|DICT|INTERRES
   101   49  174 1    
   102   50   51 2    
   103   50   52 1    
   104   52   53 1    
   105   52   54 1    
   106   52  175 1    
   107   53  176 1    
   108   53  177 1    
   109   53  178 1    
   110   54   55 am   BACKBONE|DICT|INTERRES
   111   54  179 1    
   112   55   56 2    
   113   55   57 1    
   114   57   58 1    
   115   57   59 1    
   116   57  180 1    
   117   58  181 1    
   118   58  182 1    
   119   58  183 1    
   120   59   60 am   BACKBONE|DICT|INTERRES
   121   59  184 1    
   122   60   61 2    
   123   60   62 1    
   124   62   63 1    
   125   62   64 1    
   126   62  185 1    
   127   63  186 1    
   128   63  187 1    
   129   63  188 1    
   130   64   65 am   BACKBONE|DICT|INTERRES
   131   64  189 1    
   132   65   66 2    
   133   67   68 2    
   134   67   69 am   BACKBONE|DICT|INTERRES
   135   69   70 1    
   136   69  190 1    
   137   70   71 1    
   138   70   72 1    
   139   70  191 1    
   140   71  192 1    
   141   71  193 1    
   142   71  194 1    
   143   72   73 2    
   144   72   74 am   BACKBONE|DICT|INTERRES
   145   74   75 1    
   146   74  195 1    
   147   75   76 1    
   148   75   77 1    
   149   75  196 1    
   150   76  197 1    
   151   76  198 1    
   152   76  199 1    
   153   77   78 2    
   154   77   79 am   BACKBONE|DICT|INTERRES
   155   79   80 1    
   156   79  200 1    
   157   80   81 1    
   158   80   82 1    
   159   80  201 1    
   160   81  202 1    
   161   81  203 1    
   162   81  204 1    
   163   82   83 2    
   164   82   84 am   BACKBONE|DICT|INTERRES
   165   84   85 1    
   166   84  205 1    
   167   85   86 1    
   168   85   87 1    
   169   85  206 1    
   170   86  207 1    
   171   86  208 1    
   172   86  209 1    
   173   87   88 2    
   174   87   89 am   BACKBONE|DICT|INTERRES
   175   89   90 1    
   176   89  210 1    
   177   90   91 1    
   178   90   92 1    
   179   90  211 1    
   180   91  212 1    
   181   91  213 1    
   182   91  214 1    
   183   92   93 2    
   184   92   94 am   BACKBONE|DICT|INTERRES
   185   94   95 1    
   186   94  215 1    
   187   95   96 1    
   188   95   97 1    
   189   95  216 1    
   190   96  217 1    
   191   96  218 1    
   192   96  219 1    
   193   97   98 2    
   194   97   99 am   BACKBONE|DICT|INTERRES
   195   99  100 1    
   196   99  220 1    
   197  100  101 1    
   198  100  102 1    
   199  100  221 1    
   200  101  222 1    
   201  101  223 1    
   202  101  224 1    
   203  102  103 2    
   204  102  104 am   BACKBONE|DICT|INTERRES
   205  104  105 1    
   206  104  225 1    
   207  105  106 1    
   208  105  107 1    
   209  105  226 1    
   210  106  227 1    
   211  106  228 1    
   212  106  229 1    
   213  107  108 2    
   214  107  109 am   BACKBONE|DICT|INTERRES
   215  109  110 1    
   216  109  230 1    
   217  110  111 1    
   218  110  112 1    
   219  110  231 1    
   220  111  232 1    
   221  111  233 1    
   222  111  234 1    
   223  112  113 2    
   224  112  114 am   BACKBONE|DICT|INTERRES
   225  114  115 1    
   226  114  235 1    
   227  115  116 1    
   228  115  117 1    
   229  115  236 1    
   230  116  237 1    
   231  116  238 1    
   232  116  239 1    
   233  117  118 2    
   234  117  119 am   BACKBONE|DICT|INTERRES
   235  119  120 1    
   236  119  240 1    
   237  120  121 1    
   238  120  124 1    
   239  120  241 1    
   240  121  122 am   BACKBONE|DICT|INTERRES
   241  121  123 2    
   242  122  242 1    
   243  122  243 1    
   244  124  125 1    
   245  124  244 1    
   246  124  245 1    
   247  125  126 1    
   248  126  246 1    
   249  126  247 1    
@<TRIPOS>SUBSTRUCTURE
     1 UNK         1 GROUP             0       ****    0 ROOT    
