@<TRIPOS>MOLECULE
3R540
247   249    1
SMALL
USER_CHARGES


@<TRIPOS>ATOM
      1 CA          1.2866  -13.8039  -41.3655 C.3       0 UNK        -0.1800 
      2 C           0.5835  -12.6513  -42.0655 C.2       0 UNK         0.5000 
      3 O          -0.1253  -11.8873  -41.4104 O.2       0 UNK        -0.5000 
      4 N           0.7823  -12.5074  -43.3837 N.am      1 UNK        -0.5000 
      5 CA          0.2659  -11.3864  -44.1866 C.3       1 UNK         0.1400 
      6 C6          0.4321  -11.6254  -45.7062 C.3       23 UNK        -0.0398 
      7 S7         -0.3999  -13.1272  -46.3212 S.3       23 UNK        -0.2404 
      8 C8          0.4724  -13.2883  -47.9087 C.3       23 UNK        -0.0205 
      9 C9          0.1283  -14.5730  -48.6449 C.ar      23 UNK        -0.0193 
     10 C10        -1.0239  -14.6526  -49.4326 C.ar      23 UNK        -0.1150 
     11 C11        -1.3104  -15.8061  -50.1721 C.ar      23 UNK        -0.0193 
     12 C12        -0.4057  -16.8740  -50.1326 C.ar      23 UNK        -0.1150 
     13 C13         0.7448  -16.8116  -49.3419 C.ar      23 UNK        -0.0193 
     14 C14         0.9995  -15.6630  -48.5898 C.ar      23 UNK        -0.1150 
     15 C15         1.7315  -17.9698  -49.3296 C.3       23 UNK        -0.0205 
     16 S16         1.3694  -19.1620  -48.0061 S.3       23 UNK        -0.2404 
     17 C17        -0.1820  -19.8951  -48.6183 C.3       23 UNK        -0.0398 
     18 CA         -0.5569  -21.1931  -47.8737 C.3       11 UNK         0.1400 
     19 N          -0.7764  -20.9776  -46.4423 N.am      11 UNK        -0.5000 
     20 C          -0.9513  -21.9569  -45.5451 C.2       10 UNK         0.5000 
     21 O          -0.9004  -23.1560  -45.8190 O.2       10 UNK        -0.5000 
     22 CA         -1.3031  -21.5187  -44.1150 C.3       10 UNK         0.1400 
     23 CB         -0.0456  -21.0986  -43.3391 C.3       10 UNK        -0.1800 
     24 N          -2.2780  -20.4276  -44.1171 N.am      10 UNK        -0.5000 
     25 C          -3.5643  -20.5744  -44.4655 C.2       9 UNK         0.5000 
     26 O          -4.0671  -21.6538  -44.7783 O.2       9 UNK        -0.5000 
     27 CA         -4.4246  -19.2977  -44.5051 C.3       9 UNK         0.1400 
     28 CB         -4.9698  -18.9706  -43.1071 C.3       9 UNK        -0.1800 
     29 N          -3.7023  -18.1362  -45.0263 N.am      9 UNK        -0.5000 
     30 C          -3.2577  -18.0182  -46.2858 C.2       8 UNK         0.5000 
     31 O          -3.4198  -18.8747  -47.1510 O.2       8 UNK        -0.5000 
     32 CA         -2.4538  -16.7509  -46.6214 C.3       8 UNK         0.1400 
     33 CB         -3.4065  -15.6058  -46.9962 C.3       8 UNK        -0.1800 
     34 N          -1.5700  -16.3176  -45.5363 N.am      8 UNK        -0.5000 
     35 C          -0.5988  -17.0647  -44.9967 C.2       7 UNK         0.5000 
     36 O          -0.3734  -18.2355  -45.3105 O.2       7 UNK        -0.5000 
     37 CA          0.2109  -16.4247  -43.8650 C.3       7 UNK         0.1400 
     38 CB         -0.1989  -17.0403  -42.5169 C.3       7 UNK        -0.1800 
     39 N           1.6321  -16.6729  -44.0884 N.am      7 UNK        -0.5000 
     40 C           2.4946  -15.7646  -44.5548 C.2       6 UNK         0.5000 
     41 O           2.1880  -14.5989  -44.8189 O.2       6 UNK        -0.5000 
     42 CA          3.9490  -16.2364  -44.7506 C.3       6 UNK         0.1400 
     43 CB          4.1109  -16.9476  -46.1027 C.3       6 UNK        -0.1800 
     44 N           4.8878  -15.1143  -44.6915 N.am      6 UNK        -0.5000 
     45 C           5.1444  -14.3982  -43.5898 C.2       5 UNK         0.5000 
     46 O           4.7375  -14.7034  -42.4650 O.2       5 UNK        -0.5000 
     47 CA          5.9597  -13.1099  -43.8033 C.3       5 UNK         0.1400 
     48 CB          5.1198  -12.0594  -44.5487 C.3       5 UNK        -0.1800 
     49 N           6.3905  -12.5476  -42.5236 N.am      5 UNK        -0.5000 
     50 C           7.5430  -12.8518  -41.9120 C.2       4 UNK         0.5000 
     51 O           8.3965  -13.5859  -42.4145 O.2       4 UNK        -0.5000 
     52 CA          7.7841  -12.2723  -40.4981 C.3       4 UNK         0.1400 
     53 CB          9.2619  -11.8956  -40.2586 C.3       4 UNK        -0.1800 
     54 N           6.8936  -11.1648  -40.1268 N.am      4 UNK        -0.5000 
     55 C           6.8297   -9.9440  -40.6763 C.2       3 UNK         0.5000 
     56 O           7.5464   -9.5533  -41.6000 O.2       3 UNK        -0.5000 
     57 CA          5.7424   -9.0101  -40.1084 C.3       3 UNK         0.1400 
     58 CB          6.3577   -7.7097  -39.5667 C.3       3 UNK        -0.1800 
     59 N           4.7205   -8.6816  -41.1044 N.am      3 UNK        -0.5000 
     60 C           3.9653   -9.5732  -41.7581 C.2       2 UNK         0.5000 
     61 O           4.0351  -10.7943  -41.5780 O.2       2 UNK        -0.5000 
     62 CA          2.9695   -9.0078  -42.7842 C.3       2 UNK         0.1400 
     63 CB          3.6881   -8.3447  -43.9743 C.3       2 UNK        -0.1800 
     64 N           2.1443  -10.1099  -43.2567 N.am      2 UNK        -0.5000 
     65 C           0.9302  -10.0401  -43.8108 C.2       1 UNK         0.5000 
     66 O           0.3398   -8.9822  -44.0341 O.2       1 UNK        -0.5000 
     67 C          -1.7708  -21.8732  -48.5380 C.2       11 UNK         0.5000 
     68 O          -1.5840  -22.8044  -49.3177 O.2       11 UNK        -0.5000 
     69 N          -2.9904  -21.4353  -48.1924 N.am      12 UNK        -0.5000 
     70 CA         -4.2511  -22.0374  -48.6248 C.3       12 UNK         0.1400 
     71 CB         -5.4348  -21.1821  -48.1511 C.3       12 UNK        -0.1800 
     72 C          -4.4126  -23.4933  -48.1656 C.2       12 UNK         0.5000 
     73 O          -4.8105  -24.3302  -48.9738 O.2       12 UNK        -0.5000 
     74 N          -4.0673  -23.7775  -46.9026 N.am      13 UNK        -0.5000 
     75 CA         -4.0728  -25.1263  -46.3347 C.3       13 UNK         0.1400 
     76 CB         -3.8323  -25.0482  -44.8195 C.3       13 UNK        -0.1800 
     77 C          -3.0501  -26.0632  -47.0058 C.2       13 UNK         0.5000 
     78 O          -3.3616  -27.2323  -47.2353 O.2       13 UNK        -0.5000 
     79 N          -1.8607  -25.5319  -47.3202 N.am      14 UNK        -0.5000 
     80 CA         -0.7913  -26.2478  -48.0139 C.3       14 UNK         0.1400 
     81 CB          0.5206  -25.4584  -47.8828 C.3       14 UNK        -0.1800 
     82 C          -1.1199  -26.5235  -49.4932 C.2       14 UNK         0.5000 
     83 O          -0.9207  -27.6464  -49.9587 O.2       14 UNK        -0.5000 
     84 N          -1.6039  -25.4967  -50.2048 N.am      15 UNK        -0.5000 
     85 CA         -1.9360  -25.5550  -51.6291 C.3       15 UNK         0.1400 
     86 CB         -2.0585  -24.1230  -52.1702 C.3       15 UNK        -0.1800 
     87 C          -3.2183  -26.3560  -51.9174 C.2       15 UNK         0.5000 
     88 O          -3.2651  -27.0805  -52.9120 O.2       15 UNK        -0.5000 
     89 N          -4.2169  -26.2143  -51.0341 N.am      16 UNK        -0.5000 
     90 CA         -5.5611  -26.7934  -51.0819 C.3       16 UNK         0.1400 
     91 CB         -5.5016  -28.3352  -51.1407 C.3       16 UNK        -0.1800 
     92 C          -6.4460  -26.2049  -52.2008 C.2       16 UNK         0.5000 
     93 O          -5.9940  -25.4151  -53.0371 O.2       16 UNK        -0.5000 
     94 N          -7.7224  -26.6125  -52.1924 N.am      17 UNK        -0.5000 
     95 CA         -8.7464  -26.2054  -53.1581 C.3       17 UNK         0.1400 
     96 CB        -10.1151  -26.7176  -52.6861 C.3       17 UNK        -0.1800 
     97 C          -8.4605  -26.6777  -54.5964 C.2       17 UNK         0.5000 
     98 O          -8.9056  -26.0276  -55.5412 O.2       17 UNK        -0.5000 
     99 N          -7.6851  -27.7622  -54.7419 N.am      18 UNK        -0.5000 
    100 CA        -7.2161  -28.3021  -56.0212 C.3       18 UNK         0.1400 
    101 CB        -6.4941  -29.6338  -55.7657 C.3       18 UNK        -0.1800 
    102 C         -6.3011  -27.3330  -56.7980 C.2       18 UNK         0.5000 
    103 O         -6.3125  -27.3457  -58.0292 O.2       18 UNK        -0.5000 
    104 N         -5.5526  -26.4960  -56.0674 N.am      19 UNK        -0.5000 
    105 CA        -4.7140  -25.4255  -56.6105 C.3       19 UNK         0.1400 
    106 CB        -3.4219  -25.3626  -55.7838 C.3       19 UNK        -0.1800 
    107 C         -5.4273  -24.0580  -56.5885 C.2       19 UNK         0.5000 
    108 O         -4.8254  -23.0650  -56.9974 O.2       19 UNK        -0.5000 
    109 N         -6.6758  -24.0250  -56.0961 N.am      20 UNK        -0.5000 
    110 CA        -7.5094  -22.8461  -55.8412 C.3       20 UNK         0.1400 
    111 CB        -7.8625  -22.1186  -57.1559 C.3       20 UNK        -0.1800 
    112 C         -6.9205  -21.9115  -54.7611 C.2       20 UNK         0.5000 
    113 O         -7.1056  -20.6956  -54.8426 O.2       20 UNK        -0.5000 
    114 N         -6.2501  -22.5091  -53.7607 N.am      21 UNK        -0.5000 
    115 CA        -5.5623  -21.8818  -52.6254 C.3       21 UNK         0.1400 
    116 CB        -6.5516  -21.0650  -51.7667 C.3       21 UNK        -0.1800 
    117 C         -4.3205  -21.0491  -53.0185 C.2       21 UNK         0.5000 
    118 O         -4.0558  -20.8216  -54.2000 O.2       21 UNK        -0.5000 
    119 N         -3.5528  -20.6412  -51.9988 N.am      22 UNK        -0.5000 
    120 CA        -2.3357  -19.8038  -52.0335 C.3       22 UNK         0.1400 
    121 C         -1.1155  -20.3466  -52.8377 C.2       22 UNK         0.5000 
    122 N         -1.2890  -21.2023  -53.8328 N.am      22 UNK        -0.7600 
    123 O          0.0180  -19.9915  -52.5287 O.2       22 UNK        -0.5000 
    124 C124       -2.6416  -18.3287  -52.4093 C.3       23 UNK        -0.0398 
    125 S125       -3.4632  -17.4395  -51.0395 S.3       23 UNK        -0.2404 
    126 C126       -2.5708  -15.8430  -51.0381 C.3       23 UNK        -0.0205 
    127 H127        0.5607  -14.4224  -40.8388 H         1 UNK         0.0600 
    128 H128        1.9976  -13.4160  -40.6359 H         1 UNK         0.0600 
    129 H129        1.8361  -14.4330  -42.0632 H         1 UNK         0.0600 
    130 H130        1.3375  -13.1931  -43.8931 H         1 UNK         0.3000 
    131 H131       -0.8009  -11.2894  -43.9747 H         1 UNK         0.0600 
    132 H132        1.4938  -11.6890  -45.9528 H         1 UNK         0.0800 
    133 H133        0.0360  -10.7795  -46.2716 H         1 UNK         0.0800 
    134 H134        0.2328  -12.4302  -48.5384 H         1 UNK         0.0800 
    135 H135        1.5485  -13.2467  -47.7321 H         1 UNK         0.0800 
    136 H136       -1.6937  -13.8052  -49.4757 H         1 UNK         0.1150 
    137 H137       -0.5854  -17.7627  -50.7154 H         1 UNK         0.1150 
    138 H138        1.8911  -15.6056  -47.9826 H         1 UNK         0.1150 
    139 H139        1.7324  -18.4799  -50.2944 H         1 UNK         0.0800 
    140 H140        2.7440  -17.5889  -49.1885 H         1 UNK         0.0800 
    141 H141       -0.0526  -20.0986  -49.6823 H         1 UNK         0.0800 
    142 H142       -0.9803  -19.1568  -48.5284 H         1 UNK         0.0800 
    143 H143        0.2833  -21.8844  -47.9692 H         1 UNK         0.0600 
    144 H144       -0.7795  -20.0130  -46.1232 H         1 UNK         0.3000 
    145 H145       -1.7468  -22.3742  -43.6009 H         1 UNK         0.0600 
    146 H146        0.6646  -21.9241  -43.2784 H         1 UNK         0.0600 
    147 H147        0.4677  -20.2633  -43.8155 H         1 UNK         0.0600 
    148 H148       -0.2909  -20.8053  -42.3184 H         1 UNK         0.0600 
    149 H149       -1.9212  -19.4986  -43.9481 H         1 UNK         0.3000 
    150 H150       -5.2731  -19.4896  -45.1650 H         1 UNK         0.0600 
    151 H151       -5.6473  -18.1171  -43.1378 H         1 UNK         0.0600 
    152 H152       -4.1681  -18.7388  -42.4048 H         1 UNK         0.0600 
    153 H153       -5.5296  -19.8138  -42.6999 H         1 UNK         0.0600 
    154 H154       -3.5191  -17.3832  -44.3800 H         1 UNK         0.3000 
    155 H155       -1.8253  -16.9756  -47.4848 H         1 UNK         0.0600 
    156 H156       -4.0755  -15.3505  -46.1736 H         1 UNK         0.0600 
    157 H157       -4.0244  -15.8809  -47.8522 H         1 UNK         0.0600 
    158 H158       -2.8590  -14.7052  -47.2705 H         1 UNK         0.0600 
    159 H159       -1.6739  -15.3592  -45.2355 H         1 UNK         0.3000 
    160 H160        0.0038  -15.3533  -43.8322 H         1 UNK         0.0600 
    161 H161        0.4016  -16.6422  -41.7000 H         1 UNK         0.0600 
    162 H162       -0.0791  -18.1241  -42.5115 H         1 UNK         0.0600 
    163 H163       -1.2435  -16.8238  -42.2900 H         1 UNK         0.0600 
    164 H164        1.9351  -17.6284  -43.9660 H         1 UNK         0.3000 
    165 H165        4.1977  -16.9378  -43.9513 H         1 UNK         0.0600 
    166 H166        5.1215  -17.3375  -46.2245 H         1 UNK         0.0600 
    167 H167        3.4267  -17.7926  -46.1858 H         1 UNK         0.0600 
    168 H168        3.9081  -16.2771  -46.9380 H         1 UNK         0.0600 
    169 H169        5.2310  -14.7782  -45.5789 H         1 UNK         0.3000 
    170 H170        6.8322  -13.3483  -44.4151 H         1 UNK         0.0600 
    171 H171        5.6505  -11.1103  -44.6232 H         1 UNK         0.0600 
    172 H172        4.8931  -12.3843  -45.5647 H         1 UNK         0.0600 
    173 H173        4.1689  -11.8792  -44.0495 H         1 UNK         0.0600 
    174 H174        5.7060  -11.9850  -42.0304 H         1 UNK         0.3000 
    175 H175        7.5438  -13.0834  -39.8095 H         1 UNK         0.0600 
    176 H176        9.6097  -11.1443  -40.9679 H         1 UNK         0.0600 
    177 H177        9.4114  -11.5032  -39.2527 H         1 UNK         0.0600 
    178 H178        9.9106  -12.7659  -40.3637 H         1 UNK         0.0600 
    179 H179        6.2247  -11.3867  -39.4021 H         1 UNK         0.3000 
    180 H180        5.2420   -9.5139  -39.2788 H         1 UNK         0.0600 
    181 H181        5.6022   -7.0817  -39.0942 H         1 UNK         0.0600 
    182 H182        6.8318   -7.1275  -40.3580 H         1 UNK         0.0600 
    183 H183        7.1189   -7.9225  -38.8150 H         1 UNK         0.0600 
    184 H184        4.6190   -7.7024  -41.3279 H         1 UNK         0.3000 
    185 H185        2.3369   -8.2762  -42.2778 H         1 UNK         0.0600 
    186 H186        4.3354   -9.0498  -44.4960 H         1 UNK         0.0600 
    187 H187        2.9745   -7.9507  -44.6980 H         1 UNK         0.0600 
    188 H188        4.3077   -7.5088  -43.6485 H         1 UNK         0.0600 
    189 H189        2.5230  -11.0212  -43.0291 H         1 UNK         0.3000 
    190 H190       -3.0690  -20.6117  -47.5987 H         1 UNK         0.3000 
    191 H191       -4.2538  -22.0473  -49.7142 H         1 UNK         0.0600 
    192 H192       -5.4713  -21.1116  -47.0643 H         1 UNK         0.0600 
    193 H193       -6.3830  -21.6073  -48.4827 H         1 UNK         0.0600 
    194 H194       -5.3754  -20.1688  -48.5485 H         1 UNK         0.0600 
    195 H195       -3.7953  -23.0216  -46.2826 H         1 UNK         0.3000 
    196 H196       -5.0655  -25.5513  -46.4973 H         1 UNK         0.0600 
    197 H197       -3.8551  -26.0410  -44.3685 H         1 UNK         0.0600 
    198 H198       -4.6009  -24.4504  -44.3293 H         1 UNK         0.0600 
    199 H199       -2.8647  -24.6034  -44.5865 H         1 UNK         0.0600 
    200 H200       -1.6638  -24.5766  -47.0392 H         1 UNK         0.3000 
    201 H201       -0.6529  -27.2113  -47.5188 H         1 UNK         0.0600 
    202 H202        0.7989  -25.3292  -46.8367 H         1 UNK         0.0600 
    203 H203        0.4428  -24.4674  -48.3309 H         1 UNK         0.0600 
    204 H204        1.3416  -25.9795  -48.3766 H         1 UNK         0.0600 
    205 H205       -1.6940  -24.5863  -49.7584 H         1 UNK         0.3000 
    206 H206       -1.1114  -26.0441  -52.1519 H         1 UNK         0.0600 
    207 H207       -2.2363  -24.1173  -53.2444 H         1 UNK         0.0600 
    208 H208       -2.8780  -23.5844  -51.6946 H         1 UNK         0.0600 
    209 H209       -1.1432  -23.5573  -51.9950 H         1 UNK         0.0600 
    210 H210       -4.0863  -25.5559  -50.2718 H         1 UNK         0.3000 
    211 H211       -6.0296  -26.5151  -50.1370 H         1 UNK         0.0600 
    212 H212       -5.1697  -28.6958  -52.1147 H         1 UNK         0.0600 
    213 H213       -6.4789  -28.7781  -50.9478 H         1 UNK         0.0600 
    214 H214       -4.8190  -28.7301  -50.3878 H         1 UNK         0.0600 
    215 H215       -8.0242  -27.2499  -51.4695 H         1 UNK         0.3000 
    216 H216       -8.7758  -25.1137  -53.1734 H         1 UNK         0.0600 
    217 H217      -10.9058  -26.4080  -53.3709 H         1 UNK         0.0600 
    218 H218      -10.3670  -26.3217  -51.7021 H         1 UNK         0.0600 
    219 H219      -10.1394  -27.8065  -52.6276 H         1 UNK         0.0600 
    220 H220       -7.3658  -28.2334  -53.9086 H         1 UNK         0.3000 
    221 H221       -8.0919  -28.4989  -56.6430 H         1 UNK         0.0600 
    222 H222       -5.6220  -29.5018  -55.1238 H         1 UNK         0.0600 
    223 H223       -7.1562  -30.3572  -55.2895 H         1 UNK         0.0600 
    224 H224       -6.1495  -30.0771  -56.7010 H         1 UNK         0.0600 
    225 H225       -5.6064  -26.5444  -55.0575 H         1 UNK         0.3000 
    226 H226       -4.4468  -25.6423  -57.6466 H         1 UNK         0.0600 
    227 H227       -2.9031  -26.3213  -55.7823 H         1 UNK         0.0600 
    228 H228       -2.7312  -24.6174  -56.1801 H         1 UNK         0.0600 
    229 H229       -3.6385  -25.0959  -54.7502 H         1 UNK         0.0600 
    230 H230       -7.0988  -24.9071  -55.8371 H         1 UNK         0.3000 
    231 H231       -8.4426  -23.2266  -55.4240 H         1 UNK         0.0600 
    232 H232       -6.9924  -21.6344  -57.5995 H         1 UNK         0.0600 
    233 H233       -8.2742  -22.8104  -57.8907 H         1 UNK         0.0600 
    234 H234       -8.6125  -21.3456  -56.9846 H         1 UNK         0.0600 
    235 H235       -6.1558  -23.5192  -53.7966 H         1 UNK         0.3000 
    236 H236       -5.2002  -22.7115  -52.0163 H         1 UNK         0.0600 
    237 H237       -6.9420  -20.1995  -52.3018 H         1 UNK         0.0600 
    238 H238       -7.3981  -21.6762  -51.4536 H         1 UNK         0.0600 
    239 H239       -6.0778  -20.6847  -50.8637 H         1 UNK         0.0600 
    240 H240       -3.8441  -20.8901  -51.0674 H         1 UNK         0.3000 
    241 H241       -1.9885  -19.8074  -51.0008 H         1 UNK         0.0600 
    242 H242       -0.4948  -21.5510  -54.3445 H         1 UNK         0.3800 
    243 H243       -2.2338  -21.3895  -54.1523 H         1 UNK         0.3800 
    244 H244       -1.7306  -17.7912  -52.6771 H         1 UNK         0.0800 
    245 H245       -3.2765  -18.2789  -53.2948 H         1 UNK         0.0800 
    246 H246       -3.2739  -15.0872  -50.6848 H         1 UNK         0.0800 
    247 H247       -2.3139  -15.5579  -52.0590 H         1 UNK         0.0800 
@<TRIPOS>BOND
     1    1    2 1    
     2    1  127 1    
     3    1  128 1    
     4    1  129 1    
     5    2    3 2    
     6    2    4 am   BACKBONE|DICT|INTERRES
     7    4    5 1    
     8    4  130 1    
     9    5    6 1    
    10    5   65 1    
    11    5  131 1    
    12    6    7 1    
    13    6  132 1    
    14    6  133 1    
    15    7    8 1    
    16    8    9 1    
    17    8  134 1    
    18    8  135 1    
    19    9   10 ar   
    20    9   14 ar   
    21   10   11 ar   
    22   10  136 1    
    23   11   12 ar   
    24   11  126 1    
    25   12   13 ar   
    26   12  137 1    
    27   13   14 ar   
    28   13   15 1    
    29   14  138 1    
    30   15   16 1    
    31   15  139 1    
    32   15  140 1    
    33   16   17 1    
    34   17   18 1    
    35   17  141 1    
    36   17  142 1    
    37   18   19 1    
    38   18   67 1    
    39   18  143 1    
    40   19   20 am   BACKBONE|DICT|INTERRES
    41   19  144 1    
    42   20   21 2    
    43   20   22 1    
    44   22   23 1    
    45   22   24 1    
    46   22  145 1    
    47   23  146 1    
    48   23  147 1    
    49   23  148 1    
    50   24   25 am   BACKBONE|DICT|INTERRES
    51   24  149 1    
    52   25   26 2    
    53   25   27 1    
    54   27   28 1    
    55   27   29 1    
    56   27  150 1    
    57   28  151 1    
    58   28  152 1    
    59   28  153 1    
    60   29   30 am   BACKBONE|DICT|INTERRES
    61   29  154 1    
    62   30   31 2    
    63   30   32 1    
    64   32   33 1    
    65   32   34 1    
    66   32  155 1    
    67   33  156 1    
    68   33  157 1    
    69   33  158 1    
    70   34   35 am   BACKBONE|DICT|INTERRES
    71   34  159 1    
    72   35   36 2    
    73   35   37 1    
    74   37   38 1    
    75   37   39 1    
    76   37  160 1    
    77   38  161 1    
    78   38  162 1    
    79   38  163 1    
    80   39   40 am   BACKBONE|DICT|INTERRES
    81   39  164 1    
    82   40   41 2    
    83   40   42 1    
    84   42   43 1    
    85   42   44 1    
    86   42  165 1    
    87   43  166 1    
    88   43  167 1    
    89   43  168 1    
    90   44   45 am   BACKBONE|DICT|INTERRES
    91   44  169 1    
    92   45   46 2    
    93   45   47 1    
    94   47   48 1    
    95   47   49 1    
    96   47  170 1    
    97   48  171 1    
    98   48  172 1    
    99   48  173 1    
   100   49   50 am   BACKBONE|DICT|INTERRES
   101   49  174 1    
   102   50   51 2    
   103   50   52 1    
   104   52   53 1    
   105   52   54 1    
   106   52  175 1    
   107   53  176 1    
   108   53  177 1    
   109   53  178 1    
   110   54   55 am   BACKBONE|DICT|INTERRES
   111   54  179 1    
   112   55   56 2    
   113   55   57 1    
   114   57   58 1    
   115   57   59 1    
   116   57  180 1    
   117   58  181 1    
   118   58  182 1    
   119   58  183 1    
   120   59   60 am   BACKBONE|DICT|INTERRES
   121   59  184 1    
   122   60   61 2    
   123   60   62 1    
   124   62   63 1    
   125   62   64 1    
   126   62  185 1    
   127   63  186 1    
   128   63  187 1    
   129   63  188 1    
   130   64   65 am   BACKBONE|DICT|INTERRES
   131   64  189 1    
   132   65   66 2    
   133   67   68 2    
   134   67   69 am   BACKBONE|DICT|INTERRES
   135   69   70 1    
   136   69  190 1    
   137   70   71 1    
   138   70   72 1    
   139   70  191 1    
   140   71  192 1    
   141   71  193 1    
   142   71  194 1    
   143   72   73 2    
   144   72   74 am   BACKBONE|DICT|INTERRES
   145   74   75 1    
   146   74  195 1    
   147   75   76 1    
   148   75   77 1    
   149   75  196 1    
   150   76  197 1    
   151   76  198 1    
   152   76  199 1    
   153   77   78 2    
   154   77   79 am   BACKBONE|DICT|INTERRES
   155   79   80 1    
   156   79  200 1    
   157   80   81 1    
   158   80   82 1    
   159   80  201 1    
   160   81  202 1    
   161   81  203 1    
   162   81  204 1    
   163   82   83 2    
   164   82   84 am   BACKBONE|DICT|INTERRES
   165   84   85 1    
   166   84  205 1    
   167   85   86 1    
   168   85   87 1    
   169   85  206 1    
   170   86  207 1    
   171   86  208 1    
   172   86  209 1    
   173   87   88 2    
   174   87   89 am   BACKBONE|DICT|INTERRES
   175   89   90 1    
   176   89  210 1    
   177   90   91 1    
   178   90   92 1    
   179   90  211 1    
   180   91  212 1    
   181   91  213 1    
   182   91  214 1    
   183   92   93 2    
   184   92   94 am   BACKBONE|DICT|INTERRES
   185   94   95 1    
   186   94  215 1    
   187   95   96 1    
   188   95   97 1    
   189   95  216 1    
   190   96  217 1    
   191   96  218 1    
   192   96  219 1    
   193   97   98 2    
   194   97   99 am   BACKBONE|DICT|INTERRES
   195   99  100 1    
   196   99  220 1    
   197  100  101 1    
   198  100  102 1    
   199  100  221 1    
   200  101  222 1    
   201  101  223 1    
   202  101  224 1    
   203  102  103 2    
   204  102  104 am   BACKBONE|DICT|INTERRES
   205  104  105 1    
   206  104  225 1    
   207  105  106 1    
   208  105  107 1    
   209  105  226 1    
   210  106  227 1    
   211  106  228 1    
   212  106  229 1    
   213  107  108 2    
   214  107  109 am   BACKBONE|DICT|INTERRES
   215  109  110 1    
   216  109  230 1    
   217  110  111 1    
   218  110  112 1    
   219  110  231 1    
   220  111  232 1    
   221  111  233 1    
   222  111  234 1    
   223  112  113 2    
   224  112  114 am   BACKBONE|DICT|INTERRES
   225  114  115 1    
   226  114  235 1    
   227  115  116 1    
   228  115  117 1    
   229  115  236 1    
   230  116  237 1    
   231  116  238 1    
   232  116  239 1    
   233  117  118 2    
   234  117  119 am   BACKBONE|DICT|INTERRES
   235  119  120 1    
   236  119  240 1    
   237  120  121 1    
   238  120  124 1    
   239  120  241 1    
   240  121  122 am   BACKBONE|DICT|INTERRES
   241  121  123 2    
   242  122  242 1    
   243  122  243 1    
   244  124  125 1    
   245  124  244 1    
   246  124  245 1    
   247  125  126 1    
   248  126  246 1    
   249  126  247 1    
@<TRIPOS>SUBSTRUCTURE
     1 UNK         1 GROUP             0       ****    0 ROOT    
