@<TRIPOS>MOLECULE
3R540
247   249    1
SMALL
USER_CHARGES


@<TRIPOS>ATOM
      1 CA          3.6451  -15.3077  -48.0998 C.3       0 UNK        -0.1800 
      2 C           2.2922  -14.9779  -48.7144 C.2       0 UNK         0.5000 
      3 O           2.2091  -14.1097  -49.5819 O.2       0 UNK        -0.5000 
      4 N           1.2357  -15.6626  -48.2541 N.am      1 UNK        -0.5000 
      5 CA         -0.1596  -15.5652  -48.7198 C.3       1 UNK         0.1400 
      6 C6         -0.3459  -15.9098  -50.2224 C.3       23 UNK        -0.0398 
      7 S7          0.0763  -17.6482  -50.5608 S.3       23 UNK        -0.2404 
      8 C8          1.5142  -17.4927  -51.6566 C.3       23 UNK        -0.0205 
      9 C9          1.9668  -18.8556  -52.1606 C.ar      23 UNK        -0.0193 
     10 C10         1.3063  -19.4574  -53.2371 C.ar      23 UNK        -0.1150 
     11 C11         1.7292  -20.6956  -53.7307 C.ar      23 UNK        -0.0193 
     12 C12         2.8287  -21.3262  -53.1441 C.ar      23 UNK        -0.1150 
     13 C13         3.5041  -20.7325  -52.0738 C.ar      23 UNK        -0.0193 
     14 C14         3.0609  -19.5026  -51.5760 C.ar      23 UNK        -0.1150 
     15 C15         4.7519  -21.3971  -51.5120 C.3       23 UNK        -0.0205 
     16 S16         4.3725  -22.9105  -50.5764 S.3       23 UNK        -0.2404 
     17 C17         4.0757  -22.2600  -48.9001 C.3       23 UNK        -0.0398 
     18 CA          2.7895  -22.8473  -48.2640 C.3       11 UNK         0.1400 
     19 N           2.9767  -23.1595  -46.8431 N.am      11 UNK        -0.5000 
     20 C           2.1361  -23.9126  -46.1202 C.2       10 UNK         0.5000 
     21 O           1.1321  -24.4481  -46.5875 O.2       10 UNK        -0.5000 
     22 CA          2.4460  -24.0605  -44.6188 C.3       10 UNK         0.1400 
     23 CB          3.3371  -25.2868  -44.3730 C.3       10 UNK        -0.1800 
     24 N           3.0793  -22.8754  -44.0330 N.am      10 UNK        -0.5000 
     25 C           2.4961  -21.6747  -43.9236 C.2       9 UNK         0.5000 
     26 O           1.3670  -21.4207  -44.3472 O.2       9 UNK        -0.5000 
     27 CA          3.3377  -20.5624  -43.2846 C.3       9 UNK         0.1400 
     28 CB          3.7594  -19.5244  -44.3369 C.3       9 UNK        -0.1800 
     29 N           2.5828  -19.8926  -42.2303 N.am      9 UNK        -0.5000 
     30 C           2.6413  -20.2209  -40.9335 C.2       8 UNK         0.5000 
     31 O           3.2993  -21.1670  -40.4972 O.2       8 UNK        -0.5000 
     32 CA          1.8550  -19.3364  -39.9541 C.3       8 UNK         0.1400 
     33 CB          2.4638  -17.9251  -39.8819 C.3       8 UNK        -0.1800 
     34 N           0.4483  -19.2285  -40.3344 N.am      8 UNK        -0.5000 
     35 C          -0.5730  -19.7721  -39.6559 C.2       7 UNK         0.5000 
     36 O          -0.4271  -20.4907  -38.6660 O.2       7 UNK        -0.5000 
     37 CA         -2.0044  -19.4481  -40.1324 C.3       7 UNK         0.1400 
     38 CB         -2.7033  -18.5063  -39.1385 C.3       7 UNK        -0.1800 
     39 N          -2.0224  -18.8381  -41.4627 N.am      7 UNK        -0.5000 
     40 C          -2.0387  -19.5446  -42.6013 C.2       6 UNK         0.5000 
     41 O          -2.1744  -20.7667  -42.6307 O.2       6 UNK        -0.5000 
     42 CA         -1.8559  -18.7854  -43.9301 C.3       6 UNK         0.1400 
     43 CB         -3.1609  -18.7559  -44.7377 C.3       6 UNK        -0.1800 
     44 N          -1.3471  -17.4183  -43.7914 N.am      6 UNK        -0.5000 
     45 C          -0.1168  -17.0965  -43.3623 C.2       5 UNK         0.5000 
     46 O           0.7373  -17.9310  -43.0664 O.2       5 UNK        -0.5000 
     47 CA          0.1992  -15.5985  -43.1709 C.3       5 UNK         0.1400 
     48 CB          0.8262  -15.0325  -44.4530 C.3       5 UNK        -0.1800 
     49 N          -0.9676  -14.7884  -42.8069 N.am      5 UNK        -0.5000 
     50 C          -1.7918  -15.0309  -41.7755 C.2       4 UNK         0.5000 
     51 O          -1.5889  -15.9135  -40.9421 O.2       4 UNK        -0.5000 
     52 CA         -3.0914  -14.2054  -41.6859 C.3       4 UNK         0.1400 
     53 CB         -2.9751  -13.1415  -40.5843 C.3       4 UNK        -0.1800 
     54 N          -3.4920  -13.5512  -42.9348 N.am      4 UNK        -0.5000 
     55 C          -3.7271  -14.1440  -44.1148 C.2       3 UNK         0.5000 
     56 O          -3.6306  -15.3574  -44.3052 O.2       3 UNK        -0.5000 
     57 CA         -4.0774  -13.2160  -45.2959 C.3       3 UNK         0.1400 
     58 CB         -4.7454  -11.8929  -44.8617 C.3       3 UNK        -0.1800 
     59 N          -2.9207  -12.9358  -46.1547 N.am      3 UNK        -0.5000 
     60 C          -1.7257  -12.4427  -45.7974 C.2       2 UNK         0.5000 
     61 O          -1.3857  -12.2307  -44.6317 O.2       2 UNK        -0.5000 
     62 CA         -0.7359  -12.1730  -46.9484 C.3       2 UNK         0.1400 
     63 CB          0.4544  -11.3007  -46.5104 C.3       2 UNK        -0.1800 
     64 N          -0.2161  -13.4202  -47.5015 N.am      2 UNK        -0.5000 
     65 C          -0.8685  -14.2488  -48.3263 C.2       1 UNK         0.5000 
     66 O          -2.0124  -14.0302  -48.7299 O.2       1 UNK        -0.5000 
     67 C           1.5676  -21.9307  -48.4798 C.2       11 UNK         0.5000 
     68 O           0.7745  -22.1658  -49.3903 O.2       11 UNK        -0.5000 
     69 N           1.4036  -20.9426  -47.5879 N.am      12 UNK        -0.5000 
     70 CA          0.2518  -20.0445  -47.5628 C.3       12 UNK         0.1400 
     71 CB          0.5723  -18.8236  -46.6921 C.3       12 UNK        -0.1800 
     72 C          -1.0340  -20.7480  -47.0954 C.2       12 UNK         0.5000 
     73 O          -2.1132  -20.4129  -47.5833 O.2       12 UNK        -0.5000 
     74 N          -0.9001  -21.7283  -46.1902 N.am      13 UNK        -0.5000 
     75 CA         -1.9834  -22.6133  -45.7593 C.3       13 UNK         0.1400 
     76 CB         -1.5261  -23.4673  -44.5664 C.3       13 UNK        -0.1800 
     77 C          -2.4839  -23.5060  -46.9096 C.2       13 UNK         0.5000 
     78 O          -3.6938  -23.6211  -47.1016 O.2       13 UNK        -0.5000 
     79 N          -1.5472  -24.0765  -47.6829 N.am      14 UNK        -0.5000 
     80 CA         -1.8191  -24.8620  -48.8900 C.3       14 UNK         0.1400 
     81 CB         -0.5268  -25.5479  -49.3584 C.3       14 UNK        -0.1800 
     82 C          -2.4269  -24.0226  -50.0290 C.2       14 UNK         0.5000 
     83 O          -3.2463  -24.5328  -50.7927 O.2       14 UNK        -0.5000 
     84 N          -2.0286  -22.7480  -50.1215 N.am      15 UNK        -0.5000 
     85 CA         -2.6110  -21.7599  -51.0283 C.3       15 UNK         0.1400 
     86 CB         -1.6785  -20.5483  -51.1157 C.3       15 UNK        -0.1800 
     87 C          -4.0175  -21.3065  -50.6054 C.2       15 UNK         0.5000 
     88 O          -4.7790  -20.8626  -51.4628 O.2       15 UNK        -0.5000 
     89 N          -4.3197  -21.4092  -49.3031 N.am      16 UNK        -0.5000 
     90 CA         -5.4719  -20.8260  -48.6124 C.3       16 UNK         0.1400 
     91 CB         -6.7902  -21.4950  -49.0520 C.3       16 UNK        -0.1800 
     92 C          -5.4660  -19.2883  -48.7400 C.2       16 UNK         0.5000 
     93 O          -6.4821  -18.6777  -49.0784 O.2       16 UNK        -0.5000 
     94 N          -4.2822  -18.7059  -48.4954 N.am      17 UNK        -0.5000 
     95 CA         -3.9334  -17.2970  -48.6713 C.3       17 UNK         0.1400 
     96 CB         -4.6355  -16.4223  -47.6070 C.3       17 UNK        -0.1800 
     97 C          -4.1609  -16.8316  -50.1264 C.2       17 UNK         0.5000 
     98 O          -3.6510  -17.4634  -51.0533 O.2       17 UNK        -0.5000 
     99 N          -4.9205  -15.7431  -50.3034 N.am      18 UNK        -0.5000 
    100 CA        -5.1992  -15.0790  -51.5782 C.3       18 UNK         0.1400 
    101 CB        -5.8984  -13.7418  -51.2848 C.3       18 UNK        -0.1800 
    102 C         -6.0160  -15.9101  -52.5905 C.2       18 UNK         0.5000 
    103 O         -6.1108  -15.5036  -53.7497 O.2       18 UNK        -0.5000 
    104 N         -6.5865  -17.0463  -52.1609 N.am      19 UNK        -0.5000 
    105 CA        -7.2896  -17.9982  -53.0251 C.3       19 UNK         0.1400 
    106 CB        -7.9852  -19.0535  -52.1552 C.3       19 UNK        -0.1800 
    107 C         -6.3670  -18.6749  -54.0599 C.2       19 UNK         0.5000 
    108 O         -6.8332  -19.0006  -55.1524 O.2       19 UNK        -0.5000 
    109 N         -5.0834  -18.8420  -53.7032 N.am      20 UNK        -0.5000 
    110 CA        -3.9922  -19.3791  -54.5198 C.3       20 UNK         0.1400 
    111 CB        -3.5945  -18.3614  -55.6084 C.3       20 UNK        -0.1800 
    112 C         -4.2774  -20.7895  -55.0796 C.2       20 UNK         0.5000 
    113 O         -4.1582  -21.0104  -56.2863 O.2       20 UNK        -0.5000 
    114 N         -4.6641  -21.7121  -54.1863 N.am      21 UNK        -0.5000 
    115 CA        -4.8413  -23.1388  -54.4673 C.3       21 UNK         0.1400 
    116 CB        -5.5919  -23.8031  -53.3000 C.3       21 UNK        -0.1800 
    117 C         -3.4881  -23.8084  -54.7896 C.2       21 UNK         0.5000 
    118 O         -3.1571  -23.9288  -55.9686 O.2       21 UNK        -0.5000 
    119 N         -2.7326  -24.1897  -53.7460 N.am      22 UNK        -0.5000 
    120 CA        -1.2963  -24.5642  -53.6924 C.3       22 UNK         0.1400 
    121 C         -0.7149  -25.5983  -54.7091 C.2       22 UNK         0.5000 
    122 N         -1.4343  -26.0308  -55.7312 N.am      22 UNK        -0.7600 
    123 O          0.4088  -26.0613  -54.5326 O.2       22 UNK        -0.5000 
    124 C124       -0.3466  -23.3436  -53.4654 C.3       23 UNK        -0.0398 
    125 S125       -0.6489  -21.8942  -54.5398 S.3       23 UNK        -0.2404 
    126 C126        1.0339  -21.3266  -54.9296 C.3       23 UNK        -0.0205 
    127 H127        4.0783  -14.4167  -47.6450 H         1 UNK         0.0600 
    128 H128        4.3284  -15.6653  -48.8703 H         1 UNK         0.0600 
    129 H129        3.5667  -16.0776  -47.3314 H         1 UNK         0.0600 
    130 H130        1.3942  -16.3556  -47.5380 H         1 UNK         0.3000 
    131 H131       -0.6964  -16.3246  -48.1514 H         1 UNK         0.0600 
    132 H132       -1.3836  -15.7779  -50.5312 H         1 UNK         0.0800 
    133 H133        0.2370  -15.2441  -50.8595 H         1 UNK         0.0800 
    134 H134        2.3237  -16.9916  -51.1239 H         1 UNK         0.0800 
    135 H135        1.2582  -16.8562  -52.5049 H         1 UNK         0.0800 
    136 H136        0.4616  -18.9603  -53.6932 H         1 UNK         0.1150 
    137 H137        3.1761  -22.2734  -53.5323 H         1 UNK         0.1150 
    138 H138        3.5821  -19.0356  -50.7524 H         1 UNK         0.1150 
    139 H139        5.4074  -21.6626  -52.3426 H         1 UNK         0.0800 
    140 H140        5.3239  -20.7048  -50.8924 H         1 UNK         0.0800 
    141 H141        4.0673  -21.1683  -48.9048 H         1 UNK         0.0800 
    142 H142        4.9523  -22.5390  -48.3136 H         1 UNK         0.0800 
    143 H143        2.5616  -23.7972  -48.7538 H         1 UNK         0.0600 
    144 H144        3.7837  -22.7635  -46.3848 H         1 UNK         0.3000 
    145 H145        1.4985  -24.2206  -44.1010 H         1 UNK         0.0600 
    146 H146        3.4925  -25.4544  -43.3070 H         1 UNK         0.0600 
    147 H147        2.8789  -26.1898  -44.7787 H         1 UNK         0.0600 
    148 H148        4.3154  -25.1758  -44.8424 H         1 UNK         0.0600 
    149 H149        4.0106  -23.0026  -43.6631 H         1 UNK         0.3000 
    150 H150        4.2483  -20.9991  -42.8685 H         1 UNK         0.0600 
    151 H151        4.2824  -19.9954  -45.1701 H         1 UNK         0.0600 
    152 H152        4.4355  -18.7860  -43.9055 H         1 UNK         0.0600 
    153 H153        2.9037  -18.9866  -44.7430 H         1 UNK         0.0600 
    154 H154        1.9571  -19.1483  -42.5332 H         1 UNK         0.3000 
    155 H155        1.9506  -19.7836  -38.9621 H         1 UNK         0.0600 
    156 H156        2.3898  -17.3986  -40.8345 H         1 UNK         0.0600 
    157 H157        3.5195  -17.9681  -39.6107 H         1 UNK         0.0600 
    158 H158        1.9595  -17.3196  -39.1285 H         1 UNK         0.0600 
    159 H159        0.2514  -18.7011  -41.1758 H         1 UNK         0.3000 
    160 H160       -2.5658  -20.3847  -40.1506 H         1 UNK         0.0600 
    161 H161       -2.1423  -17.5830  -38.9922 H         1 UNK         0.0600 
    162 H162       -2.8070  -18.9807  -38.1618 H         1 UNK         0.0600 
    163 H163       -3.7047  -18.2422  -39.4792 H         1 UNK         0.0600 
    164 H164       -1.9098  -17.8299  -41.4950 H         1 UNK         0.3000 
    165 H165       -1.1245  -19.3608  -44.4951 H         1 UNK         0.0600 
    166 H166       -2.9828  -18.3676  -45.7396 H         1 UNK         0.0600 
    167 H167       -3.5806  -19.7555  -44.8526 H         1 UNK         0.0600 
    168 H168       -3.9178  -18.1335  -44.2596 H         1 UNK         0.0600 
    169 H169       -2.0095  -16.6728  -43.9802 H         1 UNK         0.3000 
    170 H170        0.9253  -15.5143  -42.3601 H         1 UNK         0.0600 
    171 H171        1.7310  -15.5797  -44.7218 H         1 UNK         0.0600 
    172 H172        0.1357  -15.1037  -45.2932 H         1 UNK         0.0600 
    173 H173        1.1030  -13.9853  -44.3299 H         1 UNK         0.0600 
    174 H174       -1.1985  -14.0185  -43.4247 H         1 UNK         0.3000 
    175 H175       -3.8895  -14.8978  -41.4117 H         1 UNK         0.0600 
    176 H176       -2.2113  -12.4000  -40.8226 H         1 UNK         0.0600 
    177 H177       -3.9200  -12.6175  -40.4393 H         1 UNK         0.0600 
    178 H178       -2.7070  -13.5943  -39.6286 H         1 UNK         0.0600 
    179 H179       -3.5391  -12.5430  -42.9068 H         1 UNK         0.3000 
    180 H180       -4.7992  -13.7600  -45.9062 H         1 UNK         0.0600 
    181 H181       -4.0591  -11.2361  -44.3261 H         1 UNK         0.0600 
    182 H182       -5.6036  -12.0786  -44.2143 H         1 UNK         0.0600 
    183 H183       -5.1122  -11.3432  -45.7286 H         1 UNK         0.0600 
    184 H184       -3.0379  -13.1654  -47.1357 H         1 UNK         0.3000 
    185 H185       -1.2740  -11.6335  -47.7309 H         1 UNK         0.0600 
    186 H186        1.0602  -11.7931  -45.7486 H         1 UNK         0.0600 
    187 H187        1.1037  -11.0687  -47.3550 H         1 UNK         0.0600 
    188 H188        0.1114  -10.3521  -46.0953 H         1 UNK         0.0600 
    189 H189        0.7150  -13.6819  -47.2144 H         1 UNK         0.3000 
    190 H190        2.0630  -20.8534  -46.8300 H         1 UNK         0.3000 
    191 H191        0.0783  -19.6960  -48.5802 H         1 UNK         0.0600 
    192 H192       -0.2744  -18.1381  -46.6501 H         1 UNK         0.0600 
    193 H193        1.4266  -18.2763  -47.0882 H         1 UNK         0.0600 
    194 H194        0.8097  -19.1140  -45.6702 H         1 UNK         0.0600 
    195 H195        0.0069  -21.8719  -45.7595 H         1 UNK         0.3000 
    196 H196       -2.8124  -21.9855  -45.4277 H         1 UNK         0.0600 
    197 H197       -2.3767  -23.9735  -44.1091 H         1 UNK         0.0600 
    198 H198       -1.0556  -22.8588  -43.7946 H         1 UNK         0.0600 
    199 H199       -0.8144  -24.2366  -44.8615 H         1 UNK         0.0600 
    200 H200       -0.5717  -23.9831  -47.4143 H         1 UNK         0.3000 
    201 H201       -2.5423  -25.6374  -48.6296 H         1 UNK         0.0600 
    202 H202       -0.1201  -26.1946  -48.5808 H         1 UNK         0.0600 
    203 H203        0.2421  -24.8223  -49.6246 H         1 UNK         0.0600 
    204 H204       -0.7098  -26.1691  -50.2361 H         1 UNK         0.0600 
    205 H205       -1.2629  -22.4340  -49.5349 H         1 UNK         0.3000 
    206 H206       -2.6903  -22.1931  -52.0231 H         1 UNK         0.0600 
    207 H207       -0.6657  -20.8337  -51.3997 H         1 UNK         0.0600 
    208 H208       -2.0318  -19.8296  -51.8541 H         1 UNK         0.0600 
    209 H209       -1.6245  -20.0237  -50.1637 H         1 UNK         0.0600 
    210 H210       -3.6030  -21.7809  -48.6933 H         1 UNK         0.3000 
    211 H211       -5.3339  -21.0420  -47.5518 H         1 UNK         0.0600 
    212 H212       -6.9924  -21.3542  -50.1125 H         1 UNK         0.0600 
    213 H213       -7.6378  -21.0881  -48.4998 H         1 UNK         0.0600 
    214 H214       -6.7632  -22.5679  -48.8610 H         1 UNK         0.0600 
    215 H215       -3.5068  -19.3164  -48.2472 H         1 UNK         0.3000 
    216 H216       -2.8594  -17.2311  -48.4982 H         1 UNK         0.0600 
    217 H217       -4.2859  -15.3909  -47.6562 H         1 UNK         0.0600 
    218 H218       -4.4225  -16.7770  -46.5998 H         1 UNK         0.0600 
    219 H219       -5.7198  -16.4177  -47.7252 H         1 UNK         0.0600 
    220 H220       -5.3178  -15.3079  -49.4841 H         1 UNK         0.3000 
    221 H221       -4.2385  -14.8634  -52.0505 H         1 UNK         0.0600 
    222 H222       -6.8593  -13.8917  -50.7907 H         1 UNK         0.0600 
    223 H223       -5.2848  -13.1075  -50.6444 H         1 UNK         0.0600 
    224 H224       -6.0855  -13.1851  -52.2043 H         1 UNK         0.0600 
    225 H225       -6.4607  -17.3172  -51.1944 H         1 UNK         0.3000 
    226 H226       -8.0574  -17.4491  -53.5741 H         1 UNK         0.0600 
    227 H227       -7.2588  -19.6325  -51.5868 H         1 UNK         0.0600 
    228 H228       -8.6767  -18.5947  -51.4483 H         1 UNK         0.0600 
    229 H229       -8.5563  -19.7525  -52.7673 H         1 UNK         0.0600 
    230 H230       -4.8217  -18.5716  -52.7622 H         1 UNK         0.3000 
    231 H231       -3.1366  -19.4875  -53.8535 H         1 UNK         0.0600 
    232 H232       -2.7160  -18.7015  -56.1582 H         1 UNK         0.0600 
    233 H233       -3.3484  -17.3940  -55.1703 H         1 UNK         0.0600 
    234 H234       -4.3966  -18.2076  -56.3310 H         1 UNK         0.0600 
    235 H235       -4.7780  -21.4170  -53.2188 H         1 UNK         0.3000 
    236 H236       -5.4680  -23.2345  -55.3564 H         1 UNK         0.0600 
    237 H237       -6.6149  -23.4315  -53.2376 H         1 UNK         0.0600 
    238 H238       -5.6476  -24.8846  -53.4305 H         1 UNK         0.0600 
    239 H239       -5.1183  -23.6069  -52.3396 H         1 UNK         0.0600 
    240 H240       -3.1629  -24.1466  -52.8292 H         1 UNK         0.3000 
    241 H241       -1.2466  -25.1319  -52.7626 H         1 UNK         0.0600 
    242 H242       -1.0539  -26.7101  -56.3705 H         1 UNK         0.3800 
    243 H243       -2.2881  -25.5279  -55.9579 H         1 UNK         0.3800 
    244 H244       -0.4435  -23.0022  -52.4363 H         1 UNK         0.0800 
    245 H245        0.7002  -23.6401  -53.5475 H         1 UNK         0.0800 
    246 H246        0.9746  -20.5882  -55.7302 H         1 UNK         0.0800 
    247 H247        1.6141  -22.1601  -55.3286 H         1 UNK         0.0800 
@<TRIPOS>BOND
     1    1    2 1    
     2    1  127 1    
     3    1  128 1    
     4    1  129 1    
     5    2    3 2    
     6    2    4 am   BACKBONE|DICT|INTERRES
     7    4    5 1    
     8    4  130 1    
     9    5    6 1    
    10    5   65 1    
    11    5  131 1    
    12    6    7 1    
    13    6  132 1    
    14    6  133 1    
    15    7    8 1    
    16    8    9 1    
    17    8  134 1    
    18    8  135 1    
    19    9   10 ar   
    20    9   14 ar   
    21   10   11 ar   
    22   10  136 1    
    23   11   12 ar   
    24   11  126 1    
    25   12   13 ar   
    26   12  137 1    
    27   13   14 ar   
    28   13   15 1    
    29   14  138 1    
    30   15   16 1    
    31   15  139 1    
    32   15  140 1    
    33   16   17 1    
    34   17   18 1    
    35   17  141 1    
    36   17  142 1    
    37   18   19 1    
    38   18   67 1    
    39   18  143 1    
    40   19   20 am   BACKBONE|DICT|INTERRES
    41   19  144 1    
    42   20   21 2    
    43   20   22 1    
    44   22   23 1    
    45   22   24 1    
    46   22  145 1    
    47   23  146 1    
    48   23  147 1    
    49   23  148 1    
    50   24   25 am   BACKBONE|DICT|INTERRES
    51   24  149 1    
    52   25   26 2    
    53   25   27 1    
    54   27   28 1    
    55   27   29 1    
    56   27  150 1    
    57   28  151 1    
    58   28  152 1    
    59   28  153 1    
    60   29   30 am   BACKBONE|DICT|INTERRES
    61   29  154 1    
    62   30   31 2    
    63   30   32 1    
    64   32   33 1    
    65   32   34 1    
    66   32  155 1    
    67   33  156 1    
    68   33  157 1    
    69   33  158 1    
    70   34   35 am   BACKBONE|DICT|INTERRES
    71   34  159 1    
    72   35   36 2    
    73   35   37 1    
    74   37   38 1    
    75   37   39 1    
    76   37  160 1    
    77   38  161 1    
    78   38  162 1    
    79   38  163 1    
    80   39   40 am   BACKBONE|DICT|INTERRES
    81   39  164 1    
    82   40   41 2    
    83   40   42 1    
    84   42   43 1    
    85   42   44 1    
    86   42  165 1    
    87   43  166 1    
    88   43  167 1    
    89   43  168 1    
    90   44   45 am   BACKBONE|DICT|INTERRES
    91   44  169 1    
    92   45   46 2    
    93   45   47 1    
    94   47   48 1    
    95   47   49 1    
    96   47  170 1    
    97   48  171 1    
    98   48  172 1    
    99   48  173 1    
   100   49   50 am   BACKBONE|DICT|INTERRES
   101   49  174 1    
   102   50   51 2    
   103   50   52 1    
   104   52   53 1    
   105   52   54 1    
   106   52  175 1    
   107   53  176 1    
   108   53  177 1    
   109   53  178 1    
   110   54   55 am   BACKBONE|DICT|INTERRES
   111   54  179 1    
   112   55   56 2    
   113   55   57 1    
   114   57   58 1    
   115   57   59 1    
   116   57  180 1    
   117   58  181 1    
   118   58  182 1    
   119   58  183 1    
   120   59   60 am   BACKBONE|DICT|INTERRES
   121   59  184 1    
   122   60   61 2    
   123   60   62 1    
   124   62   63 1    
   125   62   64 1    
   126   62  185 1    
   127   63  186 1    
   128   63  187 1    
   129   63  188 1    
   130   64   65 am   BACKBONE|DICT|INTERRES
   131   64  189 1    
   132   65   66 2    
   133   67   68 2    
   134   67   69 am   BACKBONE|DICT|INTERRES
   135   69   70 1    
   136   69  190 1    
   137   70   71 1    
   138   70   72 1    
   139   70  191 1    
   140   71  192 1    
   141   71  193 1    
   142   71  194 1    
   143   72   73 2    
   144   72   74 am   BACKBONE|DICT|INTERRES
   145   74   75 1    
   146   74  195 1    
   147   75   76 1    
   148   75   77 1    
   149   75  196 1    
   150   76  197 1    
   151   76  198 1    
   152   76  199 1    
   153   77   78 2    
   154   77   79 am   BACKBONE|DICT|INTERRES
   155   79   80 1    
   156   79  200 1    
   157   80   81 1    
   158   80   82 1    
   159   80  201 1    
   160   81  202 1    
   161   81  203 1    
   162   81  204 1    
   163   82   83 2    
   164   82   84 am   BACKBONE|DICT|INTERRES
   165   84   85 1    
   166   84  205 1    
   167   85   86 1    
   168   85   87 1    
   169   85  206 1    
   170   86  207 1    
   171   86  208 1    
   172   86  209 1    
   173   87   88 2    
   174   87   89 am   BACKBONE|DICT|INTERRES
   175   89   90 1    
   176   89  210 1    
   177   90   91 1    
   178   90   92 1    
   179   90  211 1    
   180   91  212 1    
   181   91  213 1    
   182   91  214 1    
   183   92   93 2    
   184   92   94 am   BACKBONE|DICT|INTERRES
   185   94   95 1    
   186   94  215 1    
   187   95   96 1    
   188   95   97 1    
   189   95  216 1    
   190   96  217 1    
   191   96  218 1    
   192   96  219 1    
   193   97   98 2    
   194   97   99 am   BACKBONE|DICT|INTERRES
   195   99  100 1    
   196   99  220 1    
   197  100  101 1    
   198  100  102 1    
   199  100  221 1    
   200  101  222 1    
   201  101  223 1    
   202  101  224 1    
   203  102  103 2    
   204  102  104 am   BACKBONE|DICT|INTERRES
   205  104  105 1    
   206  104  225 1    
   207  105  106 1    
   208  105  107 1    
   209  105  226 1    
   210  106  227 1    
   211  106  228 1    
   212  106  229 1    
   213  107  108 2    
   214  107  109 am   BACKBONE|DICT|INTERRES
   215  109  110 1    
   216  109  230 1    
   217  110  111 1    
   218  110  112 1    
   219  110  231 1    
   220  111  232 1    
   221  111  233 1    
   222  111  234 1    
   223  112  113 2    
   224  112  114 am   BACKBONE|DICT|INTERRES
   225  114  115 1    
   226  114  235 1    
   227  115  116 1    
   228  115  117 1    
   229  115  236 1    
   230  116  237 1    
   231  116  238 1    
   232  116  239 1    
   233  117  118 2    
   234  117  119 am   BACKBONE|DICT|INTERRES
   235  119  120 1    
   236  119  240 1    
   237  120  121 1    
   238  120  124 1    
   239  120  241 1    
   240  121  122 am   BACKBONE|DICT|INTERRES
   241  121  123 2    
   242  122  242 1    
   243  122  243 1    
   244  124  125 1    
   245  124  244 1    
   246  124  245 1    
   247  125  126 1    
   248  126  246 1    
   249  126  247 1    
@<TRIPOS>SUBSTRUCTURE
     1 UNK         1 GROUP             0       ****    0 ROOT    
