@<TRIPOS>MOLECULE
3R540
247   249    1
SMALL
USER_CHARGES


@<TRIPOS>ATOM
      1 CA          4.3178  -16.2898  -47.1413 C.3       0 UNK        -0.1800 
      2 C           3.1930  -15.3398  -46.7595 C.2       0 UNK         0.5000 
      3 O           3.1812  -14.8180  -45.6458 O.2       0 UNK        -0.5000 
      4 N           2.2529  -15.1013  -47.6833 N.am      1 UNK        -0.5000 
      5 CA          1.0166  -14.3345  -47.4647 C.3       1 UNK         0.1400 
      6 C6          0.0572  -14.4027  -48.6801 C.3       23 UNK        -0.0398 
      7 S7         -0.3278  -16.1121  -49.1846 S.3       23 UNK        -0.2404 
      8 C8          0.5115  -16.2116  -50.7961 C.3       23 UNK        -0.0205 
      9 C9          0.6446  -17.6554  -51.2514 C.ar      23 UNK        -0.0193 
     10 C10        -0.0786  -18.1349  -52.3474 C.ar      23 UNK        -0.1150 
     11 C11         0.0675  -19.4625  -52.7606 C.ar      23 UNK        -0.0193 
     12 C12         0.9110  -20.3177  -52.0461 C.ar      23 UNK        -0.1150 
     13 C13         1.6354  -19.8565  -50.9434 C.ar      23 UNK        -0.0193 
     14 C14         1.5133  -18.5123  -50.5713 C.ar      23 UNK        -0.1150 
     15 C15         2.5478  -20.8421  -50.2116 C.3       23 UNK        -0.0205 
     16 S16         3.1554  -20.3230  -48.5671 S.3       23 UNK        -0.2404 
     17 C17         1.6173  -20.1644  -47.5967 C.3       23 UNK        -0.0398 
     18 CA          1.1771  -21.5005  -46.9439 C.3       11 UNK         0.1400 
     19 N           0.7709  -21.3417  -45.5452 N.am      11 UNK        -0.5000 
     20 C           0.5462  -22.3597  -44.7021 C.2       10 UNK         0.5000 
     21 O           0.7031  -23.5431  -45.0044 O.2       10 UNK        -0.5000 
     22 CA          0.0118  -21.9999  -43.3034 C.3       10 UNK         0.1400 
     23 CB          1.1522  -21.5528  -42.3770 C.3       10 UNK        -0.1800 
     24 N          -1.0264  -20.9685  -43.3469 N.am      10 UNK        -0.5000 
     25 C          -2.2200  -21.1269  -43.9367 C.2       9 UNK         0.5000 
     26 O          -2.5868  -22.1791  -44.4589 O.2       9 UNK        -0.5000 
     27 CA         -3.1432  -19.8965  -43.9947 C.3       9 UNK         0.1400 
     28 CB         -3.8969  -19.7129  -42.6693 C.3       9 UNK        -0.1800 
     29 N          -2.4305  -18.6641  -44.3302 N.am      9 UNK        -0.5000 
     30 C          -1.7795  -18.4440  -45.4819 C.2       8 UNK         0.5000 
     31 O          -1.7252  -19.2522  -46.4078 O.2       8 UNK        -0.5000 
     32 CA         -1.0140  -17.1144  -45.5916 C.3       8 UNK         0.1400 
     33 CB         -1.9942  -15.9535  -45.8424 C.3       8 UNK        -0.1800 
     34 N          -0.1998  -16.8468  -44.4034 N.am      8 UNK        -0.5000 
     35 C           0.7820  -17.6453  -43.9548 C.2       7 UNK         0.5000 
     36 O           1.1561  -18.6618  -44.5367 O.2       7 UNK        -0.5000 
     37 CA          1.4009  -17.2995  -42.5900 C.3       7 UNK         0.1400 
     38 CB          2.5139  -16.2523  -42.7249 C.3       7 UNK        -0.1800 
     39 N           0.3909  -16.8371  -41.6401 N.am      7 UNK        -0.5000 
     40 C          -0.5504  -17.6248  -41.1003 C.2       6 UNK         0.5000 
     41 O          -0.6267  -18.8363  -41.3034 O.2       6 UNK        -0.5000 
     42 CA         -1.6099  -16.9293  -40.2260 C.3       6 UNK         0.1400 
     43 CB         -1.0968  -16.7536  -38.7892 C.3       6 UNK        -0.1800 
     44 N          -2.0011  -15.6253  -40.7647 N.am      6 UNK        -0.5000 
     45 C          -2.6659  -15.4517  -41.9164 C.2       5 UNK         0.5000 
     46 O          -3.0882  -16.3815  -42.6025 O.2       5 UNK        -0.5000 
     47 CA         -2.8375  -13.9999  -42.4072 C.3       5 UNK         0.1400 
     48 CB         -4.1357  -13.3931  -41.8554 C.3       5 UNK        -0.1800 
     49 N          -1.7042  -13.1429  -42.0423 N.am      5 UNK        -0.5000 
     50 C          -0.4616  -13.2955  -42.5183 C.2       4 UNK         0.5000 
     51 O          -0.1554  -14.1335  -43.3695 O.2       4 UNK        -0.5000 
     52 CA          0.6284  -12.4346  -41.8674 C.3       4 UNK         0.1400 
     53 CB          0.9794  -13.0155  -40.4796 C.3       4 UNK        -0.1800 
     54 N           1.8087  -12.4158  -42.7291 N.am      4 UNK        -0.5000 
     55 C           2.9056  -11.6721  -42.5379 C.2       3 UNK         0.5000 
     56 O           3.0341  -10.8612  -41.6196 O.2       3 UNK        -0.5000 
     57 CA          4.0540  -11.8539  -43.5445 C.3       3 UNK         0.1400 
     58 CB          4.8570  -13.1281  -43.2409 C.3       3 UNK        -0.1800 
     59 N           3.5867  -11.8790  -44.9306 N.am      3 UNK        -0.5000 
     60 C           3.2283  -10.7797  -45.6122 C.2       2 UNK         0.5000 
     61 O           3.2333   -9.6482  -45.1251 O.2       2 UNK        -0.5000 
     62 CA          2.8211  -10.9471  -47.0900 C.3       2 UNK         0.1400 
     63 CB          3.9805  -10.5422  -48.0138 C.3       2 UNK        -0.1800 
     64 N           2.4031  -12.3048  -47.4321 N.am      2 UNK        -0.5000 
     65 C           1.2449  -12.8631  -47.0583 C.2       1 UNK         0.5000 
     66 O           0.3783  -12.2687  -46.4169 O.2       1 UNK        -0.5000 
     67 C           0.0815  -22.2001  -47.7735 C.2       11 UNK         0.5000 
     68 O           0.3903  -23.1227  -48.5249 O.2       11 UNK        -0.5000 
     69 N          -1.1806  -21.7897  -47.5849 N.am      12 UNK        -0.5000 
     70 CA         -2.3554  -22.3938  -48.2138 C.3       12 UNK         0.1400 
     71 CB         -3.6034  -21.5661  -47.8722 C.3       12 UNK        -0.1800 
     72 C          -2.5524  -23.8710  -47.8243 C.2       12 UNK         0.5000 
     73 O          -2.8575  -24.6945  -48.6867 O.2       12 UNK        -0.5000 
     74 N          -2.3299  -24.1952  -46.5428 N.am      13 UNK        -0.5000 
     75 CA         -2.3492  -25.5630  -46.0236 C.3       13 UNK         0.1400 
     76 CB         -2.2653  -25.5377  -44.4901 C.3       13 UNK        -0.1800 
     77 C          -1.2357  -26.4427  -46.6235 C.2       13 UNK         0.5000 
     78 O          -1.4952  -27.6004  -46.9525 O.2       13 UNK        -0.5000 
     79 N          -0.0327  -25.8734  -46.7867 N.am      14 UNK        -0.5000 
     80 CA          1.1114  -26.5234  -47.4293 C.3       14 UNK         0.1400 
     81 CB          2.3866  -25.7118  -47.1533 C.3       14 UNK        -0.1800 
     82 C           0.9053  -26.7312  -48.9428 C.2       14 UNK         0.5000 
     83 O           1.2447  -27.7957  -49.4611 O.2       14 UNK        -0.5000 
     84 N           0.3370  -25.7228  -49.6183 N.am      15 UNK        -0.5000 
     85 CA         -0.0127  -25.7508  -51.0410 C.3       15 UNK         0.1400 
     86 CB         -0.3127  -24.3174  -51.5106 C.3       15 UNK        -0.1800 
     87 C          -1.2053  -26.6736  -51.3612 C.2       15 UNK         0.5000 
     88 O          -1.3227  -27.1307  -52.4987 O.2       15 UNK        -0.5000 
     89 N          -2.0635  -26.9132  -50.3591 N.am      16 UNK        -0.5000 
     90 CA         -3.3263  -27.6549  -50.4097 C.3       16 UNK         0.1400 
     91 CB         -3.0914  -29.1388  -50.7612 C.3       16 UNK        -0.1800 
     92 C          -4.3766  -26.9670  -51.3083 C.2       16 UNK         0.5000 
     93 O          -5.1528  -27.6412  -51.9883 O.2       16 UNK        -0.5000 
     94 N          -4.3838  -25.6302  -51.2864 N.am      17 UNK        -0.5000 
     95 CA         -5.2799  -24.7585  -52.0372 C.3       17 UNK         0.1400 
     96 CB         -4.8199  -24.6571  -53.5025 C.3       17 UNK        -0.1800 
     97 C          -5.2674  -23.3811  -51.3662 C.2       17 UNK         0.5000 
     98 O          -4.2323  -22.9850  -50.8300 O.2       17 UNK        -0.5000 
     99 N          -6.4051  -22.6758  -51.4042 N.am      18 UNK        -0.5000 
    100 CA        -6.5681  -21.3398  -50.8262 C.3       18 UNK         0.1400 
    101 CB        -8.0355  -20.9061  -50.9641 C.3       18 UNK        -0.1800 
    102 C         -5.6405  -20.3044  -51.4863 C.2       18 UNK         0.5000 
    103 O         -5.4887  -20.3247  -52.7089 O.2       18 UNK        -0.5000 
    104 N         -5.0826  -19.3955  -50.6751 N.am      19 UNK        -0.5000 
    105 CA        -4.0957  -18.3837  -51.0747 C.3       19 UNK         0.1400 
    106 CB        -3.6854  -17.5761  -49.8338 C.3       19 UNK        -0.1800 
    107 C         -4.5567  -17.4355  -52.2009 C.2       19 UNK         0.5000 
    108 O         -3.7248  -16.9512  -52.9678 O.2       19 UNK        -0.5000 
    109 N         -5.8715  -17.1927  -52.2783 N.am      20 UNK        -0.5000 
    110 CA        -6.5094  -16.3925  -53.3229 C.3       20 UNK         0.1400 
    111 CB        -7.7892  -15.7681  -52.7441 C.3       20 UNK        -0.1800 
    112 C         -6.8386  -17.2047  -54.5923 C.2       20 UNK         0.5000 
    113 O         -7.0893  -16.5995  -55.6356 O.2       20 UNK        -0.5000 
    114 N         -6.8675  -18.5408  -54.4883 N.am      21 UNK        -0.5000 
    115 CA        -7.2032  -19.4500  -55.5827 C.3       21 UNK         0.1400 
    116 CB        -7.9826  -20.6557  -55.0318 C.3       21 UNK        -0.1800 
    117 C         -5.9477  -19.9133  -56.3365 C.2       21 UNK         0.5000 
    118 O         -5.9716  -19.9610  -57.5677 O.2       21 UNK        -0.5000 
    119 N         -4.8813  -20.2513  -55.5987 N.am      22 UNK        -0.5000 
    120 CA        -3.5816  -20.6412  -56.1650 C.3       22 UNK         0.1400 
    121 C         -2.7939  -19.4612  -56.8072 C.2       22 UNK         0.5000 
    122 N         -1.7973  -19.7554  -57.6325 N.am      22 UNK        -0.7600 
    123 O         -3.0565  -18.2862  -56.5604 O.2       22 UNK        -0.5000 
    124 C124       -2.7275  -21.4681  -55.1672 C.3       23 UNK        -0.0398 
    125 S125       -2.2966  -20.6296  -53.6031 S.3       23 UNK        -0.2404 
    126 C126       -0.6509  -19.9705  -53.9996 C.3       23 UNK        -0.0205 
    127 H127        5.2788  -15.7802  -47.0742 H         1 UNK         0.0600 
    128 H128        4.2013  -16.6703  -48.1565 H         1 UNK         0.0600 
    129 H129        4.3324  -17.1409  -46.4604 H         1 UNK         0.0600 
    130 H130        2.3223  -15.5571  -48.5807 H         1 UNK         0.3000 
    131 H131        0.5263  -14.8053  -46.6140 H         1 UNK         0.0600 
    132 H132        0.4697  -13.8548  -49.5292 H         1 UNK         0.0800 
    133 H133       -0.8898  -13.9160  -48.4394 H         1 UNK         0.0800 
    134 H134       -0.0443  -15.6221  -51.5270 H         1 UNK         0.0800 
    135 H135        1.5061  -15.7690  -50.7282 H         1 UNK         0.0800 
    136 H136       -0.7443  -17.4757  -52.8876 H         1 UNK         0.1150 
    137 H137        1.0127  -21.3473  -52.3597 H         1 UNK         0.1150 
    138 H138        2.0761  -18.1204  -49.7373 H         1 UNK         0.1150 
    139 H139        2.0381  -21.8001  -50.1070 H         1 UNK         0.0800 
    140 H140        3.4157  -21.0302  -50.8445 H         1 UNK         0.0800 
    141 H141        0.8224  -19.7110  -48.1914 H         1 UNK         0.0800 
    142 H142        1.8439  -19.4247  -46.8308 H         1 UNK         0.0800 
    143 H143        2.0358  -22.1754  -46.9243 H         1 UNK         0.0600 
    144 H144        0.6634  -20.3897  -45.2050 H         1 UNK         0.3000 
    145 H145       -0.4338  -22.9014  -42.8779 H         1 UNK         0.0600 
    146 H146        0.7867  -21.3549  -41.3692 H         1 UNK         0.0600 
    147 H147        1.9173  -22.3263  -42.3003 H         1 UNK         0.0600 
    148 H148        1.6372  -20.6472  -42.7406 H         1 UNK         0.0600 
    149 H149       -0.8171  -20.0871  -42.8897 H         1 UNK         0.3000 
    150 H150       -3.8807  -20.0729  -44.7798 H         1 UNK         0.0600 
    151 H151       -4.4620  -20.6102  -42.4143 H         1 UNK         0.0600 
    152 H152       -4.6063  -18.8874  -42.7310 H         1 UNK         0.0600 
    153 H153       -3.2168  -19.5068  -41.8428 H         1 UNK         0.0600 
    154 H154       -2.4610  -17.9194  -43.6399 H         1 UNK         0.3000 
    155 H155       -0.3303  -17.1861  -46.4389 H         1 UNK         0.0600 
    156 H156       -1.5138  -14.9801  -45.7580 H         1 UNK         0.0600 
    157 H157       -2.4201  -16.0235  -46.8438 H         1 UNK         0.0600 
    158 H158       -2.8281  -15.9621  -45.1421 H         1 UNK         0.0600 
    159 H159       -0.3929  -15.9878  -43.8978 H         1 UNK         0.3000 
    160 H160        1.8498  -18.2103  -42.1885 H         1 UNK         0.0600 
    161 H161        2.1413  -15.3163  -43.1371 H         1 UNK         0.0600 
    162 H162        3.3013  -16.6077  -43.3908 H         1 UNK         0.0600 
    163 H163        2.9750  -16.0355  -41.7614 H         1 UNK         0.0600 
    164 H164        0.3563  -15.8460  -41.4610 H         1 UNK         0.3000 
    165 H165       -2.4947  -17.5690  -40.1992 H         1 UNK         0.0600 
    166 H166       -1.8658  -16.3257  -38.1458 H         1 UNK         0.0600 
    167 H167       -0.8108  -17.7138  -38.3576 H         1 UNK         0.0600 
    168 H168       -0.2231  -16.1018  -38.7480 H         1 UNK         0.0600 
    169 H169       -1.7063  -14.8099  -40.2494 H         1 UNK         0.3000 
    170 H170       -2.9074  -14.0239  -43.4966 H         1 UNK         0.0600 
    171 H171       -4.9981  -14.0013  -42.1317 H         1 UNK         0.0600 
    172 H172       -4.1185  -13.3228  -40.7672 H         1 UNK         0.0600 
    173 H173       -4.3041  -12.3928  -42.2547 H         1 UNK         0.0600 
    174 H174       -1.8815  -12.4342  -41.3447 H         1 UNK         0.3000 
    175 H175        0.2514  -11.4156  -41.7622 H         1 UNK         0.0600 
    176 H176        0.0946  -13.1057  -39.8485 H         1 UNK         0.0600 
    177 H177        1.4280  -14.0062  -40.5613 H         1 UNK         0.0600 
    178 H178        1.6805  -12.3792  -39.9406 H         1 UNK         0.0600 
    179 H179        1.7525  -13.0374  -43.5272 H         1 UNK         0.3000 
    180 H180        4.7334  -11.0067  -43.4268 H         1 UNK         0.0600 
    181 H181        4.2458  -14.0248  -43.3330 H         1 UNK         0.0600 
    182 H182        5.2528  -13.1060  -42.2248 H         1 UNK         0.0600 
    183 H183        5.7045  -13.2311  -43.9186 H         1 UNK         0.0600 
    184 H184        3.5190  -12.7893  -45.3733 H         1 UNK         0.3000 
    185 H185        1.9842  -10.2711  -47.2779 H         1 UNK         0.0600 
    186 H186        4.3022   -9.5194  -47.8128 H         1 UNK         0.0600 
    187 H187        4.8471  -11.1909  -47.8797 H         1 UNK         0.0600 
    188 H188        3.6848  -10.5875  -49.0621 H         1 UNK         0.0600 
    189 H189        3.0626  -12.8694  -47.9474 H         1 UNK         0.3000 
    190 H190       -1.3530  -20.9865  -46.9845 H         1 UNK         0.3000 
    191 H191       -2.2021  -22.3526  -49.2935 H         1 UNK         0.0600 
    192 H192       -3.7650  -21.5041  -46.7968 H         1 UNK         0.0600 
    193 H193       -4.4972  -22.0097  -48.3101 H         1 UNK         0.0600 
    194 H194       -3.5173  -20.5509  -48.2585 H         1 UNK         0.0600 
    195 H195       -2.1464  -23.4532  -45.8735 H         1 UNK         0.3000 
    196 H196       -3.3069  -26.0085  -46.3008 H         1 UNK         0.0600 
    197 H197       -2.3048  -26.5477  -44.0803 H         1 UNK         0.0600 
    198 H198       -3.0966  -24.9790  -44.0598 H         1 UNK         0.0600 
    199 H199       -1.3398  -25.0785  -44.1431 H         1 UNK         0.0600 
    200 H200        0.1095  -24.9276  -46.4486 H         1 UNK         0.3000 
    201 H201        1.2362  -27.5081  -46.9741 H         1 UNK         0.0600 
    202 H202        2.5665  -25.6134  -46.0826 H         1 UNK         0.0600 
    203 H203        2.3283  -24.7082  -47.5744 H         1 UNK         0.0600 
    204 H204        3.2603  -26.1991  -47.5875 H         1 UNK         0.0600 
    205 H205        0.1636  -24.8473  -49.1283 H         1 UNK         0.3000 
    206 H206        0.8512  -26.1202  -51.5972 H         1 UNK         0.0600 
    207 H207        0.5416  -23.6609  -51.3460 H         1 UNK         0.0600 
    208 H208       -0.5426  -24.2920  -52.5765 H         1 UNK         0.0600 
    209 H209       -1.1673  -23.8925  -50.9823 H         1 UNK         0.0600 
    210 H210       -1.9039  -26.4099  -49.4942 H         1 UNK         0.3000 
    211 H211       -3.7299  -27.6202  -49.3968 H         1 UNK         0.0600 
    212 H212       -2.7564  -29.2660  -51.7908 H         1 UNK         0.0600 
    213 H213       -4.0087  -29.7166  -50.6438 H         1 UNK         0.0600 
    214 H214       -2.3422  -29.5839  -50.1062 H         1 UNK         0.0600 
    215 H215       -3.7531  -25.1391  -50.6578 H         1 UNK         0.3000 
    216 H216       -6.2935  -25.1623  -51.9951 H         1 UNK         0.0600 
    217 H217       -3.7828  -24.3263  -53.5687 H         1 UNK         0.0600 
    218 H218       -5.4310  -23.9449  -54.0587 H         1 UNK         0.0600 
    219 H219       -4.8962  -25.6184  -54.0104 H         1 UNK         0.0600 
    220 H220       -7.2032  -23.0544  -51.8919 H         1 UNK         0.3000 
    221 H221       -6.3259  -21.4042  -49.7640 H         1 UNK         0.0600 
    222 H222       -8.7025  -21.6030  -50.4562 H         1 UNK         0.0600 
    223 H223       -8.3433  -20.8483  -52.0084 H         1 UNK         0.0600 
    224 H224       -8.1970  -19.9229  -50.5202 H         1 UNK         0.0600 
    225 H225       -5.2887  -19.4391  -49.6883 H         1 UNK         0.3000 
    226 H226       -3.2119  -18.9100  -51.4379 H         1 UNK         0.0600 
    227 H227       -3.1661  -18.2004  -49.1060 H         1 UNK         0.0600 
    228 H228       -3.0077  -16.7670  -50.1058 H         1 UNK         0.0600 
    229 H229       -4.5475  -17.1252  -49.3413 H         1 UNK         0.0600 
    230 H230       -6.4798  -17.6226  -51.5975 H         1 UNK         0.3000 
    231 H231       -5.8399  -15.5809  -53.6159 H         1 UNK         0.0600 
    232 H232       -8.5054  -16.5306  -52.4350 H         1 UNK         0.0600 
    233 H233       -8.2832  -15.1336  -53.4812 H         1 UNK         0.0600 
    234 H234       -7.5670  -15.1444  -51.8781 H         1 UNK         0.0600 
    235 H235       -6.5465  -18.9774  -53.6313 H         1 UNK         0.3000 
    236 H236       -7.8533  -18.9393  -56.2965 H         1 UNK         0.0600 
    237 H237       -8.8856  -20.3365  -54.5115 H         1 UNK         0.0600 
    238 H238       -8.2910  -21.3194  -55.8404 H         1 UNK         0.0600 
    239 H239       -7.3848  -21.2464  -54.3374 H         1 UNK         0.0600 
    240 H240       -4.9339  -20.1894  -54.5859 H         1 UNK         0.3000 
    241 H241       -3.8073  -21.3167  -56.9927 H         1 UNK         0.0600 
    242 H242       -1.2765  -19.0018  -58.0538 H         1 UNK         0.3800 
    243 H243       -1.5621  -20.7069  -57.8683 H         1 UNK         0.3800 
    244 H244       -1.8186  -21.8318  -55.6482 H         1 UNK         0.0800 
    245 H245       -3.2819  -22.3675  -54.8996 H         1 UNK         0.0800 
    246 H246       -0.0501  -20.7447  -54.4791 H         1 UNK         0.0800 
    247 H247       -0.7485  -19.1625  -54.7257 H         1 UNK         0.0800 
@<TRIPOS>BOND
     1    1    2 1    
     2    1  127 1    
     3    1  128 1    
     4    1  129 1    
     5    2    3 2    
     6    2    4 am   BACKBONE|DICT|INTERRES
     7    4    5 1    
     8    4  130 1    
     9    5    6 1    
    10    5   65 1    
    11    5  131 1    
    12    6    7 1    
    13    6  132 1    
    14    6  133 1    
    15    7    8 1    
    16    8    9 1    
    17    8  134 1    
    18    8  135 1    
    19    9   10 ar   
    20    9   14 ar   
    21   10   11 ar   
    22   10  136 1    
    23   11   12 ar   
    24   11  126 1    
    25   12   13 ar   
    26   12  137 1    
    27   13   14 ar   
    28   13   15 1    
    29   14  138 1    
    30   15   16 1    
    31   15  139 1    
    32   15  140 1    
    33   16   17 1    
    34   17   18 1    
    35   17  141 1    
    36   17  142 1    
    37   18   19 1    
    38   18   67 1    
    39   18  143 1    
    40   19   20 am   BACKBONE|DICT|INTERRES
    41   19  144 1    
    42   20   21 2    
    43   20   22 1    
    44   22   23 1    
    45   22   24 1    
    46   22  145 1    
    47   23  146 1    
    48   23  147 1    
    49   23  148 1    
    50   24   25 am   BACKBONE|DICT|INTERRES
    51   24  149 1    
    52   25   26 2    
    53   25   27 1    
    54   27   28 1    
    55   27   29 1    
    56   27  150 1    
    57   28  151 1    
    58   28  152 1    
    59   28  153 1    
    60   29   30 am   BACKBONE|DICT|INTERRES
    61   29  154 1    
    62   30   31 2    
    63   30   32 1    
    64   32   33 1    
    65   32   34 1    
    66   32  155 1    
    67   33  156 1    
    68   33  157 1    
    69   33  158 1    
    70   34   35 am   BACKBONE|DICT|INTERRES
    71   34  159 1    
    72   35   36 2    
    73   35   37 1    
    74   37   38 1    
    75   37   39 1    
    76   37  160 1    
    77   38  161 1    
    78   38  162 1    
    79   38  163 1    
    80   39   40 am   BACKBONE|DICT|INTERRES
    81   39  164 1    
    82   40   41 2    
    83   40   42 1    
    84   42   43 1    
    85   42   44 1    
    86   42  165 1    
    87   43  166 1    
    88   43  167 1    
    89   43  168 1    
    90   44   45 am   BACKBONE|DICT|INTERRES
    91   44  169 1    
    92   45   46 2    
    93   45   47 1    
    94   47   48 1    
    95   47   49 1    
    96   47  170 1    
    97   48  171 1    
    98   48  172 1    
    99   48  173 1    
   100   49   50 am   BACKBONE|DICT|INTERRES
   101   49  174 1    
   102   50   51 2    
   103   50   52 1    
   104   52   53 1    
   105   52   54 1    
   106   52  175 1    
   107   53  176 1    
   108   53  177 1    
   109   53  178 1    
   110   54   55 am   BACKBONE|DICT|INTERRES
   111   54  179 1    
   112   55   56 2    
   113   55   57 1    
   114   57   58 1    
   115   57   59 1    
   116   57  180 1    
   117   58  181 1    
   118   58  182 1    
   119   58  183 1    
   120   59   60 am   BACKBONE|DICT|INTERRES
   121   59  184 1    
   122   60   61 2    
   123   60   62 1    
   124   62   63 1    
   125   62   64 1    
   126   62  185 1    
   127   63  186 1    
   128   63  187 1    
   129   63  188 1    
   130   64   65 am   BACKBONE|DICT|INTERRES
   131   64  189 1    
   132   65   66 2    
   133   67   68 2    
   134   67   69 am   BACKBONE|DICT|INTERRES
   135   69   70 1    
   136   69  190 1    
   137   70   71 1    
   138   70   72 1    
   139   70  191 1    
   140   71  192 1    
   141   71  193 1    
   142   71  194 1    
   143   72   73 2    
   144   72   74 am   BACKBONE|DICT|INTERRES
   145   74   75 1    
   146   74  195 1    
   147   75   76 1    
   148   75   77 1    
   149   75  196 1    
   150   76  197 1    
   151   76  198 1    
   152   76  199 1    
   153   77   78 2    
   154   77   79 am   BACKBONE|DICT|INTERRES
   155   79   80 1    
   156   79  200 1    
   157   80   81 1    
   158   80   82 1    
   159   80  201 1    
   160   81  202 1    
   161   81  203 1    
   162   81  204 1    
   163   82   83 2    
   164   82   84 am   BACKBONE|DICT|INTERRES
   165   84   85 1    
   166   84  205 1    
   167   85   86 1    
   168   85   87 1    
   169   85  206 1    
   170   86  207 1    
   171   86  208 1    
   172   86  209 1    
   173   87   88 2    
   174   87   89 am   BACKBONE|DICT|INTERRES
   175   89   90 1    
   176   89  210 1    
   177   90   91 1    
   178   90   92 1    
   179   90  211 1    
   180   91  212 1    
   181   91  213 1    
   182   91  214 1    
   183   92   93 2    
   184   92   94 am   BACKBONE|DICT|INTERRES
   185   94   95 1    
   186   94  215 1    
   187   95   96 1    
   188   95   97 1    
   189   95  216 1    
   190   96  217 1    
   191   96  218 1    
   192   96  219 1    
   193   97   98 2    
   194   97   99 am   BACKBONE|DICT|INTERRES
   195   99  100 1    
   196   99  220 1    
   197  100  101 1    
   198  100  102 1    
   199  100  221 1    
   200  101  222 1    
   201  101  223 1    
   202  101  224 1    
   203  102  103 2    
   204  102  104 am   BACKBONE|DICT|INTERRES
   205  104  105 1    
   206  104  225 1    
   207  105  106 1    
   208  105  107 1    
   209  105  226 1    
   210  106  227 1    
   211  106  228 1    
   212  106  229 1    
   213  107  108 2    
   214  107  109 am   BACKBONE|DICT|INTERRES
   215  109  110 1    
   216  109  230 1    
   217  110  111 1    
   218  110  112 1    
   219  110  231 1    
   220  111  232 1    
   221  111  233 1    
   222  111  234 1    
   223  112  113 2    
   224  112  114 am   BACKBONE|DICT|INTERRES
   225  114  115 1    
   226  114  235 1    
   227  115  116 1    
   228  115  117 1    
   229  115  236 1    
   230  116  237 1    
   231  116  238 1    
   232  116  239 1    
   233  117  118 2    
   234  117  119 am   BACKBONE|DICT|INTERRES
   235  119  120 1    
   236  119  240 1    
   237  120  121 1    
   238  120  124 1    
   239  120  241 1    
   240  121  122 am   BACKBONE|DICT|INTERRES
   241  121  123 2    
   242  122  242 1    
   243  122  243 1    
   244  124  125 1    
   245  124  244 1    
   246  124  245 1    
   247  125  126 1    
   248  126  246 1    
   249  126  247 1    
@<TRIPOS>SUBSTRUCTURE
     1 UNK         1 GROUP             0       ****    0 ROOT    
