@<TRIPOS>MOLECULE
3R540
247   249    1
SMALL
USER_CHARGES


@<TRIPOS>ATOM
      1 CA         -3.1510  -16.0867  -43.0321 C.3       0 UNK        -0.1800 
      2 C          -2.9837  -14.5748  -42.9439 C.2       0 UNK         0.5000 
      3 O          -2.7734  -14.0490  -41.8506 O.2       0 UNK        -0.5000 
      4 N          -3.0862  -13.8738  -44.0804 N.am      1 UNK        -0.5000 
      5 CA         -2.8734  -12.4275  -44.1877 C.3       1 UNK         0.1400 
      6 C6         -3.5684  -11.8306  -45.4410 C.3       23 UNK        -0.0398 
      7 S7         -2.9465  -12.4719  -47.0379 S.3       23 UNK        -0.2404 
      8 C8         -4.2714  -13.6134  -47.5422 C.3       23 UNK        -0.0205 
      9 C9         -3.6819  -14.8860  -48.1255 C.ar      23 UNK        -0.0193 
     10 C10        -3.3043  -14.9388  -49.4713 C.ar      23 UNK        -0.1150 
     11 C11        -2.7324  -16.1006  -49.9976 C.ar      23 UNK        -0.0193 
     12 C12        -2.5367  -17.2066  -49.1690 C.ar      23 UNK        -0.1150 
     13 C13        -2.9263  -17.1728  -47.8300 C.ar      23 UNK        -0.0193 
     14 C14        -3.5031  -16.0103  -47.3136 C.ar      23 UNK        -0.1150 
     15 C15        -2.7133  -18.3906  -46.9488 C.3       23 UNK        -0.0205 
     16 S16        -3.9585  -19.6701  -47.2759 S.3       23 UNK        -0.2404 
     17 C17        -3.5360  -20.9123  -46.0097 C.3       23 UNK        -0.0398 
     18 CA         -2.6221  -22.0252  -46.5790 C.3       11 UNK         0.1400 
     19 N          -1.2022  -21.6597  -46.5731 N.am      11 UNK        -0.5000 
     20 C          -0.2736  -22.2941  -47.3033 C.2       10 UNK         0.5000 
     21 O          -0.5241  -23.2400  -48.0497 O.2       10 UNK        -0.5000 
     22 CA          1.1833  -21.8331  -47.1373 C.3       10 UNK         0.1400 
     23 CB          1.4179  -20.4856  -47.8355 C.3       10 UNK        -0.1800 
     24 N           1.5980  -21.7401  -45.7383 N.am      10 UNK        -0.5000 
     25 C           1.6304  -22.7636  -44.8732 C.2       9 UNK         0.5000 
     26 O           1.2556  -23.9036  -45.1462 O.2       9 UNK        -0.5000 
     27 CA          2.1499  -22.4559  -43.4603 C.3       9 UNK         0.1400 
     28 CB          3.6857  -22.4117  -43.4412 C.3       9 UNK        -0.1800 
     29 N           1.6178  -21.1854  -42.9729 N.am      9 UNK        -0.5000 
     30 C           0.4374  -21.0535  -42.3532 C.2       8 UNK         0.5000 
     31 O          -0.2880  -22.0017  -42.0562 O.2       8 UNK        -0.5000 
     32 CA         -0.0282  -19.6215  -42.0252 C.3       8 UNK         0.1400 
     33 CB          0.4321  -19.2124  -40.6182 C.3       8 UNK        -0.1800 
     34 N           0.4278  -18.6186  -42.9889 N.am      8 UNK        -0.5000 
     35 C           0.0805  -18.5947  -44.2823 C.2       7 UNK         0.5000 
     36 O          -0.6467  -19.4336  -44.8135 O.2       7 UNK        -0.5000 
     37 CA          0.6882  -17.4672  -45.1343 C.3       7 UNK         0.1400 
     38 CB         -0.0986  -16.1686  -44.9230 C.3       7 UNK        -0.1800 
     39 N           2.1095  -17.2051  -44.8870 N.am      7 UNK        -0.5000 
     40 C           3.0987  -18.1118  -44.8829 C.2       6 UNK         0.5000 
     41 O           2.9120  -19.3283  -44.9410 O.2       6 UNK        -0.5000 
     42 CA          4.5369  -17.5533  -44.8100 C.3       6 UNK         0.1400 
     43 CB          5.6011  -18.6002  -45.2006 C.3       6 UNK        -0.1800 
     44 N           4.7193  -16.3184  -45.5866 N.am      6 UNK        -0.5000 
     45 C           4.4950  -16.1501  -46.8989 C.2       5 UNK         0.5000 
     46 O           4.0995  -17.0365  -47.6589 O.2       5 UNK        -0.5000 
     47 CA          4.7530  -14.7413  -47.4602 C.3       5 UNK         0.1400 
     48 CB          5.9050  -14.7549  -48.4775 C.3       5 UNK        -0.1800 
     49 N           3.5492  -14.2149  -48.1005 N.am      5 UNK        -0.5000 
     50 C           2.4709  -13.7842  -47.4353 C.2       4 UNK         0.5000 
     51 O           2.3993  -13.7503  -46.2049 O.2       4 UNK        -0.5000 
     52 CA          1.2787  -13.3221  -48.2884 C.3       4 UNK         0.1400 
     53 CB          0.1639  -14.3779  -48.3237 C.3       4 UNK        -0.1800 
     54 N           0.7375  -12.0738  -47.7595 N.am      4 UNK        -0.5000 
     55 C           1.1247  -10.8549  -48.1554 C.2       3 UNK         0.5000 
     56 O           1.9530  -10.6574  -49.0458 O.2       3 UNK        -0.5000 
     57 CA          0.4800   -9.6459  -47.4505 C.3       3 UNK         0.1400 
     58 CB         -0.7542   -9.1659  -48.2300 C.3       3 UNK        -0.1800 
     59 N           0.0907   -9.9167  -46.0667 N.am      3 UNK        -0.5000 
     60 C           0.9448  -10.0658  -45.0441 C.2       2 UNK         0.5000 
     61 O           2.1671   -9.9673  -45.1579 O.2       2 UNK        -0.5000 
     62 CA          0.3346  -10.3538  -43.6555 C.3       2 UNK         0.1400 
     63 CB          0.3561   -9.0864  -42.7865 C.3       2 UNK        -0.1800 
     64 N          -1.0386  -10.8674  -43.7075 N.am      2 UNK        -0.5000 
     65 C          -1.3671  -12.0886  -44.1482 C.2       1 UNK         0.5000 
     66 O          -0.5386  -12.9055  -44.5534 O.2       1 UNK        -0.5000 
     67 C          -2.8777  -23.3732  -45.8779 C.2       11 UNK         0.5000 
     68 O          -3.8095  -24.0707  -46.2753 O.2       11 UNK        -0.5000 
     69 N          -2.0539  -23.7472  -44.8878 N.am      12 UNK        -0.5000 
     70 CA         -2.1295  -25.0577  -44.2370 C.3       12 UNK         0.1400 
     71 CB         -1.2861  -25.0678  -42.9541 C.3       12 UNK        -0.1800 
     72 C          -1.7136  -26.1955  -45.1865 C.2       12 UNK         0.5000 
     73 O          -2.4040  -27.2128  -45.2524 O.2       12 UNK        -0.5000 
     74 N          -0.6218  -25.9835  -45.9343 N.am      13 UNK        -0.5000 
     75 CA         -0.1176  -26.9049  -46.9526 C.3       13 UNK         0.1400 
     76 CB          1.2785  -26.4480  -47.4026 C.3       13 UNK        -0.1800 
     77 C          -1.0640  -27.0348  -48.1607 C.2       13 UNK         0.5000 
     78 O          -1.2792  -28.1448  -48.6488 O.2       13 UNK        -0.5000 
     79 N          -1.6200  -25.9026  -48.6113 N.am      14 UNK        -0.5000 
     80 CA         -2.5358  -25.8215  -49.7505 C.3       14 UNK         0.1400 
     81 CB         -2.5417  -24.3775  -50.2658 C.3       14 UNK        -0.1800 
     82 C          -3.9782  -26.2631  -49.4362 C.2       14 UNK         0.5000 
     83 O          -4.7612  -26.4306  -50.3704 O.2       14 UNK        -0.5000 
     84 N          -4.3204  -26.3987  -48.1466 N.am      15 UNK        -0.5000 
     85 CA         -5.6649  -26.6485  -47.6124 C.3       15 UNK         0.1400 
     86 CB         -6.1814  -28.0431  -48.0238 C.3       15 UNK        -0.1800 
     87 C          -6.6398  -25.5016  -47.9603 C.2       15 UNK         0.5000 
     88 O          -7.7373  -25.7373  -48.4676 O.2       15 UNK        -0.5000 
     89 N          -6.1827  -24.2711  -47.6895 N.am      16 UNK        -0.5000 
     90 CA         -6.8481  -22.9766  -47.8762 C.3       16 UNK         0.1400 
     91 CB         -8.1450  -22.8964  -47.0451 C.3       16 UNK        -0.1800 
     92 C          -7.0658  -22.5542  -49.3454 C.2       16 UNK         0.5000 
     93 O          -7.7434  -21.5536  -49.5871 O.2       16 UNK        -0.5000 
     94 N          -6.4792  -23.2827  -50.3048 N.am      17 UNK        -0.5000 
     95 CA         -6.4990  -22.9442  -51.7255 C.3       17 UNK         0.1400 
     96 CB         -6.2318  -24.2107  -52.5553 C.3       17 UNK        -0.1800 
     97 C          -5.4666  -21.8421  -52.0171 C.2       17 UNK         0.5000 
     98 O          -4.2935  -22.1457  -52.2406 O.2       17 UNK        -0.5000 
     99 N          -5.9118  -20.5783  -52.0039 N.am      18 UNK        -0.5000 
    100 CA        -5.0799  -19.3854  -52.2063 C.3       18 UNK         0.1400 
    101 CB        -5.9566  -18.1281  -52.1189 C.3       18 UNK        -0.1800 
    102 C         -4.2749  -19.3963  -53.5220 C.2       18 UNK         0.5000 
    103 O         -3.1270  -18.9550  -53.5376 O.2       18 UNK        -0.5000 
    104 N         -4.8713  -19.9568  -54.5828 N.am      19 UNK        -0.5000 
    105 CA        -4.2540  -20.1348  -55.8988 C.3       19 UNK         0.1400 
    106 CB        -5.3418  -20.5575  -56.8985 C.3       19 UNK        -0.1800 
    107 C         -3.0836  -21.1412  -55.9193 C.2       19 UNK         0.5000 
    108 O         -2.2679  -21.0859  -56.8402 O.2       19 UNK        -0.5000 
    109 N         -3.0238  -22.0417  -54.9287 N.am      20 UNK        -0.5000 
    110 CA        -1.9206  -22.9809  -54.7308 C.3       20 UNK         0.1400 
    111 CB        -2.4863  -24.3545  -54.3387 C.3       20 UNK        -0.1800 
    112 C         -0.9366  -22.4657  -53.6660 C.2       20 UNK         0.5000 
    113 O          0.2670  -22.6848  -53.8061 O.2       20 UNK        -0.5000 
    114 N         -1.4565  -21.7927  -52.6286 N.am      21 UNK        -0.5000 
    115 CA        -0.6827  -21.2025  -51.5361 C.3       21 UNK         0.1400 
    116 CB        -1.6408  -20.7182  -50.4389 C.3       21 UNK        -0.1800 
    117 C          0.2365  -20.0575  -52.0015 C.2       21 UNK         0.5000 
    118 O          1.4182  -20.0569  -51.6546 O.2       21 UNK        -0.5000 
    119 N         -0.3122  -19.1216  -52.7859 N.am      22 UNK        -0.5000 
    120 CA         0.4348  -18.0255  -53.4157 C.3       22 UNK         0.1400 
    121 C          0.7919  -18.4142  -54.8722 C.2       22 UNK         0.5000 
    122 N          2.0711  -18.4544  -55.2200 N.am      22 UNK        -0.7600 
    123 O         -0.0837  -18.6440  -55.7021 O.2       22 UNK        -0.5000 
    124 C124       -0.3465  -16.6872  -53.3774 C.3       23 UNK        -0.0398 
    125 S125       -0.5384  -16.0490  -51.6777 S.3       23 UNK        -0.2404 
    126 C126       -2.3374  -16.1853  -51.4606 C.3       23 UNK        -0.0205 
    127 H127       -3.3349  -16.4196  -44.0523 H         1 UNK         0.0600 
    128 H128       -3.9916  -16.4063  -42.4165 H         1 UNK         0.0600 
    129 H129       -2.2539  -16.5874  -42.6678 H         1 UNK         0.0600 
    130 H130       -3.1939  -14.3537  -44.9607 H         1 UNK         0.3000 
    131 H131       -3.3331  -11.9601  -43.3140 H         1 UNK         0.0600 
    132 H132       -3.4505  -10.7459  -45.4518 H         1 UNK         0.0800 
    133 H133       -4.6447  -11.9932  -45.3745 H         1 UNK         0.0800 
    134 H134       -4.9097  -13.1213  -48.2774 H         1 UNK         0.0800 
    135 H135       -4.9137  -13.8606  -46.6960 H         1 UNK         0.0800 
    136 H136       -3.4451  -14.0729  -50.1027 H         1 UNK         0.1150 
    137 H137       -2.0814  -18.0978  -49.5698 H         1 UNK         0.1150 
    138 H138       -3.8100  -15.9799  -46.2796 H         1 UNK         0.1150 
    139 H139       -1.7203  -18.8003  -47.1353 H         1 UNK         0.0800 
    140 H140       -2.7503  -18.1099  -45.8957 H         1 UNK         0.0800 
    141 H141       -4.4889  -21.3209  -45.6674 H         1 UNK         0.0800 
    142 H142       -3.0905  -20.4382  -45.1342 H         1 UNK         0.0800 
    143 H143       -2.9099  -22.1871  -47.6201 H         1 UNK         0.0600 
    144 H144       -0.9250  -20.8976  -45.9580 H         1 UNK         0.3000 
    145 H145        1.8227  -22.5773  -47.6165 H         1 UNK         0.0600 
    146 H146        2.4485  -20.1500  -47.7163 H         1 UNK         0.0600 
    147 H147        1.2268  -20.5652  -48.9055 H         1 UNK         0.0600 
    148 H148        0.7656  -19.7072  -47.4417 H         1 UNK         0.0600 
    149 H149        1.9566  -20.8388  -45.4326 H         1 UNK         0.3000 
    150 H150        1.8311  -23.2644  -42.7988 H         1 UNK         0.0600 
    151 H151        4.1057  -23.3604  -43.7778 H         1 UNK         0.0600 
    152 H152        4.0612  -22.2288  -42.4344 H         1 UNK         0.0600 
    153 H153        4.0794  -21.6304  -44.0920 H         1 UNK         0.0600 
    154 H154        2.1185  -20.3509  -43.2521 H         1 UNK         0.3000 
    155 H155       -1.1202  -19.6223  -42.0402 H         1 UNK         0.0600 
    156 H156        1.5196  -19.1645  -40.5488 H         1 UNK         0.0600 
    157 H157        0.0865  -19.9280  -39.8709 H         1 UNK         0.0600 
    158 H158        0.0333  -18.2366  -40.3405 H         1 UNK         0.0600 
    159 H159        1.0504  -17.9029  -42.6442 H         1 UNK         0.3000 
    160 H160        0.5958  -17.7504  -46.1836 H         1 UNK         0.0600 
    161 H161       -0.1202  -15.8710  -43.8741 H         1 UNK         0.0600 
    162 H162       -1.1286  -16.2713  -45.2633 H         1 UNK         0.0600 
    163 H163        0.3455  -15.3463  -45.4788 H         1 UNK         0.0600 
    164 H164        2.3723  -16.2302  -44.8451 H         1 UNK         0.3000 
    165 H165        4.7044  -17.2886  -43.7652 H         1 UNK         0.0600 
    166 H166        5.4584  -18.9610  -46.2198 H         1 UNK         0.0600 
    167 H167        6.6069  -18.1867  -45.1286 H         1 UNK         0.0600 
    168 H168        5.5599  -19.4664  -44.5392 H         1 UNK         0.0600 
    169 H169        5.0236  -15.5162  -45.0522 H         1 UNK         0.3000 
    170 H170        5.0333  -14.0725  -46.6433 H         1 UNK         0.0600 
    171 H171        5.6789  -15.3879  -49.3366 H         1 UNK         0.0600 
    172 H172        6.1173  -13.7513  -48.8466 H         1 UNK         0.0600 
    173 H173        6.8210  -15.1343  -48.0228 H         1 UNK         0.0600 
    174 H174        3.5264  -14.2515  -49.1091 H         1 UNK         0.3000 
    175 H175        1.6211  -13.1734  -49.3148 H         1 UNK         0.0600 
    176 H176       -0.3739  -14.4382  -47.3786 H         1 UNK         0.0600 
    177 H177       -0.5668  -14.1338  -49.0940 H         1 UNK         0.0600 
    178 H178        0.5556  -15.3701  -48.5519 H         1 UNK         0.0600 
    179 H179        0.1133  -12.1585  -46.9686 H         1 UNK         0.3000 
    180 H180        1.2139   -8.8372  -47.4461 H         1 UNK         0.0600 
    181 H181       -1.1791   -8.2669  -47.7833 H         1 UNK         0.0600 
    182 H182       -1.5338   -9.9281  -48.2595 H         1 UNK         0.0600 
    183 H183       -0.4943   -8.9234  -49.2613 H         1 UNK         0.0600 
    184 H184       -0.8967  -10.0071  -45.8825 H         1 UNK         0.3000 
    185 H185        0.9632  -11.1068  -43.1752 H         1 UNK         0.0600 
    186 H186       -0.0011   -9.2932  -41.7774 H         1 UNK         0.0600 
    187 H187        1.3688   -8.6913  -42.6956 H         1 UNK         0.0600 
    188 H188       -0.2668   -8.2975  -43.2098 H         1 UNK         0.0600 
    189 H189       -1.7637  -10.2417  -43.3864 H         1 UNK         0.3000 
    190 H190       -1.2913  -23.1418  -44.6205 H         1 UNK         0.3000 
    191 H191       -3.1684  -25.2334  -43.9492 H         1 UNK         0.0600 
    192 H192       -1.3265  -26.0436  -42.4686 H         1 UNK         0.0600 
    193 H193       -1.6567  -24.3357  -42.2370 H         1 UNK         0.0600 
    194 H194       -0.2382  -24.8440  -43.1513 H         1 UNK         0.0600 
    195 H195       -0.0823  -25.1348  -45.7843 H         1 UNK         0.3000 
    196 H196       -0.0217  -27.8923  -46.4963 H         1 UNK         0.0600 
    197 H197        1.2544  -25.4472  -47.8359 H         1 UNK         0.0600 
    198 H198        1.9755  -26.4305  -46.5645 H         1 UNK         0.0600 
    199 H199        1.6887  -27.1235  -48.1542 H         1 UNK         0.0600 
    200 H200       -1.3337  -25.0189  -48.1990 H         1 UNK         0.3000 
    201 H201       -2.1609  -26.4662  -50.5481 H         1 UNK         0.0600 
    202 H202       -3.1725  -24.2795  -51.1468 H         1 UNK         0.0600 
    203 H203       -2.9273  -23.6907  -49.5130 H         1 UNK         0.0600 
    204 H204       -1.5404  -24.0507  -50.5459 H         1 UNK         0.0600 
    205 H205       -3.6099  -26.2006  -47.4547 H         1 UNK         0.3000 
    206 H206       -5.5644  -26.6452  -46.5259 H         1 UNK         0.0600 
    207 H207       -5.4692  -28.8220  -47.7512 H         1 UNK         0.0600 
    208 H208       -7.1216  -28.2720  -47.5209 H         1 UNK         0.0600 
    209 H209       -6.3617  -28.1139  -49.0966 H         1 UNK         0.0600 
    210 H210       -5.2635  -24.2154  -47.2504 H         1 UNK         0.3000 
    211 H211       -6.1581  -22.2383  -47.4657 H         1 UNK         0.0600 
    212 H212       -8.5503  -21.8839  -47.0472 H         1 UNK         0.0600 
    213 H213       -7.9643  -23.1683  -46.0052 H         1 UNK         0.0600 
    214 H214       -8.9193  -23.5567  -47.4364 H         1 UNK         0.0600 
    215 H215       -5.9402  -24.0944  -50.0390 H         1 UNK         0.3000 
    216 H216       -7.4909  -22.5764  -51.9969 H         1 UNK         0.0600 
    217 H217       -5.2637  -24.6536  -52.3240 H         1 UNK         0.0600 
    218 H218       -6.2420  -23.9875  -53.6228 H         1 UNK         0.0600 
    219 H219       -6.9940  -24.9684  -52.3723 H         1 UNK         0.0600 
    220 H220       -6.8791  -20.4150  -51.7603 H         1 UNK         0.3000 
    221 H221       -4.3685  -19.3459  -51.3817 H         1 UNK         0.0600 
    222 H222       -6.4480  -18.0578  -51.1481 H         1 UNK         0.0600 
    223 H223       -6.7286  -18.1202  -52.8892 H         1 UNK         0.0600 
    224 H224       -5.3578  -17.2246  -52.2427 H         1 UNK         0.0600 
    225 H225       -5.8122  -20.3049  -54.4731 H         1 UNK         0.3000 
    226 H226       -3.8546  -19.1686  -56.2146 H         1 UNK         0.0600 
    227 H227       -5.7926  -21.5114  -56.6220 H         1 UNK         0.0600 
    228 H228       -6.1363  -19.8132  -56.9565 H         1 UNK         0.0600 
    229 H229       -4.9293  -20.6682  -57.9023 H         1 UNK         0.0600 
    230 H230       -3.7174  -22.0068  -54.1912 H         1 UNK         0.3000 
    231 H231       -1.3608  -23.1093  -55.6595 H         1 UNK         0.0600 
    232 H232       -3.0991  -24.2979  -53.4408 H         1 UNK         0.0600 
    233 H233       -1.6848  -25.0689  -54.1466 H         1 UNK         0.0600 
    234 H234       -3.1050  -24.7651  -55.1366 H         1 UNK         0.0600 
    235 H235       -2.4666  -21.7250  -52.5536 H         1 UNK         0.3000 
    236 H236       -0.0530  -21.9869  -51.1109 H         1 UNK         0.0600 
    237 H237       -2.2550  -21.5296  -50.0536 H         1 UNK         0.0600 
    238 H238       -1.0958  -20.2956  -49.5951 H         1 UNK         0.0600 
    239 H239       -2.3101  -19.9496  -50.8175 H         1 UNK         0.0600 
    240 H240       -1.2869  -19.2044  -53.0629 H         1 UNK         0.3000 
    241 H241        1.3677  -17.8623  -52.8721 H         1 UNK         0.0600 
    242 H242        2.3126  -18.6933  -56.1693 H         1 UNK         0.3800 
    243 H243        2.8061  -18.2703  -54.5544 H         1 UNK         0.3800 
    244 H244       -1.3219  -16.7951  -53.8552 H         1 UNK         0.0800 
    245 H245        0.1849  -15.9233  -53.9476 H         1 UNK         0.0800 
    246 H246       -2.6782  -17.1416  -51.8521 H         1 UNK         0.0800 
    247 H247       -2.8362  -15.4117  -52.0462 H         1 UNK         0.0800 
@<TRIPOS>BOND
     1    1    2 1    
     2    1  127 1    
     3    1  128 1    
     4    1  129 1    
     5    2    3 2    
     6    2    4 am   BACKBONE|DICT|INTERRES
     7    4    5 1    
     8    4  130 1    
     9    5    6 1    
    10    5   65 1    
    11    5  131 1    
    12    6    7 1    
    13    6  132 1    
    14    6  133 1    
    15    7    8 1    
    16    8    9 1    
    17    8  134 1    
    18    8  135 1    
    19    9   10 ar   
    20    9   14 ar   
    21   10   11 ar   
    22   10  136 1    
    23   11   12 ar   
    24   11  126 1    
    25   12   13 ar   
    26   12  137 1    
    27   13   14 ar   
    28   13   15 1    
    29   14  138 1    
    30   15   16 1    
    31   15  139 1    
    32   15  140 1    
    33   16   17 1    
    34   17   18 1    
    35   17  141 1    
    36   17  142 1    
    37   18   19 1    
    38   18   67 1    
    39   18  143 1    
    40   19   20 am   BACKBONE|DICT|INTERRES
    41   19  144 1    
    42   20   21 2    
    43   20   22 1    
    44   22   23 1    
    45   22   24 1    
    46   22  145 1    
    47   23  146 1    
    48   23  147 1    
    49   23  148 1    
    50   24   25 am   BACKBONE|DICT|INTERRES
    51   24  149 1    
    52   25   26 2    
    53   25   27 1    
    54   27   28 1    
    55   27   29 1    
    56   27  150 1    
    57   28  151 1    
    58   28  152 1    
    59   28  153 1    
    60   29   30 am   BACKBONE|DICT|INTERRES
    61   29  154 1    
    62   30   31 2    
    63   30   32 1    
    64   32   33 1    
    65   32   34 1    
    66   32  155 1    
    67   33  156 1    
    68   33  157 1    
    69   33  158 1    
    70   34   35 am   BACKBONE|DICT|INTERRES
    71   34  159 1    
    72   35   36 2    
    73   35   37 1    
    74   37   38 1    
    75   37   39 1    
    76   37  160 1    
    77   38  161 1    
    78   38  162 1    
    79   38  163 1    
    80   39   40 am   BACKBONE|DICT|INTERRES
    81   39  164 1    
    82   40   41 2    
    83   40   42 1    
    84   42   43 1    
    85   42   44 1    
    86   42  165 1    
    87   43  166 1    
    88   43  167 1    
    89   43  168 1    
    90   44   45 am   BACKBONE|DICT|INTERRES
    91   44  169 1    
    92   45   46 2    
    93   45   47 1    
    94   47   48 1    
    95   47   49 1    
    96   47  170 1    
    97   48  171 1    
    98   48  172 1    
    99   48  173 1    
   100   49   50 am   BACKBONE|DICT|INTERRES
   101   49  174 1    
   102   50   51 2    
   103   50   52 1    
   104   52   53 1    
   105   52   54 1    
   106   52  175 1    
   107   53  176 1    
   108   53  177 1    
   109   53  178 1    
   110   54   55 am   BACKBONE|DICT|INTERRES
   111   54  179 1    
   112   55   56 2    
   113   55   57 1    
   114   57   58 1    
   115   57   59 1    
   116   57  180 1    
   117   58  181 1    
   118   58  182 1    
   119   58  183 1    
   120   59   60 am   BACKBONE|DICT|INTERRES
   121   59  184 1    
   122   60   61 2    
   123   60   62 1    
   124   62   63 1    
   125   62   64 1    
   126   62  185 1    
   127   63  186 1    
   128   63  187 1    
   129   63  188 1    
   130   64   65 am   BACKBONE|DICT|INTERRES
   131   64  189 1    
   132   65   66 2    
   133   67   68 2    
   134   67   69 am   BACKBONE|DICT|INTERRES
   135   69   70 1    
   136   69  190 1    
   137   70   71 1    
   138   70   72 1    
   139   70  191 1    
   140   71  192 1    
   141   71  193 1    
   142   71  194 1    
   143   72   73 2    
   144   72   74 am   BACKBONE|DICT|INTERRES
   145   74   75 1    
   146   74  195 1    
   147   75   76 1    
   148   75   77 1    
   149   75  196 1    
   150   76  197 1    
   151   76  198 1    
   152   76  199 1    
   153   77   78 2    
   154   77   79 am   BACKBONE|DICT|INTERRES
   155   79   80 1    
   156   79  200 1    
   157   80   81 1    
   158   80   82 1    
   159   80  201 1    
   160   81  202 1    
   161   81  203 1    
   162   81  204 1    
   163   82   83 2    
   164   82   84 am   BACKBONE|DICT|INTERRES
   165   84   85 1    
   166   84  205 1    
   167   85   86 1    
   168   85   87 1    
   169   85  206 1    
   170   86  207 1    
   171   86  208 1    
   172   86  209 1    
   173   87   88 2    
   174   87   89 am   BACKBONE|DICT|INTERRES
   175   89   90 1    
   176   89  210 1    
   177   90   91 1    
   178   90   92 1    
   179   90  211 1    
   180   91  212 1    
   181   91  213 1    
   182   91  214 1    
   183   92   93 2    
   184   92   94 am   BACKBONE|DICT|INTERRES
   185   94   95 1    
   186   94  215 1    
   187   95   96 1    
   188   95   97 1    
   189   95  216 1    
   190   96  217 1    
   191   96  218 1    
   192   96  219 1    
   193   97   98 2    
   194   97   99 am   BACKBONE|DICT|INTERRES
   195   99  100 1    
   196   99  220 1    
   197  100  101 1    
   198  100  102 1    
   199  100  221 1    
   200  101  222 1    
   201  101  223 1    
   202  101  224 1    
   203  102  103 2    
   204  102  104 am   BACKBONE|DICT|INTERRES
   205  104  105 1    
   206  104  225 1    
   207  105  106 1    
   208  105  107 1    
   209  105  226 1    
   210  106  227 1    
   211  106  228 1    
   212  106  229 1    
   213  107  108 2    
   214  107  109 am   BACKBONE|DICT|INTERRES
   215  109  110 1    
   216  109  230 1    
   217  110  111 1    
   218  110  112 1    
   219  110  231 1    
   220  111  232 1    
   221  111  233 1    
   222  111  234 1    
   223  112  113 2    
   224  112  114 am   BACKBONE|DICT|INTERRES
   225  114  115 1    
   226  114  235 1    
   227  115  116 1    
   228  115  117 1    
   229  115  236 1    
   230  116  237 1    
   231  116  238 1    
   232  116  239 1    
   233  117  118 2    
   234  117  119 am   BACKBONE|DICT|INTERRES
   235  119  120 1    
   236  119  240 1    
   237  120  121 1    
   238  120  124 1    
   239  120  241 1    
   240  121  122 am   BACKBONE|DICT|INTERRES
   241  121  123 2    
   242  122  242 1    
   243  122  243 1    
   244  124  125 1    
   245  124  244 1    
   246  124  245 1    
   247  125  126 1    
   248  126  246 1    
   249  126  247 1    
@<TRIPOS>SUBSTRUCTURE
     1 UNK         1 GROUP             0       ****    0 ROOT    
