@<TRIPOS>MOLECULE
3R540
247   249    1
SMALL
USER_CHARGES


@<TRIPOS>ATOM
      1 CA          1.1114  -10.5247  -52.0056 C.3       0 UNK        -0.1800 
      2 C           1.3140  -11.9511  -51.5138 C.2       0 UNK         0.5000 
      3 O           1.3101  -12.8827  -52.3190 O.2       0 UNK        -0.5000 
      4 N           1.4815  -12.1243  -50.1973 N.am      1 UNK        -0.5000 
      5 CA          1.7330  -13.4124  -49.5442 C.3       1 UNK         0.1400 
      6 C6          1.5675  -13.3185  -48.0070 C.3       23 UNK        -0.0398 
      7 S7         -0.1854  -13.1054  -47.5521 S.3       23 UNK        -0.2404 
      8 C8         -0.6396  -14.7675  -46.9522 C.3       23 UNK        -0.0205 
      9 C9         -0.2367  -15.8859  -47.9025 C.ar      23 UNK        -0.0193 
     10 C10        -0.8616  -16.0151  -49.1449 C.ar      23 UNK        -0.1150 
     11 C11        -0.5089  -17.0519  -50.0129 C.ar      23 UNK        -0.0193 
     12 C12         0.4750  -17.9667  -49.6265 C.ar      23 UNK        -0.1150 
     13 C13         1.1119  -17.8463  -48.3881 C.ar      23 UNK        -0.0193 
     14 C14         0.7556  -16.7990  -47.5327 C.ar      23 UNK        -0.1150 
     15 C15         2.1832  -18.8497  -47.9801 C.3       23 UNK        -0.0205 
     16 S16         1.7797  -19.7016  -46.4242 S.3       23 UNK        -0.2404 
     17 C17         0.2336  -20.5534  -46.8810 C.3       23 UNK        -0.0398 
     18 CA          0.1536  -21.9899  -46.3195 C.3       11 UNK         0.1400 
     19 N           0.2482  -22.0293  -44.8537 N.am      11 UNK        -0.5000 
     20 C           0.3044  -23.1453  -44.1106 C.2       10 UNK         0.5000 
     21 O           0.3053  -24.2813  -44.5846 O.2       10 UNK        -0.5000 
     22 CA          0.3046  -22.9621  -42.5846 C.3       10 UNK         0.1400 
     23 CB          1.7213  -22.6717  -42.0648 C.3       10 UNK        -0.1800 
     24 N          -0.6012  -21.8821  -42.1932 N.am      10 UNK        -0.5000 
     25 C          -1.9219  -22.0336  -42.0201 C.2       9 UNK         0.5000 
     26 O          -2.4935  -23.1227  -42.0708 O.2       9 UNK        -0.5000 
     27 CA         -2.7548  -20.7616  -41.7606 C.3       9 UNK         0.1400 
     28 CB         -2.9211  -20.5274  -40.2516 C.3       9 UNK        -0.1800 
     29 N          -2.1920  -19.5552  -42.3691 N.am      9 UNK        -0.5000 
     30 C          -2.0983  -19.3319  -43.6874 C.2       8 UNK         0.5000 
     31 O          -2.5090  -20.1148  -44.5431 O.2       8 UNK        -0.5000 
     32 CA         -1.3756  -18.0404  -44.1215 C.3       8 UNK         0.1400 
     33 CB         -2.3809  -16.8870  -44.2413 C.3       8 UNK        -0.1800 
     34 N          -0.2739  -17.6324  -43.2420 N.am      8 UNK        -0.5000 
     35 C           0.7648  -18.4004  -42.8760 C.2       7 UNK         0.5000 
     36 O           0.8670  -19.5881  -43.1818 O.2       7 UNK        -0.5000 
     37 CA          1.8676  -17.7614  -42.0131 C.3       7 UNK         0.1400 
     38 CB          3.1983  -17.7227  -42.7801 C.3       7 UNK        -0.1800 
     39 N           1.5316  -16.4067  -41.5733 N.am      7 UNK        -0.5000 
     40 C           0.8645  -16.1122  -40.4486 C.2       6 UNK         0.5000 
     41 O           0.4495  -16.9637  -39.6620 O.2       6 UNK        -0.5000 
     42 CA          0.6163  -14.6204  -40.1447 C.3       6 UNK         0.1400 
     43 CB          1.6485  -14.1037  -39.1306 C.3       6 UNK        -0.1800 
     44 N           0.6596  -13.7693  -41.3352 N.am      6 UNK        -0.5000 
     45 C          -0.2857  -13.7369  -42.2842 C.2       5 UNK         0.5000 
     46 O          -1.3209  -14.4002  -42.2385 O.2       5 UNK        -0.5000 
     47 CA          0.0002  -12.8501  -43.5124 C.3       5 UNK         0.1400 
     48 CB         -0.5221  -11.4244  -43.2832 C.3       5 UNK        -0.1800 
     49 N           1.4204  -12.7920  -43.8804 N.am      5 UNK        -0.5000 
     50 C           2.1616  -13.8507  -44.2302 C.2       4 UNK         0.5000 
     51 O           1.7326  -15.0070  -44.2618 O.2       4 UNK        -0.5000 
     52 CA          3.6361  -13.5869  -44.5550 C.3       4 UNK         0.1400 
     53 CB          4.4499  -13.4030  -43.2605 C.3       4 UNK        -0.1800 
     54 N           4.1417  -14.7310  -45.3041 N.am      4 UNK        -0.5000 
     55 C           5.2428  -14.7569  -46.0609 C.2       3 UNK         0.5000 
     56 O           5.9812  -13.7861  -46.2292 O.2       3 UNK        -0.5000 
     57 CA          5.5521  -16.0764  -46.7830 C.3       3 UNK         0.1400 
     58 CB          5.1542  -17.3263  -45.9734 C.3       3 UNK        -0.1800 
     59 N           4.8311  -16.0680  -48.0503 N.am      3 UNK        -0.5000 
     60 C           5.3862  -16.1576  -49.2648 C.2       2 UNK         0.5000 
     61 O           6.5856  -16.3560  -49.4613 O.2       2 UNK        -0.5000 
     62 CA          4.4404  -15.9884  -50.4717 C.3       2 UNK         0.1400 
     63 CB          4.0836  -17.3534  -51.0804 C.3       2 UNK        -0.1800 
     64 N           3.2021  -15.2756  -50.1428 N.am      2 UNK        -0.5000 
     65 C           3.1265  -13.9587  -49.9068 C.2       1 UNK         0.5000 
     66 O           4.0962  -13.1975  -49.9351 O.2       1 UNK        -0.5000 
     67 C          -1.1168  -22.6873  -46.8487 C.2       11 UNK         0.5000 
     68 O          -1.0775  -23.2820  -47.9261 O.2       11 UNK        -0.5000 
     69 N          -2.2050  -22.6478  -46.0671 N.am      12 UNK        -0.5000 
     70 CA         -3.4877  -23.3067  -46.3289 C.3       12 UNK         0.1400 
     71 CB         -4.4976  -22.8755  -45.2540 C.3       12 UNK        -0.1800 
     72 C          -3.4334  -24.8443  -46.4508 C.2       12 UNK         0.5000 
     73 O          -4.4202  -25.4485  -46.8714 O.2       12 UNK        -0.5000 
     74 N          -2.2903  -25.4582  -46.1152 N.am      13 UNK        -0.5000 
     75 CA         -2.0074  -26.8717  -46.3541 C.3       13 UNK         0.1400 
     76 CB         -0.7253  -27.2580  -45.6015 C.3       13 UNK        -0.1800 
     77 C          -1.8816  -27.2357  -47.8496 C.2       13 UNK         0.5000 
     78 O          -2.0276  -28.4141  -48.1789 O.2       13 UNK        -0.5000 
     79 N          -1.6125  -26.2527  -48.7250 N.am      14 UNK        -0.5000 
     80 CA         -1.4588  -26.4775  -50.1648 C.3       14 UNK         0.1400 
     81 CB         -0.0254  -26.9449  -50.4756 C.3       14 UNK        -0.1800 
     82 C          -1.8238  -25.2589  -51.0261 C.2       14 UNK         0.5000 
     83 O          -2.4083  -25.4431  -52.0939 O.2       14 UNK        -0.5000 
     84 N          -1.4594  -24.0477  -50.5869 N.am      15 UNK        -0.5000 
     85 CA         -1.6397  -22.8171  -51.3523 C.3       15 UNK         0.1400 
     86 CB         -0.5115  -21.8225  -51.0217 C.3       15 UNK        -0.1800 
     87 C          -3.0320  -22.2159  -51.1186 C.2       15 UNK         0.5000 
     88 O          -3.8812  -22.3084  -52.0047 O.2       15 UNK        -0.5000 
     89 N          -3.2293  -21.5841  -49.9538 N.am      16 UNK        -0.5000 
     90 CA         -4.4306  -20.8119  -49.6344 C.3       16 UNK         0.1400 
     91 CB         -4.2190  -20.0291  -48.3279 C.3       16 UNK        -0.1800 
     92 C          -5.6986  -21.6833  -49.5914 C.2       16 UNK         0.5000 
     93 O          -5.6864  -22.7573  -48.9884 O.2       16 UNK        -0.5000 
     94 N          -6.7544  -21.2043  -50.2615 N.am      17 UNK        -0.5000 
     95 CA         -8.0403  -21.8677  -50.5002 C.3       17 UNK         0.1400 
     96 CB         -8.8430  -21.9681  -49.1864 C.3       17 UNK        -0.1800 
     97 C          -7.9134  -23.2262  -51.2296 C.2       17 UNK         0.5000 
     98 O          -8.7672  -24.0979  -51.0524 O.2       17 UNK        -0.5000 
     99 N          -6.8519  -23.3895  -52.0284 N.am      18 UNK        -0.5000 
    100 CA        -6.4875  -24.6325  -52.6949 C.3       18 UNK         0.1400 
    101 CB        -5.6450  -25.5001  -51.7395 C.3       18 UNK        -0.1800 
    102 C         -5.8204  -24.3036  -54.0394 C.2       18 UNK         0.5000 
    103 O         -6.5284  -23.8999  -54.9639 O.2       18 UNK        -0.5000 
    104 N         -4.4971  -24.4900  -54.1533 N.am      19 UNK        -0.5000 
    105 CA        -3.7407  -24.2677  -55.3897 C.3       19 UNK         0.1400 
    106 CB        -2.3494  -24.9061  -55.2600 C.3       19 UNK        -0.1800 
    107 C         -3.6108  -22.7856  -55.7938 C.2       19 UNK         0.5000 
    108 O         -3.4216  -22.5063  -56.9790 O.2       19 UNK        -0.5000 
    109 N         -3.7044  -21.8714  -54.8218 N.am      20 UNK        -0.5000 
    110 CA        -3.6448  -20.4261  -55.0122 C.3       20 UNK         0.1400 
    111 CB        -2.4779  -19.8704  -54.1821 C.3       20 UNK        -0.1800 
    112 C         -4.9770  -19.7802  -54.5957 C.2       20 UNK         0.5000 
    113 O         -5.7439  -20.3611  -53.8236 O.2       20 UNK        -0.5000 
    114 N         -5.2205  -18.5739  -55.1237 N.am      21 UNK        -0.5000 
    115 CA        -6.4502  -17.7990  -54.9302 C.3       21 UNK         0.1400 
    116 CB        -6.5760  -16.7909  -56.0844 C.3       21 UNK        -0.1800 
    117 C         -6.5375  -17.0762  -53.5700 C.2       21 UNK         0.5000 
    118 O         -7.6035  -16.5557  -53.2364 O.2       21 UNK        -0.5000 
    119 N         -5.4281  -17.0338  -52.8221 N.am      22 UNK        -0.5000 
    120 CA        -5.3425  -16.5096  -51.4503 C.3       22 UNK         0.1400 
    121 C         -6.2056  -17.2932  -50.4177 C.2       22 UNK         0.5000 
    122 N         -6.4731  -16.7111  -49.2564 N.am      22 UNK        -0.7600 
    123 O         -6.6232  -18.4253  -50.6458 O.2       22 UNK        -0.5000 
    124 C124       -3.8679  -16.3644  -50.9856 C.3       23 UNK        -0.0398 
    125 S125       -2.8590  -17.8709  -51.2215 S.3       23 UNK        -0.2404 
    126 C126       -1.1819  -17.1831  -51.3702 C.3       23 UNK        -0.0205 
    127 H127        0.1525  -10.4364  -52.5163 H         1 UNK         0.0600 
    128 H128        1.8996  -10.2549  -52.7085 H         1 UNK         0.0600 
    129 H129        1.1269   -9.8066  -51.1853 H         1 UNK         0.0600 
    130 H130        1.4825  -11.3186  -49.5891 H         1 UNK         0.3000 
    131 H131        0.9958  -14.1178  -49.9316 H         1 UNK         0.0600 
    132 H132        1.9574  -14.2042  -47.5040 H         1 UNK         0.0800 
    133 H133        2.1387  -12.4786  -47.6080 H         1 UNK         0.0800 
    134 H134       -0.1905  -14.9280  -45.9738 H         1 UNK         0.0800 
    135 H135       -1.7190  -14.8015  -46.7997 H         1 UNK         0.0800 
    136 H136       -1.6185  -15.3014  -49.4360 H         1 UNK         0.1150 
    137 H137        0.7448  -18.7740  -50.2929 H         1 UNK         0.1150 
    138 H138        1.2392  -16.7080  -46.5694 H         1 UNK         0.1150 
    139 H139        2.3374  -19.5973  -48.7598 H         1 UNK         0.0800 
    140 H140        3.1338  -18.3319  -47.8649 H         1 UNK         0.0800 
    141 H141        0.1622  -20.5752  -47.9686 H         1 UNK         0.0800 
    142 H142       -0.6100  -19.9542  -46.5398 H         1 UNK         0.0800 
    143 H143        1.0054  -22.5512  -46.7091 H         1 UNK         0.0600 
    144 H144        0.3141  -21.1324  -44.3832 H         1 UNK         0.3000 
    145 H145       -0.0311  -23.8975  -42.1315 H         1 UNK         0.0600 
    146 H146        1.7245  -22.5392  -40.9829 H         1 UNK         0.0600 
    147 H147        2.3936  -23.4995  -42.2934 H         1 UNK         0.0600 
    148 H148        2.1472  -21.7743  -42.5138 H         1 UNK         0.0600 
    149 H149       -0.2104  -20.9465  -42.2105 H         1 UNK         0.3000 
    150 H150       -3.7443  -20.9248  -42.1929 H         1 UNK         0.0600 
    151 H151       -3.3618  -21.3996  -39.7669 H         1 UNK         0.0600 
    152 H152       -3.5784  -19.6806  -40.0536 H         1 UNK         0.0600 
    153 H153       -1.9637  -20.3308  -39.7672 H         1 UNK         0.0600 
    154 H154       -1.8134  -18.8622  -41.7401 H         1 UNK         0.3000 
    155 H155       -0.9441  -18.2132  -45.1079 H         1 UNK         0.0600 
    156 H156       -3.1705  -17.1288  -44.9540 H         1 UNK         0.0600 
    157 H157       -1.8982  -15.9744  -44.5874 H         1 UNK         0.0600 
    158 H158       -2.8552  -16.6671  -43.2840 H         1 UNK         0.0600 
    159 H159       -0.2750  -16.6677  -42.9420 H         1 UNK         0.3000 
    160 H160        2.0058  -18.4027  -41.1402 H         1 UNK         0.0600 
    161 H161        3.1164  -17.1357  -43.6928 H         1 UNK         0.0600 
    162 H162        3.5141  -18.7265  -43.0676 H         1 UNK         0.0600 
    163 H163        3.9945  -17.2921  -42.1730 H         1 UNK         0.0600 
    164 H164        1.7777  -15.6606  -42.2110 H         1 UNK         0.3000 
    165 H165       -0.3758  -14.5364  -39.6960 H         1 UNK         0.0600 
    166 H166        1.4443  -13.0698  -38.8515 H         1 UNK         0.0600 
    167 H167        1.6274  -14.6959  -38.2148 H         1 UNK         0.0600 
    168 H168        2.6629  -14.1510  -39.5289 H         1 UNK         0.0600 
    169 H169        1.4776  -13.1896  -41.4512 H         1 UNK         0.3000 
    170 H170       -0.5476  -13.2757  -44.3540 H         1 UNK         0.0600 
    171 H171       -1.5820  -11.4335  -43.0251 H         1 UNK         0.0600 
    172 H172        0.0095  -10.9253  -42.4722 H         1 UNK         0.0600 
    173 H173       -0.4140  -10.8167  -44.1818 H         1 UNK         0.0600 
    174 H174        1.8469  -11.8766  -43.8686 H         1 UNK         0.3000 
    175 H175        3.7034  -12.6892  -45.1731 H         1 UNK         0.0600 
    176 H176        4.4022  -14.2905  -42.6279 H         1 UNK         0.0600 
    177 H177        5.4997  -13.2042  -43.4760 H         1 UNK         0.0600 
    178 H178        4.0782  -12.5608  -42.6758 H         1 UNK         0.0600 
    179 H179        3.5526  -15.5508  -45.2306 H         1 UNK         0.3000 
    180 H180        6.6315  -16.1077  -46.9457 H         1 UNK         0.0600 
    181 H181        4.0750  -17.4149  -45.8507 H         1 UNK         0.0600 
    182 H182        5.6032  -17.3103  -44.9794 H         1 UNK         0.0600 
    183 H183        5.5000  -18.2335  -46.4690 H         1 UNK         0.0600 
    184 H184        3.8446  -15.8659  -48.0012 H         1 UNK         0.3000 
    185 H185        4.9771  -15.4115  -51.2280 H         1 UNK         0.0600 
    186 H186        4.9826  -17.8957  -51.3761 H         1 UNK         0.0600 
    187 H187        3.5402  -17.9819  -50.3761 H         1 UNK         0.0600 
    188 H188        3.4670  -17.2389  -51.9722 H         1 UNK         0.0600 
    189 H189        2.3592  -15.8322  -50.1145 H         1 UNK         0.3000 
    190 H190       -2.1665  -22.0689  -45.2355 H         1 UNK         0.3000 
    191 H191       -3.8348  -22.9454  -47.2942 H         1 UNK         0.0600 
    192 H192       -4.6145  -21.7921  -45.2317 H         1 UNK         0.0600 
    193 H193       -4.1876  -23.2012  -44.2609 H         1 UNK         0.0600 
    194 H194       -5.4829  -23.3010  -45.4485 H         1 UNK         0.0600 
    195 H195       -1.5259  -24.9021  -45.7517 H         1 UNK         0.3000 
    196 H196       -2.8329  -27.4558  -45.9422 H         1 UNK         0.0600 
    197 H197       -0.5122  -28.3221  -45.7107 H         1 UNK         0.0600 
    198 H198       -0.8156  -27.0525  -44.5346 H         1 UNK         0.0600 
    199 H199        0.1398  -26.7097  -45.9765 H         1 UNK         0.0600 
    200 H200       -1.5256  -25.3011  -48.3879 H         1 UNK         0.3000 
    201 H201       -2.1462  -27.2701  -50.4692 H         1 UNK         0.0600 
    202 H202        0.1993  -27.8916  -49.9843 H         1 UNK         0.0600 
    203 H203        0.7136  -26.2132  -50.1470 H         1 UNK         0.0600 
    204 H204        0.1142  -27.0964  -51.5469 H         1 UNK         0.0600 
    205 H205       -1.0547  -23.9370  -49.6624 H         1 UNK         0.3000 
    206 H206       -1.5601  -23.0389  -52.4188 H         1 UNK         0.0600 
    207 H207        0.4571  -22.2170  -51.3288 H         1 UNK         0.0600 
    208 H208       -0.6571  -20.8768  -51.5458 H         1 UNK         0.0600 
    209 H209       -0.4541  -21.6020  -49.9575 H         1 UNK         0.0600 
    210 H210       -2.5001  -21.6073  -49.2583 H         1 UNK         0.3000 
    211 H211       -4.5541  -20.0861  -50.4392 H         1 UNK         0.0600 
    212 H212       -4.0488  -20.6834  -47.4751 H         1 UNK         0.0600 
    213 H213       -5.0922  -19.4169  -48.1000 H         1 UNK         0.0600 
    214 H214       -3.3657  -19.3550  -48.4071 H         1 UNK         0.0600 
    215 H215       -6.6730  -20.2690  -50.6589 H         1 UNK         0.3000 
    216 H216       -8.5930  -21.2142  -51.1762 H         1 UNK         0.0600 
    217 H217       -9.8571  -22.3238  -49.3717 H         1 UNK         0.0600 
    218 H218       -8.9260  -20.9959  -48.7006 H         1 UNK         0.0600 
    219 H219       -8.3780  -22.6574  -48.4809 H         1 UNK         0.0600 
    220 H220       -6.1961  -22.6240  -52.1397 H         1 UNK         0.3000 
    221 H221       -7.3912  -25.1923  -52.9447 H         1 UNK         0.0600 
    222 H222       -4.8308  -24.9277  -51.2963 H         1 UNK         0.0600 
    223 H223       -6.2561  -25.8755  -50.9187 H         1 UNK         0.0600 
    224 H224       -5.2205  -26.3671  -52.2470 H         1 UNK         0.0600 
    225 H225       -3.9619  -24.7940  -53.3457 H         1 UNK         0.3000 
    226 H226       -4.2677  -24.7792  -56.1978 H         1 UNK         0.0600 
    227 H227       -2.4200  -25.9620  -54.9984 H         1 UNK         0.0600 
    228 H228       -1.8007  -24.8397  -56.2002 H         1 UNK         0.0600 
    229 H229       -1.7495  -24.4097  -54.4970 H         1 UNK         0.0600 
    230 H230       -3.9183  -22.1730  -53.8733 H         1 UNK         0.3000 
    231 H231       -3.4675  -20.1833  -56.0618 H         1 UNK         0.0600 
    232 H232       -1.5301  -20.3109  -54.4916 H         1 UNK         0.0600 
    233 H233       -2.6091  -20.0784  -53.1214 H         1 UNK         0.0600 
    234 H234       -2.3871  -18.7899  -54.2978 H         1 UNK         0.0600 
    235 H235       -4.5324  -18.1631  -55.7383 H         1 UNK         0.3000 
    236 H236       -7.3000  -18.4828  -54.9840 H         1 UNK         0.0600 
    237 H237       -7.5023  -16.2198  -56.0079 H         1 UNK         0.0600 
    238 H238       -5.7506  -16.0780  -56.0873 H         1 UNK         0.0600 
    239 H239       -6.5886  -17.2960  -57.0504 H         1 UNK         0.0600 
    240 H240       -4.6089  -17.5186  -53.1553 H         1 UNK         0.3000 
    241 H241       -5.7684  -15.5050  -51.4850 H         1 UNK         0.0600 
    242 H242       -7.0329  -17.2089  -48.5826 H         1 UNK         0.3800 
    243 H243       -6.1563  -15.7790  -49.0408 H         1 UNK         0.3800 
    244 H244       -3.4089  -15.5497  -51.5464 H         1 UNK         0.0800 
    245 H245       -3.8137  -16.0661  -49.9378 H         1 UNK         0.0800 
    246 H246       -1.2032  -16.2159  -51.8738 H         1 UNK         0.0800 
    247 H247       -0.5993  -17.8428  -52.0150 H         1 UNK         0.0800 
@<TRIPOS>BOND
     1    1    2 1    
     2    1  127 1    
     3    1  128 1    
     4    1  129 1    
     5    2    3 2    
     6    2    4 am   BACKBONE|DICT|INTERRES
     7    4    5 1    
     8    4  130 1    
     9    5    6 1    
    10    5   65 1    
    11    5  131 1    
    12    6    7 1    
    13    6  132 1    
    14    6  133 1    
    15    7    8 1    
    16    8    9 1    
    17    8  134 1    
    18    8  135 1    
    19    9   10 ar   
    20    9   14 ar   
    21   10   11 ar   
    22   10  136 1    
    23   11   12 ar   
    24   11  126 1    
    25   12   13 ar   
    26   12  137 1    
    27   13   14 ar   
    28   13   15 1    
    29   14  138 1    
    30   15   16 1    
    31   15  139 1    
    32   15  140 1    
    33   16   17 1    
    34   17   18 1    
    35   17  141 1    
    36   17  142 1    
    37   18   19 1    
    38   18   67 1    
    39   18  143 1    
    40   19   20 am   BACKBONE|DICT|INTERRES
    41   19  144 1    
    42   20   21 2    
    43   20   22 1    
    44   22   23 1    
    45   22   24 1    
    46   22  145 1    
    47   23  146 1    
    48   23  147 1    
    49   23  148 1    
    50   24   25 am   BACKBONE|DICT|INTERRES
    51   24  149 1    
    52   25   26 2    
    53   25   27 1    
    54   27   28 1    
    55   27   29 1    
    56   27  150 1    
    57   28  151 1    
    58   28  152 1    
    59   28  153 1    
    60   29   30 am   BACKBONE|DICT|INTERRES
    61   29  154 1    
    62   30   31 2    
    63   30   32 1    
    64   32   33 1    
    65   32   34 1    
    66   32  155 1    
    67   33  156 1    
    68   33  157 1    
    69   33  158 1    
    70   34   35 am   BACKBONE|DICT|INTERRES
    71   34  159 1    
    72   35   36 2    
    73   35   37 1    
    74   37   38 1    
    75   37   39 1    
    76   37  160 1    
    77   38  161 1    
    78   38  162 1    
    79   38  163 1    
    80   39   40 am   BACKBONE|DICT|INTERRES
    81   39  164 1    
    82   40   41 2    
    83   40   42 1    
    84   42   43 1    
    85   42   44 1    
    86   42  165 1    
    87   43  166 1    
    88   43  167 1    
    89   43  168 1    
    90   44   45 am   BACKBONE|DICT|INTERRES
    91   44  169 1    
    92   45   46 2    
    93   45   47 1    
    94   47   48 1    
    95   47   49 1    
    96   47  170 1    
    97   48  171 1    
    98   48  172 1    
    99   48  173 1    
   100   49   50 am   BACKBONE|DICT|INTERRES
   101   49  174 1    
   102   50   51 2    
   103   50   52 1    
   104   52   53 1    
   105   52   54 1    
   106   52  175 1    
   107   53  176 1    
   108   53  177 1    
   109   53  178 1    
   110   54   55 am   BACKBONE|DICT|INTERRES
   111   54  179 1    
   112   55   56 2    
   113   55   57 1    
   114   57   58 1    
   115   57   59 1    
   116   57  180 1    
   117   58  181 1    
   118   58  182 1    
   119   58  183 1    
   120   59   60 am   BACKBONE|DICT|INTERRES
   121   59  184 1    
   122   60   61 2    
   123   60   62 1    
   124   62   63 1    
   125   62   64 1    
   126   62  185 1    
   127   63  186 1    
   128   63  187 1    
   129   63  188 1    
   130   64   65 am   BACKBONE|DICT|INTERRES
   131   64  189 1    
   132   65   66 2    
   133   67   68 2    
   134   67   69 am   BACKBONE|DICT|INTERRES
   135   69   70 1    
   136   69  190 1    
   137   70   71 1    
   138   70   72 1    
   139   70  191 1    
   140   71  192 1    
   141   71  193 1    
   142   71  194 1    
   143   72   73 2    
   144   72   74 am   BACKBONE|DICT|INTERRES
   145   74   75 1    
   146   74  195 1    
   147   75   76 1    
   148   75   77 1    
   149   75  196 1    
   150   76  197 1    
   151   76  198 1    
   152   76  199 1    
   153   77   78 2    
   154   77   79 am   BACKBONE|DICT|INTERRES
   155   79   80 1    
   156   79  200 1    
   157   80   81 1    
   158   80   82 1    
   159   80  201 1    
   160   81  202 1    
   161   81  203 1    
   162   81  204 1    
   163   82   83 2    
   164   82   84 am   BACKBONE|DICT|INTERRES
   165   84   85 1    
   166   84  205 1    
   167   85   86 1    
   168   85   87 1    
   169   85  206 1    
   170   86  207 1    
   171   86  208 1    
   172   86  209 1    
   173   87   88 2    
   174   87   89 am   BACKBONE|DICT|INTERRES
   175   89   90 1    
   176   89  210 1    
   177   90   91 1    
   178   90   92 1    
   179   90  211 1    
   180   91  212 1    
   181   91  213 1    
   182   91  214 1    
   183   92   93 2    
   184   92   94 am   BACKBONE|DICT|INTERRES
   185   94   95 1    
   186   94  215 1    
   187   95   96 1    
   188   95   97 1    
   189   95  216 1    
   190   96  217 1    
   191   96  218 1    
   192   96  219 1    
   193   97   98 2    
   194   97   99 am   BACKBONE|DICT|INTERRES
   195   99  100 1    
   196   99  220 1    
   197  100  101 1    
   198  100  102 1    
   199  100  221 1    
   200  101  222 1    
   201  101  223 1    
   202  101  224 1    
   203  102  103 2    
   204  102  104 am   BACKBONE|DICT|INTERRES
   205  104  105 1    
   206  104  225 1    
   207  105  106 1    
   208  105  107 1    
   209  105  226 1    
   210  106  227 1    
   211  106  228 1    
   212  106  229 1    
   213  107  108 2    
   214  107  109 am   BACKBONE|DICT|INTERRES
   215  109  110 1    
   216  109  230 1    
   217  110  111 1    
   218  110  112 1    
   219  110  231 1    
   220  111  232 1    
   221  111  233 1    
   222  111  234 1    
   223  112  113 2    
   224  112  114 am   BACKBONE|DICT|INTERRES
   225  114  115 1    
   226  114  235 1    
   227  115  116 1    
   228  115  117 1    
   229  115  236 1    
   230  116  237 1    
   231  116  238 1    
   232  116  239 1    
   233  117  118 2    
   234  117  119 am   BACKBONE|DICT|INTERRES
   235  119  120 1    
   236  119  240 1    
   237  120  121 1    
   238  120  124 1    
   239  120  241 1    
   240  121  122 am   BACKBONE|DICT|INTERRES
   241  121  123 2    
   242  122  242 1    
   243  122  243 1    
   244  124  125 1    
   245  124  244 1    
   246  124  245 1    
   247  125  126 1    
   248  126  246 1    
   249  126  247 1    
@<TRIPOS>SUBSTRUCTURE
     1 UNK         1 GROUP             0       ****    0 ROOT    
