@<TRIPOS>MOLECULE
3R540
247   249    1
SMALL
USER_CHARGES


@<TRIPOS>ATOM
      1 CA         -0.6696  -13.0670  -54.3217 C.3       0 UNK        -0.1800 
      2 C          -0.1100  -13.4840  -52.9687 C.2       0 UNK         0.5000 
      3 O           0.7902  -12.8246  -52.4477 O.2       0 UNK        -0.5000 
      4 N          -0.6334  -14.5790  -52.4053 N.am      1 UNK        -0.5000 
      5 CA         -0.2675  -15.1098  -51.0884 C.3       1 UNK         0.1400 
      6 C6         -0.8047  -16.5447  -50.8773 C.3       23 UNK        -0.0398 
      7 S7         -0.1054  -17.7185  -52.0890 S.3       23 UNK        -0.2404 
      8 C8          1.2859  -18.3914  -51.1197 C.3       23 UNK        -0.0205 
      9 C9          2.1294  -19.4791  -51.7874 C.ar      23 UNK        -0.0193 
     10 C10         1.8841  -19.9757  -53.0774 C.ar      23 UNK        -0.1150 
     11 C11         2.7186  -20.9502  -53.6378 C.ar      23 UNK        -0.0193 
     12 C12         3.7975  -21.4362  -52.8950 C.ar      23 UNK        -0.1150 
     13 C13         4.0444  -20.9665  -51.6044 C.ar      23 UNK        -0.0193 
     14 C14         3.2104  -19.9880  -51.0607 C.ar      23 UNK        -0.1150 
     15 C15         5.2287  -21.5026  -50.8171 C.3       23 UNK        -0.0205 
     16 S16         4.7835  -22.9827  -49.8570 S.3       23 UNK        -0.2404 
     17 C17         4.2088  -22.2629  -48.2826 C.3       23 UNK        -0.0398 
     18 CA          2.8761  -22.8884  -47.7890 C.3       11 UNK         0.1400 
     19 N           2.9226  -23.1881  -46.3547 N.am      11 UNK        -0.5000 
     20 C           2.0339  -23.9509  -45.7036 C.2       10 UNK         0.5000 
     21 O           1.0891  -24.5136  -46.2535 O.2       10 UNK        -0.5000 
     22 CA          2.2042  -24.0711  -44.1767 C.3       10 UNK         0.1400 
     23 CB          3.0410  -25.3099  -43.8259 C.3       10 UNK        -0.1800 
     24 N           2.8111  -22.8872  -43.5618 N.am      10 UNK        -0.5000 
     25 C           2.2688  -21.6630  -43.5660 C.2       9 UNK         0.5000 
     26 O           1.1905  -21.3935  -44.1001 O.2       9 UNK        -0.5000 
     27 CA          3.0957  -20.5497  -42.9082 C.3       9 UNK         0.1400 
     28 CB          3.3551  -19.3983  -43.8937 C.3       9 UNK        -0.1800 
     29 N           2.4096  -20.0304  -41.7311 N.am      9 UNK        -0.5000 
     30 C           2.4891  -20.5670  -40.5073 C.2       8 UNK         0.5000 
     31 O           3.1316  -21.5872  -40.2543 O.2       8 UNK        -0.5000 
     32 CA          1.7498  -19.8432  -39.3707 C.3       8 UNK         0.1400 
     33 CB          2.5282  -18.5937  -38.9273 C.3       8 UNK        -0.1800 
     34 N           0.3948  -19.4511  -39.7580 N.am      8 UNK        -0.5000 
     35 C          -0.7139  -19.7460  -39.0631 C.2       7 UNK         0.5000 
     36 O          -0.7103  -20.3982  -38.0179 O.2       7 UNK        -0.5000 
     37 CA         -2.0626  -19.2221  -39.6035 C.3       7 UNK         0.1400 
     38 CB         -2.5207  -17.9967  -38.7983 C.3       7 UNK        -0.1800 
     39 N          -2.0294  -18.8695  -41.0228 N.am      7 UNK        -0.5000 
     40 C          -1.8962  -19.7556  -42.0201 C.2       6 UNK         0.5000 
     41 O          -1.9027  -20.9734  -41.8434 O.2       6 UNK        -0.5000 
     42 CA         -1.7025  -19.2043  -43.4481 C.3       6 UNK         0.1400 
     43 CB         -3.0098  -19.3285  -44.2405 C.3       6 UNK        -0.1800 
     44 N          -1.2476  -17.8119  -43.5256 N.am      6 UNK        -0.5000 
     45 C          -0.1500  -17.2959  -42.9494 C.2       5 UNK         0.5000 
     46 O           0.6660  -17.9642  -42.3162 O.2       5 UNK        -0.5000 
     47 CA          0.0326  -15.7664  -43.0208 C.3       5 UNK         0.1400 
     48 CB          0.9652  -15.4053  -44.1846 C.3       5 UNK        -0.1800 
     49 N          -1.2245  -15.0230  -43.1566 N.am      5 UNK        -0.5000 
     50 C          -2.2826  -15.1253  -42.3359 C.2       4 UNK         0.5000 
     51 O          -2.2691  -15.7813  -41.2934 O.2       4 UNK        -0.5000 
     52 CA         -3.5964  -14.4425  -42.7668 C.3       4 UNK         0.1400 
     53 CB         -3.8542  -13.1914  -41.9135 C.3       4 UNK        -0.1800 
     54 N          -3.6733  -14.0700  -44.1820 N.am      4 UNK        -0.5000 
     55 C          -3.5464  -14.8804  -45.2433 C.2       3 UNK         0.5000 
     56 O          -3.3134  -16.0879  -45.1662 O.2       3 UNK        -0.5000 
     57 CA         -3.6675  -14.2167  -46.6311 C.3       3 UNK         0.1400 
     58 CB         -4.4972  -12.9156  -46.6208 C.3       3 UNK        -0.1800 
     59 N          -2.3821  -13.9689  -47.2926 N.am      3 UNK        -0.5000 
     60 C          -1.2596  -13.4436  -46.7807 C.2       2 UNK         0.5000 
     61 O          -1.1087  -13.1871  -45.5848 O.2       2 UNK        -0.5000 
     62 CA         -0.1181  -13.1253  -47.7771 C.3       2 UNK         0.1400 
     63 CB          1.2476  -12.9710  -47.0826 C.3       2 UNK        -0.1800 
     64 N           0.0359  -14.0757  -48.8855 N.am      2 UNK        -0.5000 
     65 C          -0.7522  -14.1712  -49.9639 C.2       1 UNK         0.5000 
     66 O          -1.8239  -13.5720  -50.0798 O.2       1 UNK        -0.5000 
     67 C           1.6515  -22.0163  -48.1461 C.2       11 UNK         0.5000 
     68 O           0.9783  -22.2821  -49.1404 O.2       11 UNK        -0.5000 
     69 N           1.3449  -21.0272  -47.2917 N.am      12 UNK        -0.5000 
     70 CA          0.1547  -20.1841  -47.4133 C.3       12 UNK         0.1400 
     71 CB          0.3235  -18.9091  -46.5750 C.3       12 UNK        -0.1800 
     72 C          -1.1381  -20.9356  -47.0545 C.2       12 UNK         0.5000 
     73 O          -2.1726  -20.6764  -47.6688 O.2       12 UNK        -0.5000 
     74 N          -1.0569  -21.8788  -46.1048 N.am      13 UNK        -0.5000 
     75 CA         -2.1489  -22.7941  -45.7679 C.3       13 UNK         0.1400 
     76 CB         -1.8088  -23.5744  -44.4904 C.3       13 UNK        -0.1800 
     77 C          -2.4854  -23.7450  -46.9318 C.2       13 UNK         0.5000 
     78 O          -3.6604  -23.8987  -47.2648 O.2       13 UNK        -0.5000 
     79 N          -1.4517  -24.3132  -47.5710 N.am      14 UNK        -0.5000 
     80 CA         -1.5611  -25.1393  -48.7776 C.3       14 UNK         0.1400 
     81 CB         -0.1891  -25.7411  -49.1160 C.3       14 UNK        -0.1800 
     82 C          -2.1316  -24.3672  -49.9830 C.2       14 UNK         0.5000 
     83 O          -2.9173  -24.9268  -50.7476 O.2       14 UNK        -0.5000 
     84 N          -1.7772  -23.0797  -50.0911 N.am      15 UNK        -0.5000 
     85 CA         -2.3140  -22.1367  -51.0721 C.3       15 UNK         0.1400 
     86 CB         -1.3335  -20.9677  -51.2292 C.3       15 UNK        -0.1800 
     87 C          -3.7334  -21.6231  -50.7488 C.2       15 UNK         0.5000 
     88 O          -4.2630  -20.8219  -51.5207 O.2       15 UNK        -0.5000 
     89 N          -4.3242  -22.0833  -49.6363 N.am      16 UNK        -0.5000 
     90 CA         -5.6661  -21.7643  -49.1469 C.3       16 UNK         0.1400 
     91 CB         -6.7462  -22.3272  -50.0946 C.3       16 UNK        -0.1800 
     92 C          -5.8474  -20.2725  -48.8015 C.2       16 UNK         0.5000 
     93 O          -6.9032  -19.6938  -49.0683 O.2       16 UNK        -0.5000 
     94 N          -4.8118  -19.6860  -48.1828 N.am      17 UNK        -0.5000 
     95 CA         -4.7607  -18.3236  -47.6550 C.3       17 UNK         0.1400 
     96 CB         -5.7034  -18.1984  -46.4338 C.3       17 UNK        -0.1800 
     97 C          -5.0091  -17.2730  -48.7554 C.2       17 UNK         0.5000 
     98 O          -4.2477  -17.2139  -49.7223 O.2       17 UNK        -0.5000 
     99 N          -6.0675  -16.4680  -48.5935 N.am      18 UNK        -0.5000 
    100 CA        -6.4624  -15.3773  -49.4853 C.3       18 UNK         0.1400 
    101 CB        -7.5542  -14.5482  -48.7915 C.3       18 UNK        -0.1800 
    102 C         -6.9238  -15.8283  -50.8861 C.2       18 UNK         0.5000 
    103 O         -7.0105  -14.9860  -51.7805 O.2       18 UNK        -0.5000 
    104 N         -7.1964  -17.1301  -51.0706 N.am      19 UNK        -0.5000 
    105 CA        -7.4806  -17.7298  -52.3772 C.3       19 UNK         0.1400 
    106 CB        -7.9806  -19.1670  -52.1828 C.3       19 UNK        -0.1800 
    107 C         -6.2580  -17.7130  -53.3167 C.2       19 UNK         0.5000 
    108 O         -6.4392  -17.6274  -54.5317 O.2       19 UNK        -0.5000 
    109 N         -5.0511  -17.7662  -52.7294 N.am      20 UNK        -0.5000 
    110 CA        -3.7398  -17.6661  -53.3720 C.3       20 UNK         0.1400 
    111 CB        -3.4737  -16.2112  -53.8093 C.3       20 UNK        -0.1800 
    112 C         -3.5257  -18.6910  -54.5040 C.2       20 UNK         0.5000 
    113 O         -3.1678  -18.3192  -55.6242 O.2       20 UNK        -0.5000 
    114 N         -3.7658  -19.9674  -54.1820 N.am      21 UNK        -0.5000 
    115 CA        -3.4804  -21.1173  -55.0361 C.3       21 UNK         0.1400 
    116 CB        -4.4968  -22.2329  -54.7160 C.3       21 UNK        -0.1800 
    117 C         -2.0029  -21.5387  -54.8688 C.2       21 UNK         0.5000 
    118 O         -1.1145  -20.6887  -54.9388 O.2       21 UNK        -0.5000 
    119 N         -1.7513  -22.8317  -54.6398 N.am      22 UNK        -0.5000 
    120 CA        -0.4230  -23.3844  -54.3379 C.3       22 UNK         0.1400 
    121 C         -0.5095  -24.7774  -53.6573 C.2       22 UNK         0.5000 
    122 N         -1.4856  -25.6139  -53.9947 N.am      22 UNK        -0.7600 
    123 O          0.3004  -25.0992  -52.7940 O.2       22 UNK        -0.5000 
    124 C124        0.5091  -23.3981  -55.5805 C.3       23 UNK        -0.0398 
    125 S125        2.2748  -23.2518  -55.1527 S.3       23 UNK        -0.2404 
    126 C126        2.5002  -21.4418  -55.0638 C.3       23 UNK        -0.0205 
    127 H127       -1.0757  -12.0571  -54.2642 H         1 UNK         0.0600 
    128 H128       -1.4649  -13.7337  -54.6559 H         1 UNK         0.0600 
    129 H129        0.1198  -13.0761  -55.0733 H         1 UNK         0.0600 
    130 H130       -1.3735  -15.0723  -52.8801 H         1 UNK         0.3000 
    131 H131        0.8233  -15.1464  -51.0432 H         1 UNK         0.0600 
    132 H132       -0.5859  -16.9014  -49.8691 H         1 UNK         0.0800 
    133 H133       -1.8919  -16.5607  -50.9667 H         1 UNK         0.0800 
    134 H134        0.8923  -18.7942  -50.1891 H         1 UNK         0.0800 
    135 H135        1.9431  -17.5642  -50.8479 H         1 UNK         0.0800 
    136 H136        1.0557  -19.6012  -53.6607 H         1 UNK         0.1150 
    137 H137        4.4489  -22.1838  -53.3259 H         1 UNK         0.1150 
    138 H138        3.4073  -19.6134  -50.0662 H         1 UNK         0.1150 
    139 H139        6.0328  -21.7669  -51.5057 H         1 UNK         0.0800 
    140 H140        5.6397  -20.7323  -50.1629 H         1 UNK         0.0800 
    141 H141        4.1472  -21.1758  -48.3535 H         1 UNK         0.0800 
    142 H142        5.0086  -22.4530  -47.5653 H         1 UNK         0.0800 
    143 H143        2.7336  -23.8481  -48.2914 H         1 UNK         0.0600 
    144 H144        3.6727  -22.7722  -45.8233 H         1 UNK         0.3000 
    145 H145        1.2110  -24.1969  -43.7422 H         1 UNK         0.0600 
    146 H146        3.0986  -25.4546  -42.7469 H         1 UNK         0.0600 
    147 H147        2.5987  -26.2125  -44.2499 H         1 UNK         0.0600 
    148 H148        4.0588  -25.2313  -44.2100 H         1 UNK         0.0600 
    149 H149        3.6915  -23.0292  -43.0873 H         1 UNK         0.3000 
    150 H150        4.0669  -20.9518  -42.6115 H         1 UNK         0.0600 
    151 H151        3.8538  -19.7566  -44.7950 H         1 UNK         0.0600 
    152 H152        3.9968  -18.6387  -43.4471 H         1 UNK         0.0600 
    153 H153        2.4311  -18.9092  -44.2005 H         1 UNK         0.0600 
    154 H154        1.8181  -19.2169  -41.8902 H         1 UNK         0.3000 
    155 H155        1.7205  -20.5356  -38.5268 H         1 UNK         0.0600 
    156 H156        2.5797  -17.8480  -39.7218 H         1 UNK         0.0600 
    157 H157        3.5510  -18.8481  -38.6462 H         1 UNK         0.0600 
    158 H158        2.0594  -18.1268  -38.0610 H         1 UNK         0.0600 
    159 H159        0.3053  -18.9276  -40.6225 H         1 UNK         0.3000 
    160 H160       -2.8011  -20.0148  -39.4674 H         1 UNK         0.0600 
    161 H161       -1.8137  -17.1710  -38.8885 H         1 UNK         0.0600 
    162 H162       -2.6127  -18.2362  -37.7381 H         1 UNK         0.0600 
    163 H163       -3.4944  -17.6421  -39.1371 H         1 UNK         0.0600 
    164 H164       -2.0335  -17.8789  -41.2409 H         1 UNK         0.3000 
    165 H165       -0.9491  -19.8317  -43.9232 H         1 UNK         0.0600 
    166 H166       -2.8537  -19.0898  -45.2914 H         1 UNK         0.0600 
    167 H167       -3.4103  -20.3409  -44.1912 H         1 UNK         0.0600 
    168 H168       -3.7750  -18.6548  -43.8531 H         1 UNK         0.0600 
    169 H169       -1.8661  -17.1752  -44.0167 H         1 UNK         0.3000 
    170 H170        0.5030  -15.4495  -42.0881 H         1 UNK         0.0600 
    171 H171        1.9197  -15.9266  -44.0998 H         1 UNK         0.0600 
    172 H172        0.5268  -15.6756  -45.1462 H         1 UNK         0.0600 
    173 H173        1.1788  -14.3364  -44.1990 H         1 UNK         0.0600 
    174 H174       -1.3158  -14.4414  -43.9840 H         1 UNK         0.3000 
    175 H175       -4.3996  -15.1573  -42.5779 H         1 UNK         0.0600 
    176 H176       -3.0973  -12.4254  -42.0871 H         1 UNK         0.0600 
    177 H177       -4.8298  -12.7571  -42.1327 H         1 UNK         0.0600 
    178 H178       -3.8401  -13.4320  -40.8495 H         1 UNK         0.0600 
    179 H179       -3.8107  -13.0872  -44.3664 H         1 UNK         0.3000 
    180 H180       -4.1977  -14.9316  -47.2567 H         1 UNK         0.0600 
    181 H181       -3.9793  -12.1014  -46.1126 H         1 UNK         0.0600 
    182 H182       -5.4597  -13.0621  -46.1286 H         1 UNK         0.0600 
    183 H183       -4.7073  -12.5842  -47.6380 H         1 UNK         0.0600 
    184 H184       -2.3838  -14.0945  -48.2998 H         1 UNK         0.3000 
    185 H185       -0.3686  -12.1543  -48.2093 H         1 UNK         0.0600 
    186 H186        1.5868  -13.9123  -46.6506 H         1 UNK         0.0600 
    187 H187        2.0094  -12.6337  -47.7858 H         1 UNK         0.0600 
    188 H188        1.2081  -12.2329  -46.2804 H         1 UNK         0.0600 
    189 H189        0.8769  -14.6336  -48.8555 H         1 UNK         0.3000 
    190 H190        1.8989  -20.9093  -46.4563 H         1 UNK         0.3000 
    191 H191        0.0571  -19.8803  -48.4543 H         1 UNK         0.0600 
    192 H192       -0.5740  -18.2898  -46.6125 H         1 UNK         0.0600 
    193 H193        1.1518  -18.3038  -46.9432 H         1 UNK         0.0600 
    194 H194        0.5212  -19.1396  -45.5302 H         1 UNK         0.0600 
    195 H195       -0.1867  -21.9880  -45.5973 H         1 UNK         0.3000 
    196 H196       -3.0370  -22.1924  -45.5677 H         1 UNK         0.0600 
    197 H197       -2.6749  -24.1371  -44.1405 H         1 UNK         0.0600 
    198 H198       -1.5071  -22.9053  -43.6849 H         1 UNK         0.0600 
    199 H199       -1.0031  -24.2890  -44.6514 H         1 UNK         0.0600 
    200 H200       -0.5153  -24.1859  -47.1953 H         1 UNK         0.3000 
    201 H201       -2.2468  -25.9596  -48.5561 H         1 UNK         0.0600 
    202 H202        0.1881  -26.3518  -48.2957 H         1 UNK         0.0600 
    203 H203        0.5498  -24.9671  -49.3249 H         1 UNK         0.0600 
    204 H204       -0.2502  -26.3795  -49.9984 H         1 UNK         0.0600 
    205 H205       -1.0691  -22.7199  -49.4611 H         1 UNK         0.3000 
    206 H206       -2.3798  -22.6548  -52.0276 H         1 UNK         0.0600 
    207 H207       -0.3276  -21.3193  -51.4590 H         1 UNK         0.0600 
    208 H208       -1.6373  -20.3097  -52.0432 H         1 UNK         0.0600 
    209 H209       -1.2823  -20.3630  -50.3247 H         1 UNK         0.0600 
    210 H210       -3.7979  -22.7179  -49.0481 H         1 UNK         0.3000 
    211 H211       -5.7707  -22.2918  -48.1980 H         1 UNK         0.0600 
    212 H212       -6.6770  -21.9033  -51.0951 H         1 UNK         0.0600 
    213 H213       -7.7492  -22.1231  -49.7182 H         1 UNK         0.0600 
    214 H214       -6.6521  -23.4089  -50.1895 H         1 UNK         0.0600 
    215 H215       -3.9511  -20.2176  -48.0704 H         1 UNK         0.3000 
    216 H216       -3.7392  -18.1616  -47.3087 H         1 UNK         0.0600 
    217 H217       -5.6113  -17.2230  -45.9563 H         1 UNK         0.0600 
    218 H218       -5.4617  -18.9459  -45.6794 H         1 UNK         0.0600 
    219 H219       -6.7511  -18.3408  -46.7008 H         1 UNK         0.0600 
    220 H220       -6.6621  -16.6249  -47.7927 H         1 UNK         0.3000 
    221 H221       -5.5896  -14.7369  -49.6300 H         1 UNK         0.0600 
    222 H222       -8.4501  -15.1413  -48.6041 H         1 UNK         0.0600 
    223 H223       -7.2053  -14.1539  -47.8370 H         1 UNK         0.0600 
    224 H224       -7.8477  -13.6949  -49.4044 H         1 UNK         0.0600 
    225 H225       -7.1090  -17.7668  -50.2874 H         1 UNK         0.3000 
    226 H226       -8.2770  -17.1513  -52.8500 H         1 UNK         0.0600 
    227 H227       -7.1976  -19.7997  -51.7676 H         1 UNK         0.0600 
    228 H228       -8.8386  -19.2053  -51.5114 H         1 UNK         0.0600 
    229 H229       -8.2863  -19.6063  -53.1331 H         1 UNK         0.0600 
    230 H230       -5.0230  -17.8409  -51.7193 H         1 UNK         0.3000 
    231 H231       -3.0138  -17.9202  -52.6003 H         1 UNK         0.0600 
    232 H232       -2.4697  -16.1068  -54.2215 H         1 UNK         0.0600 
    233 H233       -3.5591  -15.5257  -52.9660 H         1 UNK         0.0600 
    234 H234       -4.1777  -15.8865  -54.5762 H         1 UNK         0.0600 
    235 H235       -4.0445  -20.1801  -53.2256 H         1 UNK         0.3000 
    236 H236       -3.6166  -20.8344  -56.0817 H         1 UNK         0.0600 
    237 H237       -5.5183  -21.8688  -54.8287 H         1 UNK         0.0600 
    238 H238       -4.3869  -23.0785  -55.3958 H         1 UNK         0.0600 
    239 H239       -4.3941  -22.6030  -53.6954 H         1 UNK         0.0600 
    240 H240       -2.5246  -23.4742  -54.5531 H         1 UNK         0.3000 
    241 H241        0.0150  -22.7183  -53.5908 H         1 UNK         0.0600 
    242 H242       -1.5385  -26.5029  -53.5223 H         1 UNK         0.3800 
    243 H243       -2.1214  -25.4261  -54.7519 H         1 UNK         0.3800 
    244 H244        0.3652  -24.3094  -56.1635 H         1 UNK         0.0800 
    245 H245        0.2645  -22.5882  -56.2676 H         1 UNK         0.0800 
    246 H246        3.3745  -21.1733  -55.6582 H         1 UNK         0.0800 
    247 H247        1.6553  -20.9269  -55.5230 H         1 UNK         0.0800 
@<TRIPOS>BOND
     1    1    2 1    
     2    1  127 1    
     3    1  128 1    
     4    1  129 1    
     5    2    3 2    
     6    2    4 am   BACKBONE|DICT|INTERRES
     7    4    5 1    
     8    4  130 1    
     9    5    6 1    
    10    5   65 1    
    11    5  131 1    
    12    6    7 1    
    13    6  132 1    
    14    6  133 1    
    15    7    8 1    
    16    8    9 1    
    17    8  134 1    
    18    8  135 1    
    19    9   10 ar   
    20    9   14 ar   
    21   10   11 ar   
    22   10  136 1    
    23   11   12 ar   
    24   11  126 1    
    25   12   13 ar   
    26   12  137 1    
    27   13   14 ar   
    28   13   15 1    
    29   14  138 1    
    30   15   16 1    
    31   15  139 1    
    32   15  140 1    
    33   16   17 1    
    34   17   18 1    
    35   17  141 1    
    36   17  142 1    
    37   18   19 1    
    38   18   67 1    
    39   18  143 1    
    40   19   20 am   BACKBONE|DICT|INTERRES
    41   19  144 1    
    42   20   21 2    
    43   20   22 1    
    44   22   23 1    
    45   22   24 1    
    46   22  145 1    
    47   23  146 1    
    48   23  147 1    
    49   23  148 1    
    50   24   25 am   BACKBONE|DICT|INTERRES
    51   24  149 1    
    52   25   26 2    
    53   25   27 1    
    54   27   28 1    
    55   27   29 1    
    56   27  150 1    
    57   28  151 1    
    58   28  152 1    
    59   28  153 1    
    60   29   30 am   BACKBONE|DICT|INTERRES
    61   29  154 1    
    62   30   31 2    
    63   30   32 1    
    64   32   33 1    
    65   32   34 1    
    66   32  155 1    
    67   33  156 1    
    68   33  157 1    
    69   33  158 1    
    70   34   35 am   BACKBONE|DICT|INTERRES
    71   34  159 1    
    72   35   36 2    
    73   35   37 1    
    74   37   38 1    
    75   37   39 1    
    76   37  160 1    
    77   38  161 1    
    78   38  162 1    
    79   38  163 1    
    80   39   40 am   BACKBONE|DICT|INTERRES
    81   39  164 1    
    82   40   41 2    
    83   40   42 1    
    84   42   43 1    
    85   42   44 1    
    86   42  165 1    
    87   43  166 1    
    88   43  167 1    
    89   43  168 1    
    90   44   45 am   BACKBONE|DICT|INTERRES
    91   44  169 1    
    92   45   46 2    
    93   45   47 1    
    94   47   48 1    
    95   47   49 1    
    96   47  170 1    
    97   48  171 1    
    98   48  172 1    
    99   48  173 1    
   100   49   50 am   BACKBONE|DICT|INTERRES
   101   49  174 1    
   102   50   51 2    
   103   50   52 1    
   104   52   53 1    
   105   52   54 1    
   106   52  175 1    
   107   53  176 1    
   108   53  177 1    
   109   53  178 1    
   110   54   55 am   BACKBONE|DICT|INTERRES
   111   54  179 1    
   112   55   56 2    
   113   55   57 1    
   114   57   58 1    
   115   57   59 1    
   116   57  180 1    
   117   58  181 1    
   118   58  182 1    
   119   58  183 1    
   120   59   60 am   BACKBONE|DICT|INTERRES
   121   59  184 1    
   122   60   61 2    
   123   60   62 1    
   124   62   63 1    
   125   62   64 1    
   126   62  185 1    
   127   63  186 1    
   128   63  187 1    
   129   63  188 1    
   130   64   65 am   BACKBONE|DICT|INTERRES
   131   64  189 1    
   132   65   66 2    
   133   67   68 2    
   134   67   69 am   BACKBONE|DICT|INTERRES
   135   69   70 1    
   136   69  190 1    
   137   70   71 1    
   138   70   72 1    
   139   70  191 1    
   140   71  192 1    
   141   71  193 1    
   142   71  194 1    
   143   72   73 2    
   144   72   74 am   BACKBONE|DICT|INTERRES
   145   74   75 1    
   146   74  195 1    
   147   75   76 1    
   148   75   77 1    
   149   75  196 1    
   150   76  197 1    
   151   76  198 1    
   152   76  199 1    
   153   77   78 2    
   154   77   79 am   BACKBONE|DICT|INTERRES
   155   79   80 1    
   156   79  200 1    
   157   80   81 1    
   158   80   82 1    
   159   80  201 1    
   160   81  202 1    
   161   81  203 1    
   162   81  204 1    
   163   82   83 2    
   164   82   84 am   BACKBONE|DICT|INTERRES
   165   84   85 1    
   166   84  205 1    
   167   85   86 1    
   168   85   87 1    
   169   85  206 1    
   170   86  207 1    
   171   86  208 1    
   172   86  209 1    
   173   87   88 2    
   174   87   89 am   BACKBONE|DICT|INTERRES
   175   89   90 1    
   176   89  210 1    
   177   90   91 1    
   178   90   92 1    
   179   90  211 1    
   180   91  212 1    
   181   91  213 1    
   182   91  214 1    
   183   92   93 2    
   184   92   94 am   BACKBONE|DICT|INTERRES
   185   94   95 1    
   186   94  215 1    
   187   95   96 1    
   188   95   97 1    
   189   95  216 1    
   190   96  217 1    
   191   96  218 1    
   192   96  219 1    
   193   97   98 2    
   194   97   99 am   BACKBONE|DICT|INTERRES
   195   99  100 1    
   196   99  220 1    
   197  100  101 1    
   198  100  102 1    
   199  100  221 1    
   200  101  222 1    
   201  101  223 1    
   202  101  224 1    
   203  102  103 2    
   204  102  104 am   BACKBONE|DICT|INTERRES
   205  104  105 1    
   206  104  225 1    
   207  105  106 1    
   208  105  107 1    
   209  105  226 1    
   210  106  227 1    
   211  106  228 1    
   212  106  229 1    
   213  107  108 2    
   214  107  109 am   BACKBONE|DICT|INTERRES
   215  109  110 1    
   216  109  230 1    
   217  110  111 1    
   218  110  112 1    
   219  110  231 1    
   220  111  232 1    
   221  111  233 1    
   222  111  234 1    
   223  112  113 2    
   224  112  114 am   BACKBONE|DICT|INTERRES
   225  114  115 1    
   226  114  235 1    
   227  115  116 1    
   228  115  117 1    
   229  115  236 1    
   230  116  237 1    
   231  116  238 1    
   232  116  239 1    
   233  117  118 2    
   234  117  119 am   BACKBONE|DICT|INTERRES
   235  119  120 1    
   236  119  240 1    
   237  120  121 1    
   238  120  124 1    
   239  120  241 1    
   240  121  122 am   BACKBONE|DICT|INTERRES
   241  121  123 2    
   242  122  242 1    
   243  122  243 1    
   244  124  125 1    
   245  124  244 1    
   246  124  245 1    
   247  125  126 1    
   248  126  246 1    
   249  126  247 1    
@<TRIPOS>SUBSTRUCTURE
     1 UNK         1 GROUP             0       ****    0 ROOT    
