@<TRIPOS>MOLECULE
3R540
247   249    1
SMALL
USER_CHARGES


@<TRIPOS>ATOM
      1 CA          0.3792  -16.2248  -45.6174 C.3       0 UNK        -0.1800 
      2 C          -1.0180  -15.8143  -46.0532 C.2       0 UNK         0.5000 
      3 O          -1.9451  -15.8672  -45.2455 O.2       0 UNK        -0.5000 
      4 N          -1.1708  -15.3771  -47.3110 N.am      1 UNK        -0.5000 
      5 CA         -2.4098  -14.8121  -47.8604 C.3       1 UNK         0.1400 
      6 C6         -2.3454  -14.6118  -49.3958 C.3       23 UNK        -0.0398 
      7 S7         -2.1102  -16.1902  -50.2780 S.3       23 UNK        -0.2404 
      8 C8         -0.6194  -15.8651  -51.2707 C.3       23 UNK        -0.0205 
      9 C9         -0.0034  -17.1791  -51.7188 C.ar      23 UNK        -0.0193 
     10 C10        -0.3686  -17.7661  -52.9323 C.ar      23 UNK        -0.1150 
     11 C11         0.1503  -19.0118  -53.2966 C.ar      23 UNK        -0.0193 
     12 C12         1.0218  -19.6747  -52.4248 C.ar      23 UNK        -0.1150 
     13 C13         1.3968  -19.1018  -51.2042 C.ar      23 UNK        -0.0193 
     14 C14         0.9014  -17.8329  -50.8813 C.ar      23 UNK        -0.1150 
     15 C15         2.3005  -19.9131  -50.2700 C.3       23 UNK        -0.0205 
     16 S16         2.8648  -19.0910  -48.7315 S.3       23 UNK        -0.2404 
     17 C17         1.3764  -18.9111  -47.6760 C.3       23 UNK        -0.0398 
     18 CA          0.4299  -20.1279  -47.5925 C.3       11 UNK         0.1400 
     19 N           1.1410  -21.3384  -47.1727 N.am      11 UNK        -0.5000 
     20 C           0.6169  -22.5683  -47.0864 C.2       10 UNK         0.5000 
     21 O          -0.5851  -22.8032  -47.1949 O.2       10 UNK        -0.5000 
     22 CA          1.6003  -23.7379  -46.8683 C.3       10 UNK         0.1400 
     23 CB          1.7369  -24.5468  -48.1675 C.3       10 UNK        -0.1800 
     24 N           2.9369  -23.2832  -46.4649 N.am      10 UNK        -0.5000 
     25 C           3.3582  -22.9631  -45.2334 C.2       9 UNK         0.5000 
     26 O           4.4719  -22.4693  -45.0490 O.2       9 UNK        -0.5000 
     27 CA          2.4613  -23.2317  -44.0110 C.3       9 UNK         0.1400 
     28 CB          2.7559  -24.6110  -43.3962 C.3       9 UNK        -0.1800 
     29 N           2.7156  -22.1788  -43.0395 N.am      9 UNK        -0.5000 
     30 C           1.8431  -21.7491  -42.1243 C.2       8 UNK         0.5000 
     31 O           0.7991  -22.3423  -41.8520 O.2       8 UNK        -0.5000 
     32 CA          2.1651  -20.4219  -41.4060 C.3       8 UNK         0.1400 
     33 CB          2.7352  -20.7017  -40.0068 C.3       8 UNK        -0.1800 
     34 N           3.0783  -19.5132  -42.1109 N.am      8 UNK        -0.5000 
     35 C           2.9586  -19.0440  -43.3629 C.2       7 UNK         0.5000 
     36 O           2.0862  -19.3945  -44.1610 O.2       7 UNK        -0.5000 
     37 CA          3.9773  -17.9592  -43.7403 C.3       7 UNK         0.1400 
     38 CB          3.9851  -17.5917  -45.2334 C.3       7 UNK        -0.1800 
     39 N           3.6808  -16.7829  -42.9322 N.am      7 UNK        -0.5000 
     40 C           4.5835  -15.9121  -42.4638 C.2       6 UNK         0.5000 
     41 O           5.7811  -15.9489  -42.7499 O.2       6 UNK        -0.5000 
     42 CA          4.0719  -14.8296  -41.4870 C.3       6 UNK         0.1400 
     43 CB          3.7255  -13.5482  -42.2580 C.3       6 UNK        -0.1800 
     44 N           2.8976  -15.2436  -40.7139 N.am      6 UNK        -0.5000 
     45 C           2.8427  -16.2992  -39.8889 C.2       5 UNK         0.5000 
     46 O           3.8278  -16.9690  -39.5761 O.2       5 UNK        -0.5000 
     47 CA          1.4566  -16.7134  -39.3508 C.3       5 UNK         0.1400 
     48 CB          1.3271  -16.3457  -37.8645 C.3       5 UNK        -0.1800 
     49 N           0.2972  -16.1722  -40.0699 N.am      5 UNK        -0.5000 
     50 C           0.0286  -16.2856  -41.3791 C.2       4 UNK         0.5000 
     51 O           0.8020  -16.7890  -42.1941 O.2       4 UNK        -0.5000 
     52 CA         -1.3249  -15.7329  -41.8699 C.3       4 UNK         0.1400 
     53 CB         -2.3355  -15.4398  -40.7389 C.3       4 UNK        -0.1800 
     54 N          -1.1764  -14.5550  -42.7265 N.am      4 UNK        -0.5000 
     55 C          -0.5520  -13.4018  -42.4396 C.2       3 UNK         0.5000 
     56 O           0.0671  -13.1975  -41.3943 O.2       3 UNK        -0.5000 
     57 CA         -0.6364  -12.2742  -43.4902 C.3       3 UNK         0.1400 
     58 CB          0.6662  -12.1834  -44.2987 C.3       3 UNK        -0.1800 
     59 N          -1.7570  -12.4151  -44.4222 N.am      3 UNK        -0.5000 
     60 C          -3.0507  -12.2330  -44.1269 C.2       2 UNK         0.5000 
     61 O          -3.4478  -11.8994  -43.0102 O.2       2 UNK        -0.5000 
     62 CA         -4.0850  -12.4853  -45.2476 C.3       2 UNK         0.1400 
     63 CB         -4.4888  -11.1709  -45.9432 C.3       2 UNK        -0.1800 
     64 N          -3.6937  -13.5194  -46.2194 N.am      2 UNK        -0.5000 
     65 C          -2.7169  -13.4859  -47.1371 C.2       1 UNK         0.5000 
     66 O          -2.0044  -12.5038  -47.3500 O.2       1 UNK        -0.5000 
     67 C          -0.7978  -19.7783  -46.7246 C.2       11 UNK         0.5000 
     68 O          -1.8194  -19.3589  -47.2658 O.2       11 UNK        -0.5000 
     69 N          -0.6951  -19.9589  -45.4017 N.am      12 UNK        -0.5000 
     70 CA         -1.7670  -19.6324  -44.4558 C.3       12 UNK         0.1400 
     71 CB         -1.1967  -19.6107  -43.0335 C.3       12 UNK        -0.1800 
     72 C          -2.9888  -20.5718  -44.5205 C.2       12 UNK         0.5000 
     73 O          -4.0282  -20.2306  -43.9535 O.2       12 UNK        -0.5000 
     74 N          -2.8642  -21.7302  -45.1860 N.am      13 UNK        -0.5000 
     75 CA         -3.9264  -22.7249  -45.3381 C.3       13 UNK         0.1400 
     76 CB         -3.3030  -24.0781  -45.7238 C.3       13 UNK        -0.1800 
     77 C          -4.9838  -22.2576  -46.3568 C.2       13 UNK         0.5000 
     78 O          -4.9454  -22.6674  -47.5176 O.2       13 UNK        -0.5000 
     79 N          -5.8869  -21.3759  -45.9049 N.am      14 UNK        -0.5000 
     80 CA         -6.9996  -20.7808  -46.6555 C.3       14 UNK         0.1400 
     81 CB         -8.0653  -21.8501  -46.9764 C.3       14 UNK        -0.1800 
     82 C          -6.5236  -20.0145  -47.9067 C.2       14 UNK         0.5000 
     83 O          -7.0643  -20.2121  -48.9967 O.2       14 UNK        -0.5000 
     84 N          -5.4830  -19.1857  -47.7241 N.am      15 UNK        -0.5000 
     85 CA         -4.7711  -18.4338  -48.7655 C.3       15 UNK         0.1400 
     86 CB         -5.6673  -17.3155  -49.3396 C.3       15 UNK        -0.1800 
     87 C          -4.1997  -19.3712  -49.8495 C.2       15 UNK         0.5000 
     88 O          -4.4563  -19.1800  -51.0377 O.2       15 UNK        -0.5000 
     89 N          -3.4800  -20.4051  -49.3929 N.am      16 UNK        -0.5000 
     90 CA         -2.8574  -21.4760  -50.1743 C.3       16 UNK         0.1400 
     91 CB         -1.7101  -20.8949  -51.0165 C.3       16 UNK        -0.1800 
     92 C          -3.8866  -22.2655  -51.0114 C.2       16 UNK         0.5000 
     93 O          -3.6760  -22.4993  -52.2051 O.2       16 UNK        -0.5000 
     94 N          -4.9994  -22.6250  -50.3542 N.am      17 UNK        -0.5000 
     95 CA         -6.2039  -23.2509  -50.9033 C.3       17 UNK         0.1400 
     96 CB         -5.9068  -24.7009  -51.3393 C.3       17 UNK        -0.1800 
     97 C          -6.8419  -22.3957  -52.0175 C.2       17 UNK         0.5000 
     98 O          -7.0912  -22.8955  -53.1141 O.2       17 UNK        -0.5000 
     99 N          -7.0547  -21.1037  -51.7251 N.am      18 UNK        -0.5000 
    100 CA        -7.5170  -20.0566  -52.6453 C.3       18 UNK         0.1400 
    101 CB        -8.9990  -20.2723  -53.0155 C.3       18 UNK        -0.1800 
    102 C         -6.5946  -19.9138  -53.8769 C.2       18 UNK         0.5000 
    103 O         -7.0643  -19.8855  -55.0158 O.2       18 UNK        -0.5000 
    104 N         -5.2847  -19.8660  -53.6018 N.am      19 UNK        -0.5000 
    105 CA        -4.1484  -19.7906  -54.5220 C.3       19 UNK         0.1400 
    106 CB        -4.1892  -18.4848  -55.3416 C.3       19 UNK        -0.1800 
    107 C         -3.9367  -21.0330  -55.4144 C.2       19 UNK         0.5000 
    108 O         -3.0564  -20.9969  -56.2760 O.2       19 UNK        -0.5000 
    109 N         -4.6901  -22.1228  -55.1942 N.am      20 UNK        -0.5000 
    110 CA        -4.6102  -23.3609  -55.9779 C.3       20 UNK         0.1400 
    111 CB        -5.7473  -24.3121  -55.5815 C.3       20 UNK        -0.1800 
    112 C         -3.2518  -24.0787  -55.8752 C.2       20 UNK         0.5000 
    113 O         -2.8655  -24.7669  -56.8215 O.2       20 UNK        -0.5000 
    114 N         -2.5226  -23.8665  -54.7683 N.am      21 UNK        -0.5000 
    115 CA        -1.1568  -24.3619  -54.5590 C.3       21 UNK         0.1400 
    116 CB        -0.7015  -23.9890  -53.1420 C.3       21 UNK        -0.1800 
    117 C         -0.1344  -23.8361  -55.5911 C.2       21 UNK         0.5000 
    118 O          0.8843  -24.4908  -55.8171 O.2       21 UNK        -0.5000 
    119 N         -0.4299  -22.6816  -56.2032 N.am      22 UNK        -0.5000 
    120 CA         0.3449  -22.0784  -57.2970 C.3       22 UNK         0.1400 
    121 C         -0.0647  -22.6008  -58.7076 C.2       22 UNK         0.5000 
    122 N         -1.0383  -23.4954  -58.8460 N.am      22 UNK        -0.7600 
    123 O          0.5281  -22.1986  -59.7055 O.2       22 UNK        -0.5000 
    124 C124        0.3014  -20.5287  -57.2305 C.3       23 UNK        -0.0398 
    125 S125        1.1306  -19.8587  -55.7477 S.3       23 UNK        -0.2404 
    126 C126       -0.2715  -19.6656  -54.6039 C.3       23 UNK        -0.0205 
    127 H127        0.3741  -17.2490  -45.2457 H         1 UNK         0.0600 
    128 H128        1.0938  -16.1500  -46.4363 H         1 UNK         0.0600 
    129 H129        0.7248  -15.5823  -44.8082 H         1 UNK         0.0600 
    130 H130       -0.3716  -15.3398  -47.9258 H         1 UNK         0.3000 
    131 H131       -3.2189  -15.5158  -47.6514 H         1 UNK         0.0600 
    132 H132       -1.5511  -13.9129  -49.6636 H         1 UNK         0.0800 
    133 H133       -3.2744  -14.1690  -49.7593 H         1 UNK         0.0800 
    134 H134       -0.8796  -15.2474  -52.1318 H         1 UNK         0.0800 
    135 H135        0.1068  -15.2988  -50.6855 H         1 UNK         0.0800 
    136 H136       -1.0726  -17.2622  -53.5796 H         1 UNK         0.1150 
    137 H137        1.3964  -20.6524  -52.6948 H         1 UNK         0.1150 
    138 H138        1.1865  -17.3422  -49.9669 H         1 UNK         0.1150 
    139 H139        1.8083  -20.8532  -50.0199 H         1 UNK         0.0800 
    140 H140        3.1949  -20.1886  -50.8305 H         1 UNK         0.0800 
    141 H141        0.8213  -18.0300  -47.9955 H         1 UNK         0.0800 
    142 H142        1.7384  -18.6744  -46.6768 H         1 UNK         0.0800 
    143 H143        0.0428  -20.3251  -48.5912 H         1 UNK         0.0600 
    144 H144        2.1388  -21.2374  -47.0539 H         1 UNK         0.3000 
    145 H145        1.1798  -24.4056  -46.1149 H         1 UNK         0.0600 
    146 H146        2.1384  -23.9408  -48.9810 H         1 UNK         0.0600 
    147 H147        2.3963  -25.4044  -48.0306 H         1 UNK         0.0600 
    148 H148        0.7695  -24.9324  -48.4930 H         1 UNK         0.0600 
    149 H149        3.5827  -23.1373  -47.2271 H         1 UNK         0.3000 
    150 H150        1.4100  -23.1731  -44.2938 H         1 UNK         0.0600 
    151 H151        2.5795  -25.4074  -44.1202 H         1 UNK         0.0600 
    152 H152        2.1157  -24.8072  -42.5359 H         1 UNK         0.0600 
    153 H153        3.7928  -24.6892  -43.0663 H         1 UNK         0.0600 
    154 H154        3.5496  -21.6353  -43.2232 H         1 UNK         0.3000 
    155 H155        1.2214  -19.8874  -41.2844 H         1 UNK         0.0600 
    156 H156        2.8838  -19.7798  -39.4445 H         1 UNK         0.0600 
    157 H157        3.6945  -21.2182  -40.0618 H         1 UNK         0.0600 
    158 H158        2.0575  -21.3289  -39.4255 H         1 UNK         0.0600 
    159 H159        3.8258  -19.1343  -41.5466 H         1 UNK         0.3000 
    160 H160        4.9645  -18.3482  -43.4814 H         1 UNK         0.0600 
    161 H161        3.0565  -17.1088  -45.5305 H         1 UNK         0.0600 
    162 H162        4.1192  -18.4782  -45.8545 H         1 UNK         0.0600 
    163 H163        4.8014  -16.9070  -45.4641 H         1 UNK         0.0600 
    164 H164        2.7108  -16.6981  -42.6342 H         1 UNK         0.3000 
    165 H165        4.8753  -14.6074  -40.7820 H         1 UNK         0.0600 
    166 H166        3.3863  -12.7584  -41.5871 H         1 UNK         0.0600 
    167 H167        4.5944  -13.1685  -42.7973 H         1 UNK         0.0600 
    168 H168        2.9383  -13.7311  -42.9900 H         1 UNK         0.0600 
    169 H169        2.0333  -14.7561  -40.9100 H         1 UNK         0.3000 
    170 H170        1.4001  -17.7998  -39.4377 H         1 UNK         0.0600 
    171 H171        1.3353  -15.2648  -37.7173 H         1 UNK         0.0600 
    172 H172        0.4027  -16.7371  -37.4387 H         1 UNK         0.0600 
    173 H173        2.1508  -16.7625  -37.2830 H         1 UNK         0.0600 
    174 H174       -0.3859  -15.6961  -39.4989 H         1 UNK         0.3000 
    175 H175       -1.7551  -16.5143  -42.4981 H         1 UNK         0.0600 
    176 H176       -2.5004  -16.3207  -40.1171 H         1 UNK         0.0600 
    177 H177       -2.0074  -14.6262  -40.0908 H         1 UNK         0.0600 
    178 H178       -3.3037  -15.1562  -41.1520 H         1 UNK         0.0600 
    179 H179       -1.6001  -14.6519  -43.6427 H         1 UNK         0.3000 
    180 H180       -0.7660  -11.3345  -42.9493 H         1 UNK         0.0600 
    181 H181        0.6179  -11.3819  -45.0361 H         1 UNK         0.0600 
    182 H182        0.8812  -13.1123  -44.8274 H         1 UNK         0.0600 
    183 H183        1.5123  -11.9665  -43.6465 H         1 UNK         0.0600 
    184 H184       -1.5295  -12.6226  -45.3877 H         1 UNK         0.3000 
    185 H185       -4.9765  -12.8764  -44.7546 H         1 UNK         0.0600 
    186 H186       -3.6387  -10.6773  -46.4145 H         1 UNK         0.0600 
    187 H187       -5.2445  -11.3451  -46.7091 H         1 UNK         0.0600 
    188 H188       -4.9110  -10.4677  -45.2242 H         1 UNK         0.0600 
    189 H189       -4.1526  -14.4088  -46.0765 H         1 UNK         0.3000 
    190 H190        0.1968  -20.2360  -45.0091 H         1 UNK         0.3000 
    191 H191       -2.1209  -18.6255  -44.6874 H         1 UNK         0.0600 
    192 H192       -0.3099  -18.9834  -42.9758 H         1 UNK         0.0600 
    193 H193       -1.9244  -19.2141  -42.3246 H         1 UNK         0.0600 
    194 H194       -0.9283  -20.6115  -42.7002 H         1 UNK         0.0600 
    195 H195       -1.9971  -21.9247  -45.6712 H         1 UNK         0.3000 
    196 H196       -4.4219  -22.8575  -44.3738 H         1 UNK         0.0600 
    197 H197       -4.0659  -24.8562  -45.7693 H         1 UNK         0.0600 
    198 H198       -2.5581  -24.3941  -44.9932 H         1 UNK         0.0600 
    199 H199       -2.8201  -24.0416  -46.7007 H         1 UNK         0.0600 
    200 H200       -5.7600  -21.0333  -44.9589 H         1 UNK         0.3000 
    201 H201       -7.4600  -20.0410  -45.9991 H         1 UNK         0.0600 
    202 H202       -8.9422  -21.4001  -47.4435 H         1 UNK         0.0600 
    203 H203       -7.6858  -22.6107  -47.6595 H         1 UNK         0.0600 
    204 H204       -8.4036  -22.3530  -46.0704 H         1 UNK         0.0600 
    205 H205       -5.0926  -19.1204  -46.7947 H         1 UNK         0.3000 
    206 H206       -3.9158  -17.9571  -48.2846 H         1 UNK         0.0600 
    207 H207       -5.1175  -16.7037  -50.0552 H         1 UNK         0.0600 
    208 H208       -6.5380  -17.7164  -49.8591 H         1 UNK         0.0600 
    209 H209       -6.0224  -16.6519  -48.5512 H         1 UNK         0.0600 
    210 H210       -3.2951  -20.4316  -48.3981 H         1 UNK         0.3000 
    211 H211       -2.4281  -22.1707  -49.4504 H         1 UNK         0.0600 
    212 H212       -2.0682  -20.4447  -51.9430 H         1 UNK         0.0600 
    213 H213       -0.9874  -21.6684  -51.2689 H         1 UNK         0.0600 
    214 H214       -1.1755  -20.1171  -50.4731 H         1 UNK         0.0600 
    215 H215       -5.0373  -22.4251  -49.3563 H         1 UNK         0.3000 
    216 H216       -6.9301  -23.2900  -50.0902 H         1 UNK         0.0600 
    217 H217       -6.8136  -25.1994  -51.6836 H         1 UNK         0.0600 
    218 H218       -5.5098  -25.2857  -50.5095 H         1 UNK         0.0600 
    219 H219       -5.1817  -24.7412  -52.1523 H         1 UNK         0.0600 
    220 H220       -6.8465  -20.7867  -50.7802 H         1 UNK         0.3000 
    221 H221       -7.4458  -19.1158  -52.0971 H         1 UNK         0.0600 
    222 H222       -9.1446  -21.1832  -53.5972 H         1 UNK         0.0600 
    223 H223       -9.6207  -20.3414  -52.1229 H         1 UNK         0.0600 
    224 H224       -9.3771  -19.4402  -53.6107 H         1 UNK         0.0600 
    225 H225       -5.0204  -19.8456  -52.6169 H         1 UNK         0.3000 
    226 H226       -3.2683  -19.7406  -53.8807 H         1 UNK         0.0600 
    227 H227       -5.0237  -18.4721  -56.0431 H         1 UNK         0.0600 
    228 H228       -4.2824  -17.6151  -54.6908 H         1 UNK         0.0600 
    229 H229       -3.2760  -18.3547  -55.9233 H         1 UNK         0.0600 
    230 H230       -5.3683  -22.1042  -54.4426 H         1 UNK         0.3000 
    231 H231       -4.7523  -23.0886  -57.0259 H         1 UNK         0.0600 
    232 H232       -5.7475  -25.2042  -56.2096 H         1 UNK         0.0600 
    233 H233       -6.7210  -23.8346  -55.6961 H         1 UNK         0.0600 
    234 H234       -5.6505  -24.6421  -54.5469 H         1 UNK         0.0600 
    235 H235       -2.9254  -23.3053  -54.0238 H         1 UNK         0.3000 
    236 H236       -1.1837  -25.4508  -54.6398 H         1 UNK         0.0600 
    237 H237        0.2608  -24.4463  -52.9066 H         1 UNK         0.0600 
    238 H238       -0.5819  -22.9103  -53.0480 H         1 UNK         0.0600 
    239 H239       -1.4161  -24.3221  -52.3887 H         1 UNK         0.0600 
    240 H240       -1.3130  -22.2301  -55.9965 H         1 UNK         0.3000 
    241 H241        1.3895  -22.3733  -57.1798 H         1 UNK         0.0600 
    242 H242       -1.2760  -23.8212  -59.7694 H         1 UNK         0.3800 
    243 H243       -1.5396  -23.8642  -58.0453 H         1 UNK         0.3800 
    244 H244       -0.7256  -20.1646  -57.2828 H         1 UNK         0.0800 
    245 H245        0.8137  -20.0960  -58.0916 H         1 UNK         0.0800 
    246 H246       -1.0487  -19.0772  -55.0929 H         1 UNK         0.0800 
    247 H247       -0.7082  -20.6402  -54.3853 H         1 UNK         0.0800 
@<TRIPOS>BOND
     1    1    2 1    
     2    1  127 1    
     3    1  128 1    
     4    1  129 1    
     5    2    3 2    
     6    2    4 am   BACKBONE|DICT|INTERRES
     7    4    5 1    
     8    4  130 1    
     9    5    6 1    
    10    5   65 1    
    11    5  131 1    
    12    6    7 1    
    13    6  132 1    
    14    6  133 1    
    15    7    8 1    
    16    8    9 1    
    17    8  134 1    
    18    8  135 1    
    19    9   10 ar   
    20    9   14 ar   
    21   10   11 ar   
    22   10  136 1    
    23   11   12 ar   
    24   11  126 1    
    25   12   13 ar   
    26   12  137 1    
    27   13   14 ar   
    28   13   15 1    
    29   14  138 1    
    30   15   16 1    
    31   15  139 1    
    32   15  140 1    
    33   16   17 1    
    34   17   18 1    
    35   17  141 1    
    36   17  142 1    
    37   18   19 1    
    38   18   67 1    
    39   18  143 1    
    40   19   20 am   BACKBONE|DICT|INTERRES
    41   19  144 1    
    42   20   21 2    
    43   20   22 1    
    44   22   23 1    
    45   22   24 1    
    46   22  145 1    
    47   23  146 1    
    48   23  147 1    
    49   23  148 1    
    50   24   25 am   BACKBONE|DICT|INTERRES
    51   24  149 1    
    52   25   26 2    
    53   25   27 1    
    54   27   28 1    
    55   27   29 1    
    56   27  150 1    
    57   28  151 1    
    58   28  152 1    
    59   28  153 1    
    60   29   30 am   BACKBONE|DICT|INTERRES
    61   29  154 1    
    62   30   31 2    
    63   30   32 1    
    64   32   33 1    
    65   32   34 1    
    66   32  155 1    
    67   33  156 1    
    68   33  157 1    
    69   33  158 1    
    70   34   35 am   BACKBONE|DICT|INTERRES
    71   34  159 1    
    72   35   36 2    
    73   35   37 1    
    74   37   38 1    
    75   37   39 1    
    76   37  160 1    
    77   38  161 1    
    78   38  162 1    
    79   38  163 1    
    80   39   40 am   BACKBONE|DICT|INTERRES
    81   39  164 1    
    82   40   41 2    
    83   40   42 1    
    84   42   43 1    
    85   42   44 1    
    86   42  165 1    
    87   43  166 1    
    88   43  167 1    
    89   43  168 1    
    90   44   45 am   BACKBONE|DICT|INTERRES
    91   44  169 1    
    92   45   46 2    
    93   45   47 1    
    94   47   48 1    
    95   47   49 1    
    96   47  170 1    
    97   48  171 1    
    98   48  172 1    
    99   48  173 1    
   100   49   50 am   BACKBONE|DICT|INTERRES
   101   49  174 1    
   102   50   51 2    
   103   50   52 1    
   104   52   53 1    
   105   52   54 1    
   106   52  175 1    
   107   53  176 1    
   108   53  177 1    
   109   53  178 1    
   110   54   55 am   BACKBONE|DICT|INTERRES
   111   54  179 1    
   112   55   56 2    
   113   55   57 1    
   114   57   58 1    
   115   57   59 1    
   116   57  180 1    
   117   58  181 1    
   118   58  182 1    
   119   58  183 1    
   120   59   60 am   BACKBONE|DICT|INTERRES
   121   59  184 1    
   122   60   61 2    
   123   60   62 1    
   124   62   63 1    
   125   62   64 1    
   126   62  185 1    
   127   63  186 1    
   128   63  187 1    
   129   63  188 1    
   130   64   65 am   BACKBONE|DICT|INTERRES
   131   64  189 1    
   132   65   66 2    
   133   67   68 2    
   134   67   69 am   BACKBONE|DICT|INTERRES
   135   69   70 1    
   136   69  190 1    
   137   70   71 1    
   138   70   72 1    
   139   70  191 1    
   140   71  192 1    
   141   71  193 1    
   142   71  194 1    
   143   72   73 2    
   144   72   74 am   BACKBONE|DICT|INTERRES
   145   74   75 1    
   146   74  195 1    
   147   75   76 1    
   148   75   77 1    
   149   75  196 1    
   150   76  197 1    
   151   76  198 1    
   152   76  199 1    
   153   77   78 2    
   154   77   79 am   BACKBONE|DICT|INTERRES
   155   79   80 1    
   156   79  200 1    
   157   80   81 1    
   158   80   82 1    
   159   80  201 1    
   160   81  202 1    
   161   81  203 1    
   162   81  204 1    
   163   82   83 2    
   164   82   84 am   BACKBONE|DICT|INTERRES
   165   84   85 1    
   166   84  205 1    
   167   85   86 1    
   168   85   87 1    
   169   85  206 1    
   170   86  207 1    
   171   86  208 1    
   172   86  209 1    
   173   87   88 2    
   174   87   89 am   BACKBONE|DICT|INTERRES
   175   89   90 1    
   176   89  210 1    
   177   90   91 1    
   178   90   92 1    
   179   90  211 1    
   180   91  212 1    
   181   91  213 1    
   182   91  214 1    
   183   92   93 2    
   184   92   94 am   BACKBONE|DICT|INTERRES
   185   94   95 1    
   186   94  215 1    
   187   95   96 1    
   188   95   97 1    
   189   95  216 1    
   190   96  217 1    
   191   96  218 1    
   192   96  219 1    
   193   97   98 2    
   194   97   99 am   BACKBONE|DICT|INTERRES
   195   99  100 1    
   196   99  220 1    
   197  100  101 1    
   198  100  102 1    
   199  100  221 1    
   200  101  222 1    
   201  101  223 1    
   202  101  224 1    
   203  102  103 2    
   204  102  104 am   BACKBONE|DICT|INTERRES
   205  104  105 1    
   206  104  225 1    
   207  105  106 1    
   208  105  107 1    
   209  105  226 1    
   210  106  227 1    
   211  106  228 1    
   212  106  229 1    
   213  107  108 2    
   214  107  109 am   BACKBONE|DICT|INTERRES
   215  109  110 1    
   216  109  230 1    
   217  110  111 1    
   218  110  112 1    
   219  110  231 1    
   220  111  232 1    
   221  111  233 1    
   222  111  234 1    
   223  112  113 2    
   224  112  114 am   BACKBONE|DICT|INTERRES
   225  114  115 1    
   226  114  235 1    
   227  115  116 1    
   228  115  117 1    
   229  115  236 1    
   230  116  237 1    
   231  116  238 1    
   232  116  239 1    
   233  117  118 2    
   234  117  119 am   BACKBONE|DICT|INTERRES
   235  119  120 1    
   236  119  240 1    
   237  120  121 1    
   238  120  124 1    
   239  120  241 1    
   240  121  122 am   BACKBONE|DICT|INTERRES
   241  121  123 2    
   242  122  242 1    
   243  122  243 1    
   244  124  125 1    
   245  124  244 1    
   246  124  245 1    
   247  125  126 1    
   248  126  246 1    
   249  126  247 1    
@<TRIPOS>SUBSTRUCTURE
     1 UNK         1 GROUP             0       ****    0 ROOT    
