@<TRIPOS>MOLECULE
3R540
247   249    1
SMALL
USER_CHARGES


@<TRIPOS>ATOM
      1 CA          1.2919  -11.2630  -52.1421 C.3       0 UNK        -0.1800 
      2 C           0.8939  -11.5650  -50.7041 C.2       0 UNK         0.5000 
      3 O           0.1834  -10.7723  -50.0849 O.2       0 UNK        -0.5000 
      4 N           1.3573  -12.7004  -50.1694 N.am      1 UNK        -0.5000 
      5 CA          1.0228  -13.2066  -48.8358 C.3       1 UNK         0.1400 
      6 C6          1.9987  -14.3198  -48.3620 C.3       23 UNK        -0.0398 
      7 S7          2.4229  -15.5816  -49.6132 S.3       23 UNK        -0.2404 
      8 C8          1.2687  -16.9239  -49.1815 C.3       23 UNK        -0.0205 
      9 C9          1.3964  -18.1234  -50.1135 C.ar      23 UNK        -0.0193 
     10 C10         1.3802  -17.9558  -51.5021 C.ar      23 UNK        -0.1150 
     11 C11         1.4781  -19.0523  -52.3631 C.ar      23 UNK        -0.0193 
     12 C12         1.5570  -20.3382  -51.8122 C.ar      23 UNK        -0.1150 
     13 C13         1.5575  -20.5266  -50.4271 C.ar      23 UNK        -0.0193 
     14 C14         1.4884  -19.4128  -49.5849 C.ar      23 UNK        -0.1150 
     15 C15         1.5557  -21.9388  -49.8570 C.3       23 UNK        -0.0205 
     16 S16         3.0763  -22.3652  -48.9536 S.3       23 UNK        -0.2404 
     17 C17         2.6088  -22.0028  -47.2256 C.3       23 UNK        -0.0398 
     18 CA          2.2465  -23.2699  -46.4088 C.3       11 UNK         0.1400 
     19 N           2.5091  -23.0418  -44.9897 N.am      11 UNK        -0.5000 
     20 C           3.0073  -23.9284  -44.1216 C.2       10 UNK         0.5000 
     21 O           3.3360  -25.0756  -44.4302 O.2       10 UNK        -0.5000 
     22 CA          3.1670  -23.4292  -42.6670 C.3       10 UNK         0.1400 
     23 CB          4.0437  -24.3508  -41.7940 C.3       10 UNK        -0.1800 
     24 N           3.6270  -22.0367  -42.5984 N.am      10 UNK        -0.5000 
     25 C           4.7882  -21.5285  -43.0379 C.2       9 UNK         0.5000 
     26 O           5.7154  -22.2110  -43.4749 O.2       9 UNK        -0.5000 
     27 CA          4.9372  -19.9915  -43.0188 C.3       9 UNK         0.1400 
     28 CB          4.8564  -19.4341  -44.4494 C.3       9 UNK        -0.1800 
     29 N           3.9347  -19.3087  -42.1973 N.am      9 UNK        -0.5000 
     30 C           3.9484  -19.2430  -40.8591 C.2       8 UNK         0.5000 
     31 O           4.8439  -19.7186  -40.1603 O.2       8 UNK        -0.5000 
     32 CA          2.7394  -18.5592  -40.1882 C.3       8 UNK         0.1400 
     33 CB          2.9374  -17.0377  -40.1102 C.3       8 UNK        -0.1800 
     34 N           1.4762  -18.8556  -40.8686 N.am      8 UNK        -0.5000 
     35 C           0.9118  -20.0707  -40.9086 C.2       7 UNK         0.5000 
     36 O           1.3661  -21.0551  -40.3254 O.2       7 UNK        -0.5000 
     37 CA         -0.3371  -20.2334  -41.7905 C.3       7 UNK         0.1400 
     38 CB         -1.6089  -19.8224  -41.0338 C.3       7 UNK        -0.1800 
     39 N          -0.2469  -19.4946  -43.0524 N.am      7 UNK        -0.5000 
     40 C           0.6439  -19.7497  -44.0216 C.2       6 UNK         0.5000 
     41 O           1.4562  -20.6691  -43.9745 O.2       6 UNK        -0.5000 
     42 CA          0.6749  -18.7934  -45.2263 C.3       6 UNK         0.1400 
     43 CB         -0.3958  -19.1894  -46.2496 C.3       6 UNK        -0.1800 
     44 N           0.5094  -17.3945  -44.8332 N.am      6 UNK        -0.5000 
     45 C           1.3489  -16.7316  -44.0239 C.2       5 UNK         0.5000 
     46 O           2.4036  -17.2051  -43.6026 O.2       5 UNK        -0.5000 
     47 CA          0.9014  -15.3395  -43.5455 C.3       5 UNK         0.1400 
     48 CB          1.2960  -14.2422  -44.5430 C.3       5 UNK        -0.1800 
     49 N          -0.5407  -15.2915  -43.3060 N.am      5 UNK        -0.5000 
     50 C          -1.1469  -15.8709  -42.2610 C.2       4 UNK         0.5000 
     51 O          -0.5404  -16.4437  -41.3555 O.2       4 UNK        -0.5000 
     52 CA         -2.6878  -15.8360  -42.2511 C.3       4 UNK         0.1400 
     53 CB         -3.1946  -14.5163  -41.6507 C.3       4 UNK        -0.1800 
     54 N          -3.2632  -16.0127  -43.5876 N.am      4 UNK        -0.5000 
     55 C          -3.2141  -17.1575  -44.2844 C.2       3 UNK         0.5000 
     56 O          -2.7313  -18.1967  -43.8389 O.2       3 UNK        -0.5000 
     57 CA         -3.7424  -17.1251  -45.7351 C.3       3 UNK         0.1400 
     58 CB         -5.2192  -17.5414  -45.7862 C.3       3 UNK        -0.1800 
     59 N          -3.5755  -15.8225  -46.3910 N.am      3 UNK        -0.5000 
     60 C          -2.3905  -15.2437  -46.6299 C.2       2 UNK         0.5000 
     61 O          -1.3132  -15.7612  -46.3250 O.2       2 UNK        -0.5000 
     62 CA         -2.4245  -13.8323  -47.2452 C.3       2 UNK         0.1400 
     63 CB         -3.0188  -12.8261  -46.2448 C.3       2 UNK        -0.1800 
     64 N          -1.0787  -13.3817  -47.5977 N.am      2 UNK        -0.5000 
     65 C          -0.4534  -13.6535  -48.7488 C.2       1 UNK         0.5000 
     66 O          -0.9842  -14.2327  -49.6992 O.2       1 UNK        -0.5000 
     67 C           0.7669  -23.6763  -46.5943 C.2       11 UNK         0.5000 
     68 O          -0.0908  -23.2424  -45.8216 O.2       11 UNK        -0.5000 
     69 N           0.4836  -24.4777  -47.6328 N.am      12 UNK        -0.5000 
     70 CA         -0.8220  -25.0930  -47.9231 C.3       12 UNK         0.1400 
     71 CB         -0.6962  -25.9556  -49.1871 C.3       12 UNK        -0.1800 
     72 C          -2.0061  -24.1153  -48.0694 C.2       12 UNK         0.5000 
     73 O          -3.1383  -24.4765  -47.7433 O.2       12 UNK        -0.5000 
     74 N          -1.7235  -22.8793  -48.5034 N.am      13 UNK        -0.5000 
     75 CA         -2.6687  -21.7631  -48.6191 C.3       13 UNK         0.1400 
     76 CB         -1.9780  -20.5812  -49.3149 C.3       13 UNK        -0.1800 
     77 C          -3.3090  -21.3238  -47.2852 C.2       13 UNK         0.5000 
     78 O          -4.2924  -20.5870  -47.3094 O.2       13 UNK        -0.5000 
     79 N          -2.7893  -21.8120  -46.1506 N.am      14 UNK        -0.5000 
     80 CA         -3.4259  -21.7172  -44.8375 C.3       14 UNK         0.1400 
     81 CB         -2.4756  -22.3211  -43.7975 C.3       14 UNK        -0.1800 
     82 C          -4.7852  -22.4436  -44.7762 C.2       14 UNK         0.5000 
     83 O          -5.6855  -21.9839  -44.0733 O.2       14 UNK        -0.5000 
     84 N          -4.9014  -23.5588  -45.5113 N.am      15 UNK        -0.5000 
     85 CA         -6.1043  -24.3846  -45.6024 C.3       15 UNK         0.1400 
     86 CB         -5.7245  -25.8499  -45.3370 C.3       15 UNK        -0.1800 
     87 C          -6.7725  -24.2473  -46.9795 C.2       15 UNK         0.5000 
     88 O          -7.9998  -24.1841  -47.0528 O.2       15 UNK        -0.5000 
     89 N          -5.9621  -24.1987  -48.0464 N.am      16 UNK        -0.5000 
     90 CA         -6.4192  -24.1323  -49.4377 C.3       16 UNK         0.1400 
     91 CB         -5.2931  -24.6508  -50.3477 C.3       16 UNK        -0.1800 
     92 C          -6.8762  -22.7279  -49.8853 C.2       16 UNK         0.5000 
     93 O          -7.4616  -22.6138  -50.9627 O.2       16 UNK        -0.5000 
     94 N          -6.5968  -21.7068  -49.0606 N.am      17 UNK        -0.5000 
     95 CA         -6.7467  -20.2644  -49.2848 C.3       17 UNK         0.1400 
     96 CB         -8.1651  -19.8823  -49.7537 C.3       17 UNK        -0.1800 
     97 C          -5.6672  -19.7039  -50.2310 C.2       17 UNK         0.5000 
     98 O          -5.1783  -20.4022  -51.1208 O.2       17 UNK        -0.5000 
     99 N          -5.3139  -18.4305  -50.0167 N.am      18 UNK        -0.5000 
    100 CA        -4.3404  -17.6968  -50.8307 C.3       18 UNK         0.1400 
    101 CB        -3.7410  -16.5633  -49.9854 C.3       18 UNK        -0.1800 
    102 C         -4.9429  -17.1518  -52.1410 C.2       18 UNK         0.5000 
    103 O         -4.1913  -16.7874  -53.0464 O.2       18 UNK        -0.5000 
    104 N         -6.2806  -17.1041  -52.2239 N.am      19 UNK        -0.5000 
    105 CA        -7.0528  -16.6741  -53.3882 C.3       19 UNK         0.1400 
    106 CB        -8.5475  -16.6834  -53.0280 C.3       19 UNK        -0.1800 
    107 C         -6.7654  -17.5599  -54.6152 C.2       19 UNK         0.5000 
    108 O         -7.1511  -18.7303  -54.6259 O.2       19 UNK        -0.5000 
    109 N         -6.0635  -16.9820  -55.5997 N.am      20 UNK        -0.5000 
    110 CA        -5.5886  -17.6066  -56.8403 C.3       20 UNK         0.1400 
    111 CB        -6.7732  -18.0401  -57.7301 C.3       20 UNK        -0.1800 
    112 C         -4.5562  -18.7374  -56.6248 C.2       20 UNK         0.5000 
    113 O         -4.3922  -19.5870  -57.5037 O.2       20 UNK        -0.5000 
    114 N         -3.8558  -18.7269  -55.4804 N.am      21 UNK        -0.5000 
    115 CA        -2.7564  -19.6467  -55.1858 C.3       21 UNK         0.1400 
    116 CB        -2.3936  -19.5543  -53.6954 C.3       21 UNK        -0.1800 
    117 C         -1.5268  -19.3488  -56.0636 C.2       21 UNK         0.5000 
    118 O         -1.2760  -18.1871  -56.3947 O.2       21 UNK        -0.5000 
    119 N         -0.7751  -20.4039  -56.3995 N.am      22 UNK        -0.5000 
    120 CA         0.4492  -20.3731  -57.2249 C.3       22 UNK         0.1400 
    121 C          0.2222  -19.9991  -58.7241 C.2       22 UNK         0.5000 
    122 N         -1.0059  -19.9804  -59.2289 N.am      22 UNK        -0.7600 
    123 O          1.1771  -19.7557  -59.4573 O.2       22 UNK        -0.5000 
    124 C124        1.6102  -19.5583  -56.5815 C.3       23 UNK        -0.0398 
    125 S125        2.0635  -20.1580  -54.9169 S.3       23 UNK        -0.2404 
    126 C126        1.4445  -18.7947  -53.8700 C.3       23 UNK        -0.0205 
    127 H127        1.9278  -12.0444  -52.5593 H         1 UNK         0.0600 
    128 H128        1.8357  -10.3197  -52.1913 H         1 UNK         0.0600 
    129 H129        0.4029  -11.1787  -52.7673 H         1 UNK         0.0600 
    130 H130        1.9106  -13.3297  -50.7340 H         1 UNK         0.3000 
    131 H131        1.1423  -12.3688  -48.1448 H         1 UNK         0.0600 
    132 H132        2.9376  -13.8524  -48.0628 H         1 UNK         0.0800 
    133 H133        1.6312  -14.8179  -47.4650 H         1 UNK         0.0800 
    134 H134        0.2422  -16.5598  -49.2255 H         1 UNK         0.0800 
    135 H135        1.4512  -17.2191  -48.1470 H         1 UNK         0.0800 
    136 H136        1.2903  -16.9610  -51.9156 H         1 UNK         0.1150 
    137 H137        1.5954  -21.2041  -52.4563 H         1 UNK         0.1150 
    138 H138        1.4800  -19.5460  -48.5151 H         1 UNK         0.1150 
    139 H139        0.6977  -22.0481  -49.2011 H         1 UNK         0.0800 
    140 H140        1.4192  -22.6702  -50.6552 H         1 UNK         0.0800 
    141 H141        1.8155  -21.2593  -47.1754 H         1 UNK         0.0800 
    142 H142        3.4810  -21.5192  -46.7825 H         1 UNK         0.0800 
    143 H143        2.8750  -24.0963  -46.7476 H         1 UNK         0.0600 
    144 H144        2.1783  -22.1514  -44.6191 H         1 UNK         0.3000 
    145 H145        2.1637  -23.4317  -42.2384 H         1 UNK         0.0600 
    146 H146        4.1261  -23.9670  -40.7771 H         1 UNK         0.0600 
    147 H147        3.6129  -25.3505  -41.7290 H         1 UNK         0.0600 
    148 H148        5.0514  -24.4563  -42.1963 H         1 UNK         0.0600 
    149 H149        2.9227  -21.3698  -42.3112 H         1 UNK         0.3000 
    150 H150        5.9274  -19.7630  -42.6194 H         1 UNK         0.0600 
    151 H151        5.6208  -19.8782  -45.0883 H         1 UNK         0.0600 
    152 H152        5.0090  -18.3547  -44.4619 H         1 UNK         0.0600 
    153 H153        3.8880  -19.6397  -44.9055 H         1 UNK         0.0600 
    154 H154        3.1951  -18.8243  -42.6962 H         1 UNK         0.3000 
    155 H155        2.6673  -18.9412  -39.1677 H         1 UNK         0.0600 
    156 H156        3.8398  -16.7918  -39.5493 H         1 UNK         0.0600 
    157 H157        2.0990  -16.5561  -39.6064 H         1 UNK         0.0600 
    158 H158        3.0353  -16.5895  -41.0986 H         1 UNK         0.0600 
    159 H159        1.0204  -18.0905  -41.3504 H         1 UNK         0.3000 
    160 H160       -0.4139  -21.2955  -42.0248 H         1 UNK         0.0600 
    161 H161       -1.5835  -18.7748  -40.7362 H         1 UNK         0.0600 
    162 H162       -1.7311  -20.4166  -40.1276 H         1 UNK         0.0600 
    163 H163       -2.4992  -19.9725  -41.6443 H         1 UNK         0.0600 
    164 H164       -0.9421  -18.7719  -43.2083 H         1 UNK         0.3000 
    165 H165        1.6516  -18.8859  -45.7051 H         1 UNK         0.0600 
    166 H166       -0.4143  -18.5082  -47.1000 H         1 UNK         0.0600 
    167 H167       -0.2097  -20.1943  -46.6271 H         1 UNK         0.0600 
    168 H168       -1.3894  -19.2020  -45.8078 H         1 UNK         0.0600 
    169 H169       -0.3012  -16.9038  -45.2001 H         1 UNK         0.3000 
    170 H170        1.4179  -15.1360  -42.6049 H         1 UNK         0.0600 
    171 H171        2.3527  -14.3086  -44.8054 H         1 UNK         0.0600 
    172 H172        0.7187  -14.3121  -45.4620 H         1 UNK         0.0600 
    173 H173        1.1270  -13.2518  -44.1203 H         1 UNK         0.0600 
    174 H174       -1.1090  -14.8910  -44.0367 H         1 UNK         0.3000 
    175 H175       -3.0346  -16.6551  -41.6173 H         1 UNK         0.0600 
    176 H176       -2.7945  -14.3656  -40.6471 H         1 UNK         0.0600 
    177 H177       -2.8994  -13.6572  -42.2545 H         1 UNK         0.0600 
    178 H178       -4.2817  -14.5123  -41.5696 H         1 UNK         0.0600 
    179 H179       -3.6894  -15.2043  -44.0150 H         1 UNK         0.3000 
    180 H180       -3.1741  -17.8569  -46.3113 H         1 UNK         0.0600 
    181 H181       -5.3609  -18.5248  -45.3350 H         1 UNK         0.0600 
    182 H182       -5.8572  -16.8369  -45.2514 H         1 UNK         0.0600 
    183 H183       -5.5741  -17.6074  -46.8145 H         1 UNK         0.0600 
    184 H184       -4.4224  -15.3373  -46.6495 H         1 UNK         0.3000 
    185 H185       -3.0512  -13.8586  -48.1392 H         1 UNK         0.0600 
    186 H186       -4.0501  -13.0751  -45.9926 H         1 UNK         0.0600 
    187 H187       -2.4504  -12.7960  -45.3141 H         1 UNK         0.0600 
    188 H188       -3.0281  -11.8186  -46.6615 H         1 UNK         0.0600 
    189 H189       -0.5680  -12.9131  -46.8647 H         1 UNK         0.3000 
    190 H190        1.2449  -24.7722  -48.2281 H         1 UNK         0.3000 
    191 H191       -1.0595  -25.7511  -47.0849 H         1 UNK         0.0600 
    192 H192       -0.4111  -25.3586  -50.0544 H         1 UNK         0.0600 
    193 H193       -1.6417  -26.4465  -49.4229 H         1 UNK         0.0600 
    194 H194        0.0502  -26.7397  -49.0582 H         1 UNK         0.0600 
    195 H195       -0.7650  -22.6801  -48.7361 H         1 UNK         0.3000 
    196 H196       -3.4893  -22.0898  -49.2596 H         1 UNK         0.0600 
    197 H197       -2.6349  -19.7132  -49.3618 H         1 UNK         0.0600 
    198 H198       -1.7003  -20.8318  -50.3390 H         1 UNK         0.0600 
    199 H199       -1.0775  -20.2734  -48.7895 H         1 UNK         0.0600 
    200 H200       -1.9507  -22.3808  -46.1978 H         1 UNK         0.3000 
    201 H201       -3.5825  -20.6616  -44.6080 H         1 UNK         0.0600 
    202 H202       -1.4833  -21.8862  -43.8884 H         1 UNK         0.0600 
    203 H203       -2.3683  -23.3992  -43.9251 H         1 UNK         0.0600 
    204 H204       -2.8341  -22.1411  -42.7839 H         1 UNK         0.0600 
    205 H205       -4.1149  -23.8471  -46.0827 H         1 UNK         0.3000 
    206 H206       -6.8344  -24.0843  -44.8480 H         1 UNK         0.0600 
    207 H207       -5.3031  -25.9710  -44.3389 H         1 UNK         0.0600 
    208 H208       -6.5989  -26.4987  -45.4017 H         1 UNK         0.0600 
    209 H209       -4.9895  -26.2142  -46.0562 H         1 UNK         0.0600 
    210 H210       -4.9586  -24.2942  -47.9103 H         1 UNK         0.3000 
    211 H211       -7.2753  -24.8007  -49.5515 H         1 UNK         0.0600 
    212 H212       -5.6173  -24.6892  -51.3884 H         1 UNK         0.0600 
    213 H213       -4.9893  -25.6590  -50.0655 H         1 UNK         0.0600 
    214 H214       -4.4115  -24.0116  -50.3046 H         1 UNK         0.0600 
    215 H215       -6.0985  -21.9382  -48.2127 H         1 UNK         0.3000 
    216 H216       -6.5969  -19.8058  -48.3063 H         1 UNK         0.0600 
    217 H217       -8.3112  -18.8028  -49.7069 H         1 UNK         0.0600 
    218 H218       -8.9274  -20.3398  -49.1230 H         1 UNK         0.0600 
    219 H219       -8.3524  -20.1854  -50.7842 H         1 UNK         0.0600 
    220 H220       -5.7426  -17.9200  -49.2586 H         1 UNK         0.3000 
    221 H221       -3.5267  -18.3689  -51.1083 H         1 UNK         0.0600 
    222 H222       -4.5040  -15.8617  -49.6469 H         1 UNK         0.0600 
    223 H223       -3.2304  -16.9597  -49.1077 H         1 UNK         0.0600 
    224 H224       -3.0038  -15.9974  -50.5568 H         1 UNK         0.0600 
    225 H225       -6.8120  -17.4522  -51.4413 H         1 UNK         0.3000 
    226 H226       -6.7683  -15.6450  -53.6175 H         1 UNK         0.0600 
    227 H227       -8.7601  -15.9985  -52.2070 H         1 UNK         0.0600 
    228 H228       -9.1547  -16.3695  -53.8780 H         1 UNK         0.0600 
    229 H229       -8.8861  -17.6773  -52.7318 H         1 UNK         0.0600 
    230 H230       -5.7628  -16.0265  -55.4631 H         1 UNK         0.3000 
    231 H231       -5.0522  -16.8235  -57.3780 H         1 UNK         0.0600 
    232 H232       -7.4795  -17.2224  -57.8734 H         1 UNK         0.0600 
    233 H233       -7.3164  -18.8826  -57.3013 H         1 UNK         0.0600 
    234 H234       -6.4292  -18.3451  -58.7191 H         1 UNK         0.0600 
    235 H235       -4.0173  -17.9831  -54.8111 H         1 UNK         0.3000 
    236 H236       -3.0982  -20.6631  -55.3926 H         1 UNK         0.0600 
    237 H237       -1.5814  -20.2380  -53.4445 H         1 UNK         0.0600 
    238 H238       -2.0714  -18.5495  -53.4197 H         1 UNK         0.0600 
    239 H239       -3.2446  -19.8210  -53.0692 H         1 UNK         0.0600 
    240 H240       -1.0552  -21.3211  -56.0828 H         1 UNK         0.3000 
    241 H241        0.7826  -21.4107  -57.2646 H         1 UNK         0.0600 
    242 H242       -1.1380  -19.7501  -60.2013 H         1 UNK         0.3800 
    243 H243       -1.8067  -20.1717  -58.6466 H         1 UNK         0.3800 
    244 H244        2.5092  -19.6324  -57.1953 H         1 UNK         0.0800 
    245 H245        1.3653  -18.4961  -56.5442 H         1 UNK         0.0800 
    246 H246        2.0330  -17.9040  -54.0958 H         1 UNK         0.0800 
    247 H247        0.4176  -18.5629  -54.1464 H         1 UNK         0.0800 
@<TRIPOS>BOND
     1    1    2 1    
     2    1  127 1    
     3    1  128 1    
     4    1  129 1    
     5    2    3 2    
     6    2    4 am   BACKBONE|DICT|INTERRES
     7    4    5 1    
     8    4  130 1    
     9    5    6 1    
    10    5   65 1    
    11    5  131 1    
    12    6    7 1    
    13    6  132 1    
    14    6  133 1    
    15    7    8 1    
    16    8    9 1    
    17    8  134 1    
    18    8  135 1    
    19    9   10 ar   
    20    9   14 ar   
    21   10   11 ar   
    22   10  136 1    
    23   11   12 ar   
    24   11  126 1    
    25   12   13 ar   
    26   12  137 1    
    27   13   14 ar   
    28   13   15 1    
    29   14  138 1    
    30   15   16 1    
    31   15  139 1    
    32   15  140 1    
    33   16   17 1    
    34   17   18 1    
    35   17  141 1    
    36   17  142 1    
    37   18   19 1    
    38   18   67 1    
    39   18  143 1    
    40   19   20 am   BACKBONE|DICT|INTERRES
    41   19  144 1    
    42   20   21 2    
    43   20   22 1    
    44   22   23 1    
    45   22   24 1    
    46   22  145 1    
    47   23  146 1    
    48   23  147 1    
    49   23  148 1    
    50   24   25 am   BACKBONE|DICT|INTERRES
    51   24  149 1    
    52   25   26 2    
    53   25   27 1    
    54   27   28 1    
    55   27   29 1    
    56   27  150 1    
    57   28  151 1    
    58   28  152 1    
    59   28  153 1    
    60   29   30 am   BACKBONE|DICT|INTERRES
    61   29  154 1    
    62   30   31 2    
    63   30   32 1    
    64   32   33 1    
    65   32   34 1    
    66   32  155 1    
    67   33  156 1    
    68   33  157 1    
    69   33  158 1    
    70   34   35 am   BACKBONE|DICT|INTERRES
    71   34  159 1    
    72   35   36 2    
    73   35   37 1    
    74   37   38 1    
    75   37   39 1    
    76   37  160 1    
    77   38  161 1    
    78   38  162 1    
    79   38  163 1    
    80   39   40 am   BACKBONE|DICT|INTERRES
    81   39  164 1    
    82   40   41 2    
    83   40   42 1    
    84   42   43 1    
    85   42   44 1    
    86   42  165 1    
    87   43  166 1    
    88   43  167 1    
    89   43  168 1    
    90   44   45 am   BACKBONE|DICT|INTERRES
    91   44  169 1    
    92   45   46 2    
    93   45   47 1    
    94   47   48 1    
    95   47   49 1    
    96   47  170 1    
    97   48  171 1    
    98   48  172 1    
    99   48  173 1    
   100   49   50 am   BACKBONE|DICT|INTERRES
   101   49  174 1    
   102   50   51 2    
   103   50   52 1    
   104   52   53 1    
   105   52   54 1    
   106   52  175 1    
   107   53  176 1    
   108   53  177 1    
   109   53  178 1    
   110   54   55 am   BACKBONE|DICT|INTERRES
   111   54  179 1    
   112   55   56 2    
   113   55   57 1    
   114   57   58 1    
   115   57   59 1    
   116   57  180 1    
   117   58  181 1    
   118   58  182 1    
   119   58  183 1    
   120   59   60 am   BACKBONE|DICT|INTERRES
   121   59  184 1    
   122   60   61 2    
   123   60   62 1    
   124   62   63 1    
   125   62   64 1    
   126   62  185 1    
   127   63  186 1    
   128   63  187 1    
   129   63  188 1    
   130   64   65 am   BACKBONE|DICT|INTERRES
   131   64  189 1    
   132   65   66 2    
   133   67   68 2    
   134   67   69 am   BACKBONE|DICT|INTERRES
   135   69   70 1    
   136   69  190 1    
   137   70   71 1    
   138   70   72 1    
   139   70  191 1    
   140   71  192 1    
   141   71  193 1    
   142   71  194 1    
   143   72   73 2    
   144   72   74 am   BACKBONE|DICT|INTERRES
   145   74   75 1    
   146   74  195 1    
   147   75   76 1    
   148   75   77 1    
   149   75  196 1    
   150   76  197 1    
   151   76  198 1    
   152   76  199 1    
   153   77   78 2    
   154   77   79 am   BACKBONE|DICT|INTERRES
   155   79   80 1    
   156   79  200 1    
   157   80   81 1    
   158   80   82 1    
   159   80  201 1    
   160   81  202 1    
   161   81  203 1    
   162   81  204 1    
   163   82   83 2    
   164   82   84 am   BACKBONE|DICT|INTERRES
   165   84   85 1    
   166   84  205 1    
   167   85   86 1    
   168   85   87 1    
   169   85  206 1    
   170   86  207 1    
   171   86  208 1    
   172   86  209 1    
   173   87   88 2    
   174   87   89 am   BACKBONE|DICT|INTERRES
   175   89   90 1    
   176   89  210 1    
   177   90   91 1    
   178   90   92 1    
   179   90  211 1    
   180   91  212 1    
   181   91  213 1    
   182   91  214 1    
   183   92   93 2    
   184   92   94 am   BACKBONE|DICT|INTERRES
   185   94   95 1    
   186   94  215 1    
   187   95   96 1    
   188   95   97 1    
   189   95  216 1    
   190   96  217 1    
   191   96  218 1    
   192   96  219 1    
   193   97   98 2    
   194   97   99 am   BACKBONE|DICT|INTERRES
   195   99  100 1    
   196   99  220 1    
   197  100  101 1    
   198  100  102 1    
   199  100  221 1    
   200  101  222 1    
   201  101  223 1    
   202  101  224 1    
   203  102  103 2    
   204  102  104 am   BACKBONE|DICT|INTERRES
   205  104  105 1    
   206  104  225 1    
   207  105  106 1    
   208  105  107 1    
   209  105  226 1    
   210  106  227 1    
   211  106  228 1    
   212  106  229 1    
   213  107  108 2    
   214  107  109 am   BACKBONE|DICT|INTERRES
   215  109  110 1    
   216  109  230 1    
   217  110  111 1    
   218  110  112 1    
   219  110  231 1    
   220  111  232 1    
   221  111  233 1    
   222  111  234 1    
   223  112  113 2    
   224  112  114 am   BACKBONE|DICT|INTERRES
   225  114  115 1    
   226  114  235 1    
   227  115  116 1    
   228  115  117 1    
   229  115  236 1    
   230  116  237 1    
   231  116  238 1    
   232  116  239 1    
   233  117  118 2    
   234  117  119 am   BACKBONE|DICT|INTERRES
   235  119  120 1    
   236  119  240 1    
   237  120  121 1    
   238  120  124 1    
   239  120  241 1    
   240  121  122 am   BACKBONE|DICT|INTERRES
   241  121  123 2    
   242  122  242 1    
   243  122  243 1    
   244  124  125 1    
   245  124  244 1    
   246  124  245 1    
   247  125  126 1    
   248  126  246 1    
   249  126  247 1    
@<TRIPOS>SUBSTRUCTURE
     1 UNK         1 GROUP             0       ****    0 ROOT    
