@<TRIPOS>MOLECULE
3R540
247   249    1
SMALL
USER_CHARGES


@<TRIPOS>ATOM
      1 CA          8.0719  -11.9574  -45.4745 C.3       0 UNK        -0.1800 
      2 C           6.8999  -12.9225  -45.3692 C.2       0 UNK         0.5000 
      3 O           6.6008  -13.4105  -44.2790 O.2       0 UNK        -0.5000 
      4 N           6.2195  -13.1886  -46.4911 N.am      1 UNK        -0.5000 
      5 CA          5.0739  -14.0999  -46.6170 C.3       1 UNK         0.1400 
      6 C6          4.9770  -14.6465  -48.0649 C.3       23 UNK        -0.0398 
      7 S7          3.9809  -16.1681  -48.2015 S.3       23 UNK        -0.2404 
      8 C8          3.7581  -16.2317  -50.0057 C.3       23 UNK        -0.0205 
      9 C9          2.6918  -17.2428  -50.3883 C.ar      23 UNK        -0.0193 
     10 C10         1.3984  -16.8182  -50.6993 C.ar      23 UNK        -0.1150 
     11 C11         0.3967  -17.7369  -51.0263 C.ar      23 UNK        -0.0193 
     12 C12         0.7095  -19.1046  -51.0177 C.ar      23 UNK        -0.1150 
     13 C13         2.0079  -19.5438  -50.7358 C.ar      23 UNK        -0.0193 
     14 C14         2.9968  -18.6034  -50.4323 C.ar      23 UNK        -0.1150 
     15 C15         2.3319  -21.0351  -50.7763 C.3       23 UNK        -0.0205 
     16 S16         3.3476  -21.6139  -49.3717 S.3       23 UNK        -0.2404 
     17 C17         2.3204  -21.1244  -47.9447 C.3       23 UNK        -0.0398 
     18 CA          1.5105  -22.2828  -47.3211 C.3       11 UNK         0.1400 
     19 N           0.9166  -21.8801  -46.0455 N.am      11 UNK        -0.5000 
     20 C           0.2750  -22.6967  -45.1987 C.2       10 UNK         0.5000 
     21 O           0.1709  -23.9118  -45.3640 O.2       10 UNK        -0.5000 
     22 CA         -0.4114  -22.0324  -43.9916 C.3       10 UNK         0.1400 
     23 CB          0.6032  -21.7407  -42.8764 C.3       10 UNK        -0.1800 
     24 N          -1.1057  -20.7973  -44.3583 N.am      10 UNK        -0.5000 
     25 C          -2.1460  -20.7292  -45.2005 C.2       9 UNK         0.5000 
     26 O          -2.6768  -21.7146  -45.7098 O.2       9 UNK        -0.5000 
     27 CA         -2.6463  -19.3251  -45.5788 C.3       9 UNK         0.1400 
     28 CB         -3.6000  -18.7664  -44.5135 C.3       9 UNK        -0.1800 
     29 N          -1.5466  -18.3879  -45.8038 N.am      9 UNK        -0.5000 
     30 C          -0.7020  -18.4563  -46.8426 C.2       8 UNK         0.5000 
     31 O          -0.7789  -19.3065  -47.7282 O.2       8 UNK        -0.5000 
     32 CA          0.4519  -17.4390  -46.8574 C.3       8 UNK         0.1400 
     33 CB         -0.0033  -16.1016  -47.4564 C.3       8 UNK        -0.1800 
     34 N           0.9947  -17.2135  -45.5177 N.am      8 UNK        -0.5000 
     35 C           1.7087  -18.1240  -44.8415 C.2       7 UNK         0.5000 
     36 O           1.9853  -19.2387  -45.2832 O.2       7 UNK        -0.5000 
     37 CA          2.1520  -17.7494  -43.4153 C.3       7 UNK         0.1400 
     38 CB          3.4561  -16.9374  -43.4609 C.3       7 UNK        -0.1800 
     39 N           1.1414  -17.0047  -42.6606 N.am      7 UNK        -0.5000 
     40 C          -0.0973  -17.4366  -42.3837 C.2       6 UNK         0.5000 
     41 O          -0.5312  -18.5323  -42.7382 O.2       6 UNK        -0.5000 
     42 CA         -1.0314  -16.4788  -41.6139 C.3       6 UNK         0.1400 
     43 CB         -0.2964  -15.3142  -40.9155 C.3       6 UNK        -0.1800 
     44 N          -2.1174  -15.9517  -42.4503 N.am      6 UNK        -0.5000 
     45 C          -2.0053  -15.3524  -43.6459 C.2       5 UNK         0.5000 
     46 O          -0.9392  -15.2436  -44.2515 O.2       5 UNK        -0.5000 
     47 CA         -3.2859  -14.7645  -44.2759 C.3       5 UNK         0.1400 
     48 CB         -4.5659  -15.0024  -43.4487 C.3       5 UNK        -0.1800 
     49 N          -3.1078  -13.3252  -44.4594 N.am      5 UNK        -0.5000 
     50 C          -2.5614  -12.7424  -45.5340 C.2       4 UNK         0.5000 
     51 O          -2.2766  -13.3472  -46.5693 O.2       4 UNK        -0.5000 
     52 CA         -2.2594  -11.2350  -45.4447 C.3       4 UNK         0.1400 
     53 CB         -2.4248  -10.6352  -44.0290 C.3       4 UNK        -0.1800 
     54 N          -0.8960  -11.0339  -45.9212 N.am      4 UNK        -0.5000 
     55 C          -0.3549   -9.8860  -46.3450 C.2       3 UNK         0.5000 
     56 O          -0.9763   -8.8240  -46.4168 O.2       3 UNK        -0.5000 
     57 CA          1.1350   -9.9495  -46.7545 C.3       3 UNK         0.1400 
     58 CB          1.8367   -8.5759  -46.7117 C.3       3 UNK        -0.1800 
     59 N           1.8865  -10.9545  -45.9913 N.am      3 UNK        -0.5000 
     60 C           2.1079  -10.9886  -44.6704 C.2       2 UNK         0.5000 
     61 O           1.8027  -10.0770  -43.9008 O.2       2 UNK        -0.5000 
     62 CA          2.7426  -12.2696  -44.0886 C.3       2 UNK         0.1400 
     63 CB          1.6459  -13.2913  -43.7425 C.3       2 UNK        -0.1800 
     64 N           3.8043  -12.9041  -44.8843 N.am      2 UNK        -0.5000 
     65 C           3.7623  -13.4468  -46.1099 C.2       1 UNK         0.5000 
     66 O           2.7620  -13.4189  -46.8282 O.2       1 UNK        -0.5000 
     67 C           0.4464  -22.8406  -48.2901 C.2       11 UNK         0.5000 
     68 O           0.6506  -23.9140  -48.8579 O.2       11 UNK        -0.5000 
     69 N          -0.6855  -22.1337  -48.4291 N.am      12 UNK        -0.5000 
     70 CA         -1.8309  -22.5700  -49.2274 C.3       12 UNK         0.1400 
     71 CB         -2.8998  -21.4723  -49.2590 C.3       12 UNK        -0.1800 
     72 C          -2.4273  -23.8952  -48.7255 C.2       12 UNK         0.5000 
     73 O          -2.6548  -24.7918  -49.5345 O.2       12 UNK        -0.5000 
     74 N          -2.6130  -24.0198  -47.4038 N.am      13 UNK        -0.5000 
     75 CA         -3.0993  -25.2322  -46.7448 C.3       13 UNK         0.1400 
     76 CB         -3.3231  -24.9578  -45.2505 C.3       13 UNK        -0.1800 
     77 C          -2.1680  -26.4414  -46.9489 C.2       13 UNK         0.5000 
     78 O          -2.6563  -27.5360  -47.2297 O.2       13 UNK        -0.5000 
     79 N          -0.8482  -26.2184  -46.8637 N.am      14 UNK        -0.5000 
     80 CA          0.1851  -27.2174  -47.1524 C.3       14 UNK         0.1400 
     81 CB          1.5585  -26.6716  -46.7334 C.3       14 UNK        -0.1800 
     82 C           0.1987  -27.6625  -48.6291 C.2       14 UNK         0.5000 
     83 O           0.4555  -28.8338  -48.9085 O.2       14 UNK        -0.5000 
     84 N          -0.1184  -26.7337  -49.5408 N.am      15 UNK        -0.5000 
     85 CA         -0.2989  -26.9777  -50.9740 C.3       15 UNK         0.1400 
     86 CB         -0.0756  -25.6565  -51.7298 C.3       15 UNK        -0.1800 
     87 C          -1.6739  -27.5895  -51.3290 C.2       15 UNK         0.5000 
     88 O          -1.9004  -27.9039  -52.4982 O.2       15 UNK        -0.5000 
     89 N          -2.5608  -27.7417  -50.3328 N.am      16 UNK        -0.5000 
     90 CA         -3.9422  -28.2277  -50.4187 C.3       16 UNK         0.1400 
     91 CB         -3.9874  -29.6982  -50.8849 C.3       16 UNK        -0.1800 
     92 C          -4.8680  -27.2981  -51.2344 C.2       16 UNK         0.5000 
     93 O          -5.7899  -27.7728  -51.9011 O.2       16 UNK        -0.5000 
     94 N          -4.6139  -25.9883  -51.1526 N.am      17 UNK        -0.5000 
     95 CA         -5.3997  -24.9193  -51.7589 C.3       17 UNK         0.1400 
     96 CB         -4.4472  -24.0247  -52.5709 C.3       17 UNK        -0.1800 
     97 C          -6.0933  -24.0896  -50.6655 C.2       17 UNK         0.5000 
     98 O          -5.7337  -24.1742  -49.4886 O.2       17 UNK        -0.5000 
     99 N          -7.0603  -23.2646  -51.0817 N.am      18 UNK        -0.5000 
    100 CA        -7.6364  -22.2083  -50.2513 C.3       18 UNK         0.1400 
    101 CB        -8.9745  -21.7650  -50.8628 C.3       18 UNK        -0.1800 
    102 C         -6.6680  -21.0156  -50.1763 C.2       18 UNK         0.5000 
    103 O         -5.9690  -20.7426  -51.1554 O.2       18 UNK        -0.5000 
    104 N         -6.6824  -20.2876  -49.0528 N.am      19 UNK        -0.5000 
    105 CA        -5.8381  -19.1097  -48.8074 C.3       19 UNK         0.1400 
    106 CB        -5.9922  -18.6841  -47.3393 C.3       19 UNK        -0.1800 
    107 C         -6.1193  -17.9198  -49.7489 C.2       19 UNK         0.5000 
    108 O         -5.2527  -17.0642  -49.9224 O.2       19 UNK        -0.5000 
    109 N         -7.3184  -17.8903  -50.3440 N.am      20 UNK        -0.5000 
    110 CA        -7.7144  -16.9262  -51.3693 C.3       20 UNK         0.1400 
    111 CB        -9.2430  -16.7699  -51.3245 C.3       20 UNK        -0.1800 
    112 C         -7.2606  -17.3348  -52.7866 C.2       20 UNK         0.5000 
    113 O         -7.2884  -16.4912  -53.6839 O.2       20 UNK        -0.5000 
    114 N         -6.8863  -18.6079  -52.9779 N.am      21 UNK        -0.5000 
    115 CA        -6.5229  -19.1848  -54.2707 C.3       21 UNK         0.1400 
    116 CB        -7.2550  -20.5259  -54.4514 C.3       21 UNK        -0.1800 
    117 C         -5.0040  -19.3740  -54.3899 C.2       21 UNK         0.5000 
    118 O         -4.4158  -18.9132  -55.3685 O.2       21 UNK        -0.5000 
    119 N         -4.4042  -20.0558  -53.4032 N.am      22 UNK        -0.5000 
    120 CA        -2.9698  -20.3956  -53.3194 C.3       22 UNK         0.1400 
    121 C         -2.4384  -21.3489  -54.4369 C.2       22 UNK         0.5000 
    122 N         -3.2893  -21.9966  -55.2234 N.am      22 UNK        -0.7600 
    123 O         -1.2332  -21.5408  -54.5714 O.2       22 UNK        -0.5000 
    124 C124       -2.0727  -19.1407  -53.1243 C.3       23 UNK        -0.0398 
    125 S125       -2.3577  -18.3739  -51.4941 S.3       23 UNK        -0.2404 
    126 C126       -0.9821  -17.1801  -51.3986 C.3       23 UNK        -0.0205 
    127 H127        7.9039  -11.0919  -44.8336 H         1 UNK         0.0600 
    128 H128        8.2147  -11.6024  -46.4954 H         1 UNK         0.0600 
    129 H129        8.9909  -12.4477  -45.1533 H         1 UNK         0.0600 
    130 H130        6.4946  -12.7221  -47.3441 H         1 UNK         0.3000 
    131 H131        5.2629  -14.9534  -45.9619 H         1 UNK         0.0600 
    132 H132        4.5860  -13.8831  -48.7400 H         1 UNK         0.0800 
    133 H133        5.9733  -14.8927  -48.4355 H         1 UNK         0.0800 
    134 H134        4.7057  -16.4902  -50.4807 H         1 UNK         0.0800 
    135 H135        3.4837  -15.2435  -50.3779 H         1 UNK         0.0800 
    136 H136        1.1682  -15.7619  -50.6832 H         1 UNK         0.1150 
    137 H137       -0.0478  -19.8411  -51.2376 H         1 UNK         0.1150 
    138 H138        4.0023  -18.9301  -50.2075 H         1 UNK         0.1150 
    139 H139        1.4158  -21.6264  -50.8126 H         1 UNK         0.0800 
    140 H140        2.8672  -21.2466  -51.7026 H         1 UNK         0.0800 
    141 H141        1.6665  -20.2930  -48.2068 H         1 UNK         0.0800 
    142 H142        3.0099  -20.7265  -47.1997 H         1 UNK         0.0800 
    143 H143        2.2057  -23.0958  -47.1009 H         1 UNK         0.0600 
    144 H144        1.0022  -20.8983  -45.8025 H         1 UNK         0.3000 
    145 H145       -1.1545  -22.7314  -43.6029 H         1 UNK         0.0600 
    146 H146        0.1118  -21.3266  -41.9957 H         1 UNK         0.0600 
    147 H147        1.1152  -22.6524  -42.5661 H         1 UNK         0.0600 
    148 H148        1.3639  -21.0294  -43.1990 H         1 UNK         0.0600 
    149 H149       -0.7716  -19.9394  -43.9254 H         1 UNK         0.3000 
    150 H150       -3.2024  -19.4178  -46.5138 H         1 UNK         0.0600 
    151 H151       -4.4293  -19.4522  -44.3359 H         1 UNK         0.0600 
    152 H152       -4.0289  -17.8177  -44.8335 H         1 UNK         0.0600 
    153 H153       -3.0978  -18.6074  -43.5593 H         1 UNK         0.0600 
    154 H154       -1.3657  -17.7026  -45.0848 H         1 UNK         0.3000 
    155 H155        1.2462  -17.8401  -47.4913 H         1 UNK         0.0600 
    156 H156       -0.7836  -15.6328  -46.8578 H         1 UNK         0.0600 
    157 H157        0.8283  -15.4008  -47.5343 H         1 UNK         0.0600 
    158 H158       -0.4063  -16.2422  -48.4582 H         1 UNK         0.0600 
    159 H159        0.7315  -16.3483  -45.0595 H         1 UNK         0.3000 
    160 H160        2.3457  -18.6778  -42.8745 H         1 UNK         0.0600 
    161 H161        3.3295  -15.9988  -44.0015 H         1 UNK         0.0600 
    162 H162        4.2448  -17.4977  -43.9649 H         1 UNK         0.0600 
    163 H163        3.8146  -16.7041  -42.4583 H         1 UNK         0.0600 
    164 H164        1.3999  -16.0802  -42.3516 H         1 UNK         0.3000 
    165 H165       -1.5020  -17.0821  -40.8363 H         1 UNK         0.0600 
    166 H166       -0.9807  -14.7531  -40.2790 H         1 UNK         0.0600 
    167 H167        0.5077  -15.6784  -40.2747 H         1 UNK         0.0600 
    168 H168        0.1323  -14.6116  -41.6286 H         1 UNK         0.0600 
    169 H169       -3.0408  -16.0223  -42.0473 H         1 UNK         0.3000 
    170 H170       -3.4178  -15.2494  -45.2455 H         1 UNK         0.0600 
    171 H171       -4.7530  -16.0656  -43.2950 H         1 UNK         0.0600 
    172 H172       -4.5166  -14.5236  -42.4698 H         1 UNK         0.0600 
    173 H173       -5.4380  -14.6005  -43.9649 H         1 UNK         0.0600 
    174 H174       -3.2818  -12.7503  -43.6479 H         1 UNK         0.3000 
    175 H175       -2.9482  -10.7308  -46.1251 H         1 UNK         0.0600 
    176 H176       -1.7566  -11.1102  -43.3092 H         1 UNK         0.0600 
    177 H177       -2.2036   -9.5679  -44.0241 H         1 UNK         0.0600 
    178 H178       -3.4479  -10.7425  -43.6669 H         1 UNK         0.0600 
    179 H179       -0.3332  -11.8732  -45.9583 H         1 UNK         0.3000 
    180 H180        1.1465  -10.2898  -47.7908 H         1 UNK         0.0600 
    181 H181        1.7939   -8.1273  -45.7190 H         1 UNK         0.0600 
    182 H182        1.3675   -7.8767  -47.4047 H         1 UNK         0.0600 
    183 H183        2.8851   -8.6599  -46.9977 H         1 UNK         0.0600 
    184 H184        2.1619  -11.7891  -46.5082 H         1 UNK         0.3000 
    185 H185        3.2187  -11.9735  -43.1525 H         1 UNK         0.0600 
    186 H186        0.8555  -12.8339  -43.1458 H         1 UNK         0.0600 
    187 H187        1.1787  -13.7021  -44.6376 H         1 UNK         0.0600 
    188 H188        2.0520  -14.1193  -43.1640 H         1 UNK         0.0600 
    189 H189        4.7047  -12.9626  -44.4165 H         1 UNK         0.3000 
    190 H190       -0.7672  -21.2289  -47.9733 H         1 UNK         0.3000 
    191 H191       -1.4772  -22.7252  -50.2487 H         1 UNK         0.0600 
    192 H192       -3.3441  -21.3088  -48.2777 H         1 UNK         0.0600 
    193 H193       -3.7047  -21.7389  -49.9439 H         1 UNK         0.0600 
    194 H194       -2.4811  -20.5261  -49.5961 H         1 UNK         0.0600 
    195 H195       -2.4421  -23.2142  -46.8066 H         1 UNK         0.3000 
    196 H196       -4.0644  -25.4800  -47.1921 H         1 UNK         0.0600 
    197 H197       -3.7106  -25.8427  -44.7444 H         1 UNK         0.0600 
    198 H198       -4.0457  -24.1552  -45.1021 H         1 UNK         0.0600 
    199 H199       -2.3981  -24.6711  -44.7502 H         1 UNK         0.0600 
    200 H200       -0.5248  -25.2977  -46.5803 H         1 UNK         0.3000 
    201 H201       -0.0274  -28.0996  -46.5452 H         1 UNK         0.0600 
    202 H202        1.5770  -26.4251  -45.6716 H         1 UNK         0.0600 
    203 H203        1.8220  -25.7717  -47.2893 H         1 UNK         0.0600 
    204 H204        2.3426  -27.4086  -46.9105 H         1 UNK         0.0600 
    205 H205       -0.2637  -25.7797  -49.2274 H         1 UNK         0.3000 
    206 H206        0.4634  -27.6861  -51.3041 H         1 UNK         0.0600 
    207 H207        0.9032  -25.2328  -51.5041 H         1 UNK         0.0600 
    208 H208       -0.1226  -25.8083  -52.8088 H         1 UNK         0.0600 
    209 H209       -0.8284  -24.9116  -51.4725 H         1 UNK         0.0600 
    210 H210       -2.2795  -27.4276  -49.4125 H         1 UNK         0.3000 
    211 H211       -4.3271  -28.2017  -49.3985 H         1 UNK         0.0600 
    212 H212       -3.6891  -29.8040  -51.9281 H         1 UNK         0.0600 
    213 H213       -4.9943  -30.1064  -50.7915 H         1 UNK         0.0600 
    214 H214       -3.3286  -30.3229  -50.2816 H         1 UNK         0.0600 
    215 H215       -3.8718  -25.6693  -50.5300 H         1 UNK         0.3000 
    216 H216       -6.1635  -25.3258  -52.4246 H         1 UNK         0.0600 
    217 H217       -4.9869  -23.2127  -53.0590 H         1 UNK         0.0600 
    218 H218       -3.9417  -24.5938  -53.3514 H         1 UNK         0.0600 
    219 H219       -3.6805  -23.5744  -51.9390 H         1 UNK         0.0600 
    220 H220       -7.2840  -23.2300  -52.0650 H         1 UNK         0.3000 
    221 H221       -7.8165  -22.5928  -49.2451 H         1 UNK         0.0600 
    222 H222       -8.8466  -21.3514  -51.8640 H         1 UNK         0.0600 
    223 H223       -9.6707  -22.6010  -50.9330 H         1 UNK         0.0600 
    224 H224       -9.4508  -20.9988  -50.2501 H         1 UNK         0.0600 
    225 H225       -7.2956  -20.5620  -48.2986 H         1 UNK         0.3000 
    226 H226       -4.7993  -19.4010  -48.9703 H         1 UNK         0.0600 
    227 H227       -5.7310  -19.4980  -46.6630 H         1 UNK         0.0600 
    228 H228       -5.3375  -17.8434  -47.1057 H         1 UNK         0.0600 
    229 H229       -7.0143  -18.3763  -47.1153 H         1 UNK         0.0600 
    230 H230       -7.9825  -18.6166  -50.1218 H         1 UNK         0.3000 
    231 H231       -7.2670  -15.9553  -51.1459 H         1 UNK         0.0600 
    232 H232       -9.5828  -16.0323  -52.0527 H         1 UNK         0.0600 
    233 H233       -9.5763  -16.4320  -50.3431 H         1 UNK         0.0600 
    234 H234       -9.7508  -17.7093  -51.5475 H         1 UNK         0.0600 
    235 H235       -6.7976  -19.2199  -52.1757 H         1 UNK         0.3000 
    236 H236       -6.8401  -18.5272  -55.0829 H         1 UNK         0.0600 
    237 H237       -8.3360  -20.3886  -54.4198 H         1 UNK         0.0600 
    238 H238       -7.0138  -20.9749  -55.4156 H         1 UNK         0.0600 
    239 H239       -6.9887  -21.2464  -53.6778 H         1 UNK         0.0600 
    240 H240       -4.9689  -20.3707  -52.6170 H         1 UNK         0.3000 
    241 H241       -2.8785  -20.9983  -52.4150 H         1 UNK         0.0600 
    242 H242       -4.2809  -21.8525  -55.1357 H         1 UNK         0.3800 
    243 H243       -2.9314  -22.6175  -55.9317 H         1 UNK         0.3800 
    244 H244       -1.0159  -19.3932  -53.2043 H         1 UNK         0.0800 
    245 H245       -2.2567  -18.4014  -53.9040 H         1 UNK         0.0800 
    246 H246       -0.9041  -16.6572  -52.3526 H         1 UNK         0.0800 
    247 H247       -1.2647  -16.4261  -50.6633 H         1 UNK         0.0800 
@<TRIPOS>BOND
     1    1    2 1    
     2    1  127 1    
     3    1  128 1    
     4    1  129 1    
     5    2    3 2    
     6    2    4 am   BACKBONE|DICT|INTERRES
     7    4    5 1    
     8    4  130 1    
     9    5    6 1    
    10    5   65 1    
    11    5  131 1    
    12    6    7 1    
    13    6  132 1    
    14    6  133 1    
    15    7    8 1    
    16    8    9 1    
    17    8  134 1    
    18    8  135 1    
    19    9   10 ar   
    20    9   14 ar   
    21   10   11 ar   
    22   10  136 1    
    23   11   12 ar   
    24   11  126 1    
    25   12   13 ar   
    26   12  137 1    
    27   13   14 ar   
    28   13   15 1    
    29   14  138 1    
    30   15   16 1    
    31   15  139 1    
    32   15  140 1    
    33   16   17 1    
    34   17   18 1    
    35   17  141 1    
    36   17  142 1    
    37   18   19 1    
    38   18   67 1    
    39   18  143 1    
    40   19   20 am   BACKBONE|DICT|INTERRES
    41   19  144 1    
    42   20   21 2    
    43   20   22 1    
    44   22   23 1    
    45   22   24 1    
    46   22  145 1    
    47   23  146 1    
    48   23  147 1    
    49   23  148 1    
    50   24   25 am   BACKBONE|DICT|INTERRES
    51   24  149 1    
    52   25   26 2    
    53   25   27 1    
    54   27   28 1    
    55   27   29 1    
    56   27  150 1    
    57   28  151 1    
    58   28  152 1    
    59   28  153 1    
    60   29   30 am   BACKBONE|DICT|INTERRES
    61   29  154 1    
    62   30   31 2    
    63   30   32 1    
    64   32   33 1    
    65   32   34 1    
    66   32  155 1    
    67   33  156 1    
    68   33  157 1    
    69   33  158 1    
    70   34   35 am   BACKBONE|DICT|INTERRES
    71   34  159 1    
    72   35   36 2    
    73   35   37 1    
    74   37   38 1    
    75   37   39 1    
    76   37  160 1    
    77   38  161 1    
    78   38  162 1    
    79   38  163 1    
    80   39   40 am   BACKBONE|DICT|INTERRES
    81   39  164 1    
    82   40   41 2    
    83   40   42 1    
    84   42   43 1    
    85   42   44 1    
    86   42  165 1    
    87   43  166 1    
    88   43  167 1    
    89   43  168 1    
    90   44   45 am   BACKBONE|DICT|INTERRES
    91   44  169 1    
    92   45   46 2    
    93   45   47 1    
    94   47   48 1    
    95   47   49 1    
    96   47  170 1    
    97   48  171 1    
    98   48  172 1    
    99   48  173 1    
   100   49   50 am   BACKBONE|DICT|INTERRES
   101   49  174 1    
   102   50   51 2    
   103   50   52 1    
   104   52   53 1    
   105   52   54 1    
   106   52  175 1    
   107   53  176 1    
   108   53  177 1    
   109   53  178 1    
   110   54   55 am   BACKBONE|DICT|INTERRES
   111   54  179 1    
   112   55   56 2    
   113   55   57 1    
   114   57   58 1    
   115   57   59 1    
   116   57  180 1    
   117   58  181 1    
   118   58  182 1    
   119   58  183 1    
   120   59   60 am   BACKBONE|DICT|INTERRES
   121   59  184 1    
   122   60   61 2    
   123   60   62 1    
   124   62   63 1    
   125   62   64 1    
   126   62  185 1    
   127   63  186 1    
   128   63  187 1    
   129   63  188 1    
   130   64   65 am   BACKBONE|DICT|INTERRES
   131   64  189 1    
   132   65   66 2    
   133   67   68 2    
   134   67   69 am   BACKBONE|DICT|INTERRES
   135   69   70 1    
   136   69  190 1    
   137   70   71 1    
   138   70   72 1    
   139   70  191 1    
   140   71  192 1    
   141   71  193 1    
   142   71  194 1    
   143   72   73 2    
   144   72   74 am   BACKBONE|DICT|INTERRES
   145   74   75 1    
   146   74  195 1    
   147   75   76 1    
   148   75   77 1    
   149   75  196 1    
   150   76  197 1    
   151   76  198 1    
   152   76  199 1    
   153   77   78 2    
   154   77   79 am   BACKBONE|DICT|INTERRES
   155   79   80 1    
   156   79  200 1    
   157   80   81 1    
   158   80   82 1    
   159   80  201 1    
   160   81  202 1    
   161   81  203 1    
   162   81  204 1    
   163   82   83 2    
   164   82   84 am   BACKBONE|DICT|INTERRES
   165   84   85 1    
   166   84  205 1    
   167   85   86 1    
   168   85   87 1    
   169   85  206 1    
   170   86  207 1    
   171   86  208 1    
   172   86  209 1    
   173   87   88 2    
   174   87   89 am   BACKBONE|DICT|INTERRES
   175   89   90 1    
   176   89  210 1    
   177   90   91 1    
   178   90   92 1    
   179   90  211 1    
   180   91  212 1    
   181   91  213 1    
   182   91  214 1    
   183   92   93 2    
   184   92   94 am   BACKBONE|DICT|INTERRES
   185   94   95 1    
   186   94  215 1    
   187   95   96 1    
   188   95   97 1    
   189   95  216 1    
   190   96  217 1    
   191   96  218 1    
   192   96  219 1    
   193   97   98 2    
   194   97   99 am   BACKBONE|DICT|INTERRES
   195   99  100 1    
   196   99  220 1    
   197  100  101 1    
   198  100  102 1    
   199  100  221 1    
   200  101  222 1    
   201  101  223 1    
   202  101  224 1    
   203  102  103 2    
   204  102  104 am   BACKBONE|DICT|INTERRES
   205  104  105 1    
   206  104  225 1    
   207  105  106 1    
   208  105  107 1    
   209  105  226 1    
   210  106  227 1    
   211  106  228 1    
   212  106  229 1    
   213  107  108 2    
   214  107  109 am   BACKBONE|DICT|INTERRES
   215  109  110 1    
   216  109  230 1    
   217  110  111 1    
   218  110  112 1    
   219  110  231 1    
   220  111  232 1    
   221  111  233 1    
   222  111  234 1    
   223  112  113 2    
   224  112  114 am   BACKBONE|DICT|INTERRES
   225  114  115 1    
   226  114  235 1    
   227  115  116 1    
   228  115  117 1    
   229  115  236 1    
   230  116  237 1    
   231  116  238 1    
   232  116  239 1    
   233  117  118 2    
   234  117  119 am   BACKBONE|DICT|INTERRES
   235  119  120 1    
   236  119  240 1    
   237  120  121 1    
   238  120  124 1    
   239  120  241 1    
   240  121  122 am   BACKBONE|DICT|INTERRES
   241  121  123 2    
   242  122  242 1    
   243  122  243 1    
   244  124  125 1    
   245  124  244 1    
   246  124  245 1    
   247  125  126 1    
   248  126  246 1    
   249  126  247 1    
@<TRIPOS>SUBSTRUCTURE
     1 UNK         1 GROUP             0       ****    0 ROOT    
