@<TRIPOS>MOLECULE
3R540
247   249    1
SMALL
USER_CHARGES


@<TRIPOS>ATOM
      1 CA         -1.7677  -13.1376  -43.6760 C.3       0 UNK        -0.1800 
      2 C          -2.6581  -12.8490  -44.8769 C.2       0 UNK         0.5000 
      3 O          -2.3793  -11.9200  -45.6346 O.2       0 UNK        -0.5000 
      4 N          -3.7341  -13.6302  -45.0437 N.am      1 UNK        -0.5000 
      5 CA         -4.6544  -13.5442  -46.1843 C.3       1 UNK         0.1400 
      6 C6         -6.0149  -14.2050  -45.8517 C.3       23 UNK        -0.0398 
      7 S7         -7.2709  -14.0187  -47.1691 S.3       23 UNK        -0.2404 
      8 C8         -8.0803  -15.6517  -47.1882 C.3       23 UNK        -0.0205 
      9 C9         -7.1131  -16.7967  -47.4582 C.ar      23 UNK        -0.0193 
     10 C10        -6.5887  -17.0014  -48.7385 C.ar      23 UNK        -0.1150 
     11 C11        -5.7202  -18.0699  -48.9863 C.ar      23 UNK        -0.0193 
     12 C12        -5.3668  -18.9253  -47.9394 C.ar      23 UNK        -0.1150 
     13 C13        -5.8813  -18.7280  -46.6553 C.ar      23 UNK        -0.0193 
     14 C14        -6.7590  -17.6674  -46.4234 C.ar      23 UNK        -0.1150 
     15 C15        -5.4924  -19.6581  -45.5184 C.3       23 UNK        -0.0205 
     16 S16        -3.9409  -19.1193  -44.7447 S.3       23 UNK        -0.2404 
     17 C17        -3.6678  -20.4462  -43.5203 C.3       23 UNK        -0.0398 
     18 CA         -2.5034  -21.3953  -43.9310 C.3       11 UNK         0.1400 
     19 N          -1.4519  -21.5071  -42.9139 N.am      11 UNK        -0.5000 
     20 C          -1.5630  -21.9538  -41.6552 C.2       10 UNK         0.5000 
     21 O          -2.6070  -22.3854  -41.1678 O.2       10 UNK        -0.5000 
     22 CA         -0.2807  -21.9047  -40.8086 C.3       10 UNK         0.1400 
     23 CB          0.7023  -23.0021  -41.2488 C.3       10 UNK        -0.1800 
     24 N           0.3600  -20.5973  -40.9441 N.am      10 UNK        -0.5000 
     25 C           0.2170  -19.5860  -40.0762 C.2       9 UNK         0.5000 
     26 O          -0.3556  -19.6883  -38.9905 O.2       9 UNK        -0.5000 
     27 CA          0.7860  -18.2164  -40.5027 C.3       9 UNK         0.1400 
     28 CB          2.2425  -18.0659  -40.0389 C.3       9 UNK        -0.1800 
     29 N           0.7220  -17.9906  -41.9470 N.am      9 UNK        -0.5000 
     30 C          -0.4035  -17.9407  -42.6738 C.2       8 UNK         0.5000 
     31 O          -1.5319  -17.9790  -42.1852 O.2       8 UNK        -0.5000 
     32 CA         -0.2442  -17.8493  -44.2044 C.3       8 UNK         0.1400 
     33 CB         -0.4276  -16.3917  -44.6517 C.3       8 UNK        -0.1800 
     34 N           1.0395  -18.3518  -44.7069 N.am      8 UNK        -0.5000 
     35 C           1.5126  -19.5999  -44.5661 C.2       7 UNK         0.5000 
     36 O           0.9152  -20.4969  -43.9703 O.2       7 UNK        -0.5000 
     37 CA          2.9117  -19.8745  -45.1401 C.3       7 UNK         0.1400 
     38 CB          2.8365  -20.1840  -46.6420 C.3       7 UNK        -0.1800 
     39 N           3.7980  -18.7327  -44.9208 N.am      7 UNK        -0.5000 
     40 C           4.4618  -18.4995  -43.7800 C.2       6 UNK         0.5000 
     41 O           4.4552  -19.2669  -42.8176 O.2       6 UNK        -0.5000 
     42 CA          5.2519  -17.1791  -43.6883 C.3       6 UNK         0.1400 
     43 CB          6.6918  -17.3785  -44.1847 C.3       6 UNK        -0.1800 
     44 N           4.6331  -16.0862  -44.4407 N.am      6 UNK        -0.5000 
     45 C           3.4695  -15.5039  -44.1190 C.2       5 UNK         0.5000 
     46 O           2.8150  -15.7944  -43.1177 O.2       5 UNK        -0.5000 
     47 CA          2.9268  -14.4480  -45.1041 C.3       5 UNK         0.1400 
     48 CB          3.4144  -13.0461  -44.7110 C.3       5 UNK        -0.1800 
     49 N           3.2582  -14.6961  -46.5125 N.am      5 UNK        -0.5000 
     50 C           2.9522  -15.8064  -47.1965 C.2       4 UNK         0.5000 
     51 O           2.4186  -16.7938  -46.6889 O.2       4 UNK        -0.5000 
     52 CA          3.2709  -15.7976  -48.7000 C.3       4 UNK         0.1400 
     53 CB          3.6950  -17.1849  -49.2096 C.3       4 UNK        -0.1800 
     54 N           2.0837  -15.3471  -49.4213 N.am      4 UNK        -0.5000 
     55 C           1.7694  -14.0569  -49.5972 C.2       3 UNK         0.5000 
     56 O           2.5273  -13.1307  -49.3024 O.2       3 UNK        -0.5000 
     57 CA          0.3754  -13.7245  -50.1632 C.3       3 UNK         0.1400 
     58 CB          0.4165  -13.5139  -51.6847 C.3       3 UNK        -0.1800 
     59 N          -0.6746  -14.6869  -49.8129 N.am      3 UNK        -0.5000 
     60 C          -1.1443  -14.8504  -48.5696 C.2       2 UNK         0.5000 
     61 O          -0.6472  -14.3108  -47.5779 O.2       2 UNK        -0.5000 
     62 CA         -2.3971  -15.7344  -48.4052 C.3       2 UNK         0.1400 
     63 CB         -2.0322  -17.1879  -48.0833 C.3       2 UNK        -0.1800 
     64 N          -3.2442  -15.2024  -47.3390 N.am      2 UNK        -0.5000 
     65 C          -4.0011  -14.1034  -47.4701 C.2       1 UNK         0.5000 
     66 O          -4.1559  -13.5089  -48.5389 O.2       1 UNK        -0.5000 
     67 C          -2.9861  -22.7538  -44.4952 C.2       11 UNK         0.5000 
     68 O          -3.8578  -22.7736  -45.3632 O.2       11 UNK        -0.5000 
     69 N          -2.3743  -23.8680  -44.0631 N.am      12 UNK        -0.5000 
     70 CA         -2.6032  -25.2170  -44.5968 C.3       12 UNK         0.1400 
     71 CB         -1.9033  -26.2398  -43.6900 C.3       12 UNK        -0.1800 
     72 C          -2.1215  -25.3645  -46.0546 C.2       12 UNK         0.5000 
     73 O          -2.6790  -26.1545  -46.8168 O.2       12 UNK        -0.5000 
     74 N          -1.1324  -24.5419  -46.4277 N.am      13 UNK        -0.5000 
     75 CA         -0.5844  -24.3784  -47.7735 C.3       13 UNK         0.1400 
     76 CB          0.7799  -23.6799  -47.6514 C.3       13 UNK        -0.1800 
     77 C          -1.5306  -23.6642  -48.7676 C.2       13 UNK         0.5000 
     78 O          -1.1237  -23.3879  -49.8951 O.2       13 UNK        -0.5000 
     79 N          -2.7860  -23.4009  -48.3740 N.am      14 UNK        -0.5000 
     80 CA         -3.8768  -23.0436  -49.2852 C.3       14 UNK         0.1400 
     81 CB         -5.1296  -22.7060  -48.4676 C.3       14 UNK        -0.1800 
     82 C          -4.1936  -24.1729  -50.2868 C.2       14 UNK         0.5000 
     83 O          -4.6110  -23.8880  -51.4100 O.2       14 UNK        -0.5000 
     84 N          -3.9509  -25.4290  -49.8779 N.am      15 UNK        -0.5000 
     85 CA         -3.9882  -26.6183  -50.7265 C.3       15 UNK         0.1400 
     86 CB         -3.7058  -27.8593  -49.8660 C.3       15 UNK        -0.1800 
     87 C          -2.9709  -26.4978  -51.8765 C.2       15 UNK         0.5000 
     88 O          -1.7776  -26.3272  -51.6184 O.2       15 UNK        -0.5000 
     89 N          -3.4815  -26.5234  -53.1154 N.am      16 UNK        -0.5000 
     90 CA         -2.7677  -26.2831  -54.3780 C.3       16 UNK         0.1400 
     91 CB         -1.6834  -27.3557  -54.6153 C.3       16 UNK        -0.1800 
     92 C          -2.2158  -24.8454  -54.5317 C.2       16 UNK         0.5000 
     93 O          -1.4075  -24.6051  -55.4297 O.2       16 UNK        -0.5000 
     94 N          -2.6715  -23.9167  -53.6743 N.am      17 UNK        -0.5000 
     95 CA         -2.3085  -22.4979  -53.6095 C.3       17 UNK         0.1400 
     96 CB         -2.9048  -21.7342  -54.8076 C.3       17 UNK        -0.1800 
     97 C          -0.7970  -22.2410  -53.4304 C.2       17 UNK         0.5000 
     98 O          -0.2775  -21.2502  -53.9463 O.2       17 UNK        -0.5000 
     99 N          -0.1147  -23.1150  -52.6773 N.am      18 UNK        -0.5000 
    100 CA         1.3130  -23.0104  -52.3598 C.3       18 UNK         0.1400 
    101 CB         1.7718  -24.2996  -51.6617 C.3       18 UNK        -0.1800 
    102 C          1.6634  -21.7634  -51.5205 C.2       18 UNK         0.5000 
    103 O          2.7613  -21.2247  -51.6612 O.2       18 UNK        -0.5000 
    104 N          0.7072  -21.3015  -50.7032 N.am      19 UNK        -0.5000 
    105 CA         0.7709  -20.0518  -49.9417 C.3       19 UNK         0.1400 
    106 CB        -0.2233  -20.1330  -48.7731 C.3       19 UNK        -0.1800 
    107 C          0.5058  -18.7870  -50.7901 C.2       19 UNK         0.5000 
    108 O          0.6047  -17.6811  -50.2561 O.2       19 UNK        -0.5000 
    109 N          0.1676  -18.9598  -52.0773 N.am      20 UNK        -0.5000 
    110 CA        -0.1741  -17.9265  -53.0585 C.3       20 UNK         0.1400 
    111 CB         1.0355  -17.0032  -53.3203 C.3       20 UNK        -0.1800 
    112 C         -1.4825  -17.1727  -52.7268 C.2       20 UNK         0.5000 
    113 O         -2.1992  -17.5458  -51.7957 O.2       20 UNK        -0.5000 
    114 N         -1.8263  -16.1773  -53.5584 N.am      21 UNK        -0.5000 
    115 CA        -3.0778  -15.3954  -53.6069 C.3       21 UNK         0.1400 
    116 CB        -3.3607  -14.6627  -52.2823 C.3       21 UNK        -0.1800 
    117 C         -4.3152  -16.2025  -54.0554 C.2       21 UNK         0.5000 
    118 O         -5.1307  -15.6866  -54.8198 O.2       21 UNK        -0.5000 
    119 N         -4.4151  -17.4549  -53.6007 N.am      22 UNK        -0.5000 
    120 CA        -5.4404  -18.4429  -53.9699 C.3       22 UNK         0.1400 
    121 C         -5.3071  -19.0127  -55.4159 C.2       22 UNK         0.5000 
    122 N         -4.2562  -18.7079  -56.1681 N.am      22 UNK        -0.7600 
    123 O         -6.1849  -19.7409  -55.8702 O.2       22 UNK        -0.5000 
    124 C124       -5.5010  -19.5812  -52.9152 C.3       23 UNK        -0.0398 
    125 S125       -6.4404  -19.1080  -51.4257 S.3       23 UNK        -0.2404 
    126 C126       -5.1772  -18.3135  -50.3855 C.3       23 UNK        -0.0205 
    127 H127       -2.1070  -14.0103  -43.1173 H         1 UNK         0.0600 
    128 H128       -1.7597  -12.2825  -43.0003 H         1 UNK         0.0600 
    129 H129       -0.7450  -13.3214  -44.0059 H         1 UNK         0.0600 
    130 H130       -3.9258  -14.3581  -44.3704 H         1 UNK         0.3000 
    131 H131       -4.8513  -12.4851  -46.3662 H         1 UNK         0.0600 
    132 H132       -6.4270  -13.7532  -44.9484 H         1 UNK         0.0800 
    133 H133       -5.8644  -15.2559  -45.6109 H         1 UNK         0.0800 
    134 H134       -8.8544  -15.6504  -47.9568 H         1 UNK         0.0800 
    135 H135       -8.5975  -15.8003  -46.2390 H         1 UNK         0.0800 
    136 H136       -6.8655  -16.3363  -49.5444 H         1 UNK         0.1150 
    137 H137       -4.6824  -19.7396  -48.1235 H         1 UNK         0.1150 
    138 H138       -7.1608  -17.5155  -45.4314 H         1 UNK         0.1150 
    139 H139       -6.2816  -19.6864  -44.7657 H         1 UNK         0.0800 
    140 H140       -5.3859  -20.6765  -45.8889 H         1 UNK         0.0800 
    141 H141       -4.5958  -20.9897  -43.3339 H         1 UNK         0.0800 
    142 H142       -3.4417  -19.9454  -42.5782 H         1 UNK         0.0800 
    143 H143       -1.9763  -20.9413  -44.7717 H         1 UNK         0.0600 
    144 H144       -0.5371  -21.1879  -43.2291 H         1 UNK         0.3000 
    145 H145       -0.5528  -22.0923  -39.7678 H         1 UNK         0.0600 
    146 H146        1.5903  -23.0067  -40.6165 H         1 UNK         0.0600 
    147 H147        0.2455  -23.9897  -41.1734 H         1 UNK         0.0600 
    148 H148        1.0305  -22.8677  -42.2803 H         1 UNK         0.0600 
    149 H149        0.8182  -20.4093  -41.8272 H         1 UNK         0.3000 
    150 H150        0.1881  -17.4421  -40.0179 H         1 UNK         0.0600 
    151 H151        2.3226  -18.1847  -38.9577 H         1 UNK         0.0600 
    152 H152        2.6365  -17.0804  -40.2888 H         1 UNK         0.0600 
    153 H153        2.8902  -18.8122  -40.5008 H         1 UNK         0.0600 
    154 H154        1.6028  -17.8800  -42.4303 H         1 UNK         0.3000 
    155 H155       -1.0255  -18.4557  -44.6643 H         1 UNK         0.0600 
    156 H156        0.1569  -15.7099  -44.0345 H         1 UNK         0.0600 
    157 H157       -1.4724  -16.0925  -44.5674 H         1 UNK         0.0600 
    158 H158       -0.1237  -16.2385  -45.6857 H         1 UNK         0.0600 
    159 H159        1.5855  -17.7011  -45.2657 H         1 UNK         0.3000 
    160 H160        3.3213  -20.7517  -44.6345 H         1 UNK         0.0600 
    161 H161        2.3580  -19.3781  -47.1969 H         1 UNK         0.0600 
    162 H162        2.2609  -21.0903  -46.8230 H         1 UNK         0.0600 
    163 H163        3.8286  -20.3404  -47.0654 H         1 UNK         0.0600 
    164 H164        3.7901  -18.0180  -45.6372 H         1 UNK         0.3000 
    165 H165        5.2896  -16.8887  -42.6361 H         1 UNK         0.0600 
    166 H166        7.2830  -16.4717  -44.0553 H         1 UNK         0.0600 
    167 H167        7.1904  -18.1723  -43.6267 H         1 UNK         0.0600 
    168 H168        6.7203  -17.6514  -45.2403 H         1 UNK         0.0600 
    169 H169        5.1051  -15.7832  -45.2798 H         1 UNK         0.3000 
    170 H170        1.8389  -14.4569  -45.0275 H         1 UNK         0.0600 
    171 H171        3.1584  -12.8192  -43.6751 H         1 UNK         0.0600 
    172 H172        4.4967  -12.9539  -44.8102 H         1 UNK         0.0600 
    173 H173        2.9525  -12.2791  -45.3331 H         1 UNK         0.0600 
    174 H174        3.6555  -13.9182  -47.0208 H         1 UNK         0.3000 
    175 H175        4.1024  -15.1138  -48.8833 H         1 UNK         0.0600 
    176 H176        2.9308  -17.9370  -49.0232 H         1 UNK         0.0600 
    177 H177        3.8906  -17.1685  -50.2819 H         1 UNK         0.0600 
    178 H178        4.6071  -17.5189  -48.7141 H         1 UNK         0.0600 
    179 H179        1.4072  -16.0673  -49.6668 H         1 UNK         0.3000 
    180 H180        0.0935  -12.7671  -49.7193 H         1 UNK         0.0600 
    181 H181        0.4577  -14.4551  -52.2265 H         1 UNK         0.0600 
    182 H182        1.2861  -12.9249  -51.9800 H         1 UNK         0.0600 
    183 H183       -0.4632  -12.9709  -52.0283 H         1 UNK         0.0600 
    184 H184       -1.0899  -15.2115  -50.5687 H         1 UNK         0.3000 
    185 H185       -2.9725  -15.7297  -49.3316 H         1 UNK         0.0600 
    186 H186       -1.7131  -17.6956  -48.9915 H         1 UNK         0.0600 
    187 H187       -1.2231  -17.2626  -47.3590 H         1 UNK         0.0600 
    188 H188       -2.8827  -17.7423  -47.6903 H         1 UNK         0.0600 
    189 H189       -3.1174  -15.6005  -46.4219 H         1 UNK         0.3000 
    190 H190       -1.6798  -23.7769  -43.3371 H         1 UNK         0.3000 
    191 H191       -3.6769  -25.4150  -44.5794 H         1 UNK         0.0600 
    192 H192       -2.2826  -26.1862  -42.6693 H         1 UNK         0.0600 
    193 H193       -0.8250  -26.0789  -43.6568 H         1 UNK         0.0600 
    194 H194       -2.0730  -27.2570  -44.0457 H         1 UNK         0.0600 
    195 H195       -0.7541  -23.9279  -45.7222 H         1 UNK         0.3000 
    196 H196       -0.4123  -25.3717  -48.1929 H         1 UNK         0.0600 
    197 H197        1.1814  -23.3834  -48.6203 H         1 UNK         0.0600 
    198 H198        1.5129  -24.3427  -47.1913 H         1 UNK         0.0600 
    199 H199        0.7140  -22.7885  -47.0300 H         1 UNK         0.0600 
    200 H200       -3.0485  -23.5981  -47.4177 H         1 UNK         0.3000 
    201 H201       -3.5765  -22.1582  -49.8495 H         1 UNK         0.0600 
    202 H202       -4.9184  -21.9342  -47.7323 H         1 UNK         0.0600 
    203 H203       -5.5081  -23.5764  -47.9301 H         1 UNK         0.0600 
    204 H204       -5.9300  -22.3372  -49.1105 H         1 UNK         0.0600 
    205 H205       -3.5859  -25.5637  -48.9441 H         1 UNK         0.3000 
    206 H206       -4.9952  -26.7068  -51.1392 H         1 UNK         0.0600 
    207 H207       -4.4487  -27.9688  -49.0757 H         1 UNK         0.0600 
    208 H208       -3.7344  -28.7676  -50.4692 H         1 UNK         0.0600 
    209 H209       -2.7232  -27.8072  -49.3947 H         1 UNK         0.0600 
    210 H210       -4.4810  -26.6424  -53.2109 H         1 UNK         0.3000 
    211 H211       -3.5137  -26.3966  -55.1657 H         1 UNK         0.0600 
    212 H212       -0.8467  -27.2486  -53.9244 H         1 UNK         0.0600 
    213 H213       -1.2792  -27.2864  -55.6258 H         1 UNK         0.0600 
    214 H214       -2.0893  -28.3605  -54.4991 H         1 UNK         0.0600 
    215 H215       -3.3446  -24.2096  -52.9738 H         1 UNK         0.3000 
    216 H216       -2.7812  -22.1081  -52.7069 H         1 UNK         0.0600 
    217 H217       -2.7419  -20.6611  -54.7056 H         1 UNK         0.0600 
    218 H218       -3.9808  -21.8926  -54.8810 H         1 UNK         0.0600 
    219 H219       -2.4543  -22.0450  -55.7505 H         1 UNK         0.0600 
    220 H220       -0.6203  -23.8709  -52.2329 H         1 UNK         0.3000 
    221 H221        1.8559  -22.9267  -53.3035 H         1 UNK         0.0600 
    222 H222        1.2110  -24.4862  -50.7462 H         1 UNK         0.0600 
    223 H223        1.6402  -25.1647  -52.3118 H         1 UNK         0.0600 
    224 H224        2.8287  -24.2485  -51.3972 H         1 UNK         0.0600 
    225 H225       -0.1325  -21.8638  -50.5979 H         1 UNK         0.3000 
    226 H226        1.7756  -19.9598  -49.5269 H         1 UNK         0.0600 
    227 H227       -0.0606  -21.0222  -48.1712 H         1 UNK         0.0600 
    228 H228       -0.1052  -19.2797  -48.1055 H         1 UNK         0.0600 
    229 H229       -1.2569  -20.1505  -49.1214 H         1 UNK         0.0600 
    230 H230        0.1013  -19.9077  -52.4285 H         1 UNK         0.3000 
    231 H231       -0.3785  -18.4617  -53.9867 H         1 UNK         0.0600 
    232 H232        1.8853  -17.5817  -53.6827 H         1 UNK         0.0600 
    233 H233        1.3623  -16.4847  -52.4204 H         1 UNK         0.0600 
    234 H234        0.8213  -16.2504  -54.0788 H         1 UNK         0.0600 
    235 H235       -1.1872  -15.9711  -54.3135 H         1 UNK         0.3000 
    236 H236       -2.9133  -14.6319  -54.3689 H         1 UNK         0.0600 
    237 H237       -4.2067  -13.9831  -52.3914 H         1 UNK         0.0600 
    238 H238       -3.6119  -15.3539  -51.4801 H         1 UNK         0.0600 
    239 H239       -2.5095  -14.0650  -51.9644 H         1 UNK         0.0600 
    240 H240       -3.7037  -17.7600  -52.9439 H         1 UNK         0.3000 
    241 H241       -6.4023  -17.9266  -53.9661 H         1 UNK         0.0600 
    242 H242       -4.1945  -19.0794  -57.1028 H         1 UNK         0.3800 
    243 H243       -3.5374  -18.0939  -55.8243 H         1 UNK         0.3800 
    244 H244       -6.0059  -20.4626  -53.3150 H         1 UNK         0.0800 
    245 H245       -4.5009  -19.9180  -52.6380 H         1 UNK         0.0800 
    246 H246       -4.2817  -18.9360  -50.3459 H         1 UNK         0.0800 
    247 H247       -4.8779  -17.3642  -50.8298 H         1 UNK         0.0800 
@<TRIPOS>BOND
     1    1    2 1    
     2    1  127 1    
     3    1  128 1    
     4    1  129 1    
     5    2    3 2    
     6    2    4 am   BACKBONE|DICT|INTERRES
     7    4    5 1    
     8    4  130 1    
     9    5    6 1    
    10    5   65 1    
    11    5  131 1    
    12    6    7 1    
    13    6  132 1    
    14    6  133 1    
    15    7    8 1    
    16    8    9 1    
    17    8  134 1    
    18    8  135 1    
    19    9   10 ar   
    20    9   14 ar   
    21   10   11 ar   
    22   10  136 1    
    23   11   12 ar   
    24   11  126 1    
    25   12   13 ar   
    26   12  137 1    
    27   13   14 ar   
    28   13   15 1    
    29   14  138 1    
    30   15   16 1    
    31   15  139 1    
    32   15  140 1    
    33   16   17 1    
    34   17   18 1    
    35   17  141 1    
    36   17  142 1    
    37   18   19 1    
    38   18   67 1    
    39   18  143 1    
    40   19   20 am   BACKBONE|DICT|INTERRES
    41   19  144 1    
    42   20   21 2    
    43   20   22 1    
    44   22   23 1    
    45   22   24 1    
    46   22  145 1    
    47   23  146 1    
    48   23  147 1    
    49   23  148 1    
    50   24   25 am   BACKBONE|DICT|INTERRES
    51   24  149 1    
    52   25   26 2    
    53   25   27 1    
    54   27   28 1    
    55   27   29 1    
    56   27  150 1    
    57   28  151 1    
    58   28  152 1    
    59   28  153 1    
    60   29   30 am   BACKBONE|DICT|INTERRES
    61   29  154 1    
    62   30   31 2    
    63   30   32 1    
    64   32   33 1    
    65   32   34 1    
    66   32  155 1    
    67   33  156 1    
    68   33  157 1    
    69   33  158 1    
    70   34   35 am   BACKBONE|DICT|INTERRES
    71   34  159 1    
    72   35   36 2    
    73   35   37 1    
    74   37   38 1    
    75   37   39 1    
    76   37  160 1    
    77   38  161 1    
    78   38  162 1    
    79   38  163 1    
    80   39   40 am   BACKBONE|DICT|INTERRES
    81   39  164 1    
    82   40   41 2    
    83   40   42 1    
    84   42   43 1    
    85   42   44 1    
    86   42  165 1    
    87   43  166 1    
    88   43  167 1    
    89   43  168 1    
    90   44   45 am   BACKBONE|DICT|INTERRES
    91   44  169 1    
    92   45   46 2    
    93   45   47 1    
    94   47   48 1    
    95   47   49 1    
    96   47  170 1    
    97   48  171 1    
    98   48  172 1    
    99   48  173 1    
   100   49   50 am   BACKBONE|DICT|INTERRES
   101   49  174 1    
   102   50   51 2    
   103   50   52 1    
   104   52   53 1    
   105   52   54 1    
   106   52  175 1    
   107   53  176 1    
   108   53  177 1    
   109   53  178 1    
   110   54   55 am   BACKBONE|DICT|INTERRES
   111   54  179 1    
   112   55   56 2    
   113   55   57 1    
   114   57   58 1    
   115   57   59 1    
   116   57  180 1    
   117   58  181 1    
   118   58  182 1    
   119   58  183 1    
   120   59   60 am   BACKBONE|DICT|INTERRES
   121   59  184 1    
   122   60   61 2    
   123   60   62 1    
   124   62   63 1    
   125   62   64 1    
   126   62  185 1    
   127   63  186 1    
   128   63  187 1    
   129   63  188 1    
   130   64   65 am   BACKBONE|DICT|INTERRES
   131   64  189 1    
   132   65   66 2    
   133   67   68 2    
   134   67   69 am   BACKBONE|DICT|INTERRES
   135   69   70 1    
   136   69  190 1    
   137   70   71 1    
   138   70   72 1    
   139   70  191 1    
   140   71  192 1    
   141   71  193 1    
   142   71  194 1    
   143   72   73 2    
   144   72   74 am   BACKBONE|DICT|INTERRES
   145   74   75 1    
   146   74  195 1    
   147   75   76 1    
   148   75   77 1    
   149   75  196 1    
   150   76  197 1    
   151   76  198 1    
   152   76  199 1    
   153   77   78 2    
   154   77   79 am   BACKBONE|DICT|INTERRES
   155   79   80 1    
   156   79  200 1    
   157   80   81 1    
   158   80   82 1    
   159   80  201 1    
   160   81  202 1    
   161   81  203 1    
   162   81  204 1    
   163   82   83 2    
   164   82   84 am   BACKBONE|DICT|INTERRES
   165   84   85 1    
   166   84  205 1    
   167   85   86 1    
   168   85   87 1    
   169   85  206 1    
   170   86  207 1    
   171   86  208 1    
   172   86  209 1    
   173   87   88 2    
   174   87   89 am   BACKBONE|DICT|INTERRES
   175   89   90 1    
   176   89  210 1    
   177   90   91 1    
   178   90   92 1    
   179   90  211 1    
   180   91  212 1    
   181   91  213 1    
   182   91  214 1    
   183   92   93 2    
   184   92   94 am   BACKBONE|DICT|INTERRES
   185   94   95 1    
   186   94  215 1    
   187   95   96 1    
   188   95   97 1    
   189   95  216 1    
   190   96  217 1    
   191   96  218 1    
   192   96  219 1    
   193   97   98 2    
   194   97   99 am   BACKBONE|DICT|INTERRES
   195   99  100 1    
   196   99  220 1    
   197  100  101 1    
   198  100  102 1    
   199  100  221 1    
   200  101  222 1    
   201  101  223 1    
   202  101  224 1    
   203  102  103 2    
   204  102  104 am   BACKBONE|DICT|INTERRES
   205  104  105 1    
   206  104  225 1    
   207  105  106 1    
   208  105  107 1    
   209  105  226 1    
   210  106  227 1    
   211  106  228 1    
   212  106  229 1    
   213  107  108 2    
   214  107  109 am   BACKBONE|DICT|INTERRES
   215  109  110 1    
   216  109  230 1    
   217  110  111 1    
   218  110  112 1    
   219  110  231 1    
   220  111  232 1    
   221  111  233 1    
   222  111  234 1    
   223  112  113 2    
   224  112  114 am   BACKBONE|DICT|INTERRES
   225  114  115 1    
   226  114  235 1    
   227  115  116 1    
   228  115  117 1    
   229  115  236 1    
   230  116  237 1    
   231  116  238 1    
   232  116  239 1    
   233  117  118 2    
   234  117  119 am   BACKBONE|DICT|INTERRES
   235  119  120 1    
   236  119  240 1    
   237  120  121 1    
   238  120  124 1    
   239  120  241 1    
   240  121  122 am   BACKBONE|DICT|INTERRES
   241  121  123 2    
   242  122  242 1    
   243  122  243 1    
   244  124  125 1    
   245  124  244 1    
   246  124  245 1    
   247  125  126 1    
   248  126  246 1    
   249  126  247 1    
@<TRIPOS>SUBSTRUCTURE
     1 UNK         1 GROUP             0       ****    0 ROOT    
