@<TRIPOS>MOLECULE
3R540
247   249    1
SMALL
USER_CHARGES


@<TRIPOS>ATOM
      1 CA          2.3328  -14.3728  -47.1284 C.3       0 UNK        -0.1800 
      2 C           0.9116  -14.4314  -47.6689 C.2       0 UNK         0.5000 
      3 O           0.3639  -13.4005  -48.0572 O.2       0 UNK        -0.5000 
      4 N           0.3197  -15.6341  -47.7021 N.am      1 UNK        -0.5000 
      5 CA         -1.0247  -15.9302  -48.2265 C.3       1 UNK         0.1400 
      6 C6         -1.2302  -15.4436  -49.6920 C.3       23 UNK        -0.0398 
      7 S7         -2.1410  -16.6342  -50.7345 S.3       23 UNK        -0.2404 
      8 C8         -0.9627  -16.9253  -52.0951 C.3       23 UNK        -0.0205 
      9 C9          0.0213  -18.0401  -51.7749 C.ar      23 UNK        -0.0193 
     10 C10        -0.2634  -19.3489  -52.1689 C.ar      23 UNK        -0.1150 
     11 C11         0.6178  -20.3909  -51.8733 C.ar      23 UNK        -0.0193 
     12 C12         1.8108  -20.1139  -51.2002 C.ar      23 UNK        -0.1150 
     13 C13         2.1113  -18.8068  -50.8029 C.ar      23 UNK        -0.0193 
     14 C14         1.2142  -17.7735  -51.0973 C.ar      23 UNK        -0.1150 
     15 C15         3.3939  -18.5056  -50.0365 C.3       23 UNK        -0.0205 
     16 S16         3.5007  -19.3744  -48.4332 S.3       23 UNK        -0.2404 
     17 C17         1.8888  -19.0000  -47.6669 C.3       23 UNK        -0.0398 
     18 CA          1.1078  -20.2964  -47.3295 C.3       11 UNK         0.1400 
     19 N           1.4063  -20.7732  -45.9750 N.am      11 UNK        -0.5000 
     20 C           0.9902  -21.9379  -45.4585 C.2       10 UNK         0.5000 
     21 O           0.3866  -22.7946  -46.1023 O.2       10 UNK        -0.5000 
     22 CA          1.2165  -22.1457  -43.9490 C.3       10 UNK         0.1400 
     23 CB          2.6407  -22.6411  -43.6587 C.3       10 UNK        -0.1800 
     24 N           0.9367  -20.9302  -43.1801 N.am      10 UNK        -0.5000 
     25 C          -0.2763  -20.3639  -43.0958 C.2       9 UNK         0.5000 
     26 O          -1.2899  -20.8602  -43.5837 O.2       9 UNK        -0.5000 
     27 CA         -0.3746  -18.9998  -42.3931 C.3       9 UNK         0.1400 
     28 CB         -0.5132  -19.1927  -40.8746 C.3       9 UNK        -0.1800 
     29 N           0.7709  -18.1379  -42.6810 N.am      9 UNK        -0.5000 
     30 C           1.0845  -17.6276  -43.8809 C.2       8 UNK         0.5000 
     31 O           0.3920  -17.7686  -44.8895 O.2       8 UNK        -0.5000 
     32 CA          2.4408  -16.9028  -43.9899 C.3       8 UNK         0.1400 
     33 CB          2.3550  -15.4321  -43.5627 C.3       8 UNK        -0.1800 
     34 N           3.4757  -17.5676  -43.2038 N.am      8 UNK        -0.5000 
     35 C           4.0150  -18.7520  -43.5173 C.2       7 UNK         0.5000 
     36 O           3.7049  -19.3971  -44.5189 O.2       7 UNK        -0.5000 
     37 CA          5.0436  -19.3188  -42.5216 C.3       7 UNK         0.1400 
     38 CB          6.4498  -18.7886  -42.8379 C.3       7 UNK        -0.1800 
     39 N           4.7063  -19.0010  -41.1310 N.am      7 UNK        -0.5000 
     40 C           3.6705  -19.5381  -40.4716 C.2       6 UNK         0.5000 
     41 O           2.9145  -20.3774  -40.9613 O.2       6 UNK        -0.5000 
     42 CA          3.4080  -19.0112  -39.0467 C.3       6 UNK         0.1400 
     43 CB          4.3409  -19.6941  -38.0354 C.3       6 UNK        -0.1800 
     44 N           3.5332  -17.5531  -38.9221 N.am      6 UNK        -0.5000 
     45 C           2.7779  -16.6723  -39.5904 C.2       5 UNK         0.5000 
     46 O           1.9302  -17.0028  -40.4227 O.2       5 UNK        -0.5000 
     47 CA          3.0162  -15.1796  -39.3179 C.3       5 UNK         0.1400 
     48 CB          4.3614  -14.7189  -39.9094 C.3       5 UNK        -0.1800 
     49 N           1.9213  -14.4460  -39.9422 N.am      5 UNK        -0.5000 
     50 C           1.5336  -13.1896  -39.7053 C.2       4 UNK         0.5000 
     51 O           2.0748  -12.4509  -38.8818 O.2       4 UNK        -0.5000 
     52 CA          0.3438  -12.6652  -40.5372 C.3       4 UNK         0.1400 
     53 CB          0.8473  -11.7696  -41.6799 C.3       4 UNK        -0.1800 
     54 N          -0.4671  -13.7390  -41.1170 N.am      4 UNK        -0.5000 
     55 C          -1.3881  -14.4588  -40.4675 C.2       3 UNK         0.5000 
     56 O          -1.7135  -14.2418  -39.2991 O.2       3 UNK        -0.5000 
     57 CA         -2.0366  -15.6192  -41.2587 C.3       3 UNK         0.1400 
     58 CB         -3.1013  -16.3785  -40.4472 C.3       3 UNK        -0.1800 
     59 N          -2.6174  -15.2282  -42.5490 N.am      3 UNK        -0.5000 
     60 C          -1.9164  -14.9457  -43.6523 C.2       2 UNK         0.5000 
     61 O          -0.6874  -14.8648  -43.6683 O.2       2 UNK        -0.5000 
     62 CA         -2.6953  -14.7108  -44.9518 C.3       2 UNK         0.1400 
     63 CB         -3.1130  -13.2378  -45.0912 C.3       2 UNK        -0.1800 
     64 N          -1.8100  -15.0868  -46.0470 N.am      2 UNK        -0.5000 
     65 C          -2.1635  -15.4782  -47.2754 C.2       1 UNK         0.5000 
     66 O          -3.3346  -15.5201  -47.6536 O.2       1 UNK        -0.5000 
     67 C          -0.4101  -20.1249  -47.5580 C.2       11 UNK         0.5000 
     68 O          -0.9157  -20.5698  -48.5862 O.2       11 UNK        -0.5000 
     69 N          -1.1195  -19.5304  -46.5873 N.am      12 UNK        -0.5000 
     70 CA         -2.5770  -19.3705  -46.6052 C.3       12 UNK         0.1400 
     71 CB         -3.0231  -18.5312  -45.3971 C.3       12 UNK        -0.1800 
     72 C          -3.3256  -20.7173  -46.6325 C.2       12 UNK         0.5000 
     73 O          -4.2811  -20.8658  -47.3941 O.2       12 UNK        -0.5000 
     74 N          -2.8593  -21.6806  -45.8266 N.am      13 UNK        -0.5000 
     75 CA         -3.3788  -23.0469  -45.7673 C.3       13 UNK         0.1400 
     76 CB         -2.7864  -23.7662  -44.5462 C.3       13 UNK        -0.1800 
     77 C          -3.1105  -23.8450  -47.0565 C.2       13 UNK         0.5000 
     78 O          -3.9851  -24.5914  -47.4969 O.2       13 UNK        -0.5000 
     79 N          -1.9212  -23.6604  -47.6480 N.am      14 UNK        -0.5000 
     80 CA         -1.5321  -24.2432  -48.9339 C.3       14 UNK         0.1400 
     81 CB         -0.0226  -24.0553  -49.1478 C.3       14 UNK        -0.1800 
     82 C          -2.3206  -23.6577  -50.1196 C.2       14 UNK         0.5000 
     83 O          -2.5386  -24.3608  -51.1075 O.2       14 UNK        -0.5000 
     84 N          -2.7248  -22.3862  -50.0089 N.am      15 UNK        -0.5000 
     85 CA         -3.5975  -21.7096  -50.9599 C.3       15 UNK         0.1400 
     86 CB         -3.5156  -20.1872  -50.7520 C.3       15 UNK        -0.1800 
     87 C          -5.0423  -22.2106  -50.8245 C.2       15 UNK         0.5000 
     88 O          -5.5816  -22.7855  -51.7691 O.2       15 UNK        -0.5000 
     89 N          -5.6456  -21.9775  -49.6494 N.am      16 UNK        -0.5000 
     90 CA         -7.0674  -22.1592  -49.3524 C.3       16 UNK         0.1400 
     91 CB         -7.4271  -23.6606  -49.2876 C.3       16 UNK        -0.1800 
     92 C          -7.9270  -21.3314  -50.3336 C.2       16 UNK         0.5000 
     93 O          -7.8501  -20.1019  -50.3042 O.2       16 UNK        -0.5000 
     94 N          -8.6936  -22.0018  -51.2024 N.am      17 UNK        -0.5000 
     95 CA         -9.4621  -21.3764  -52.2801 C.3       17 UNK         0.1400 
     96 CB        -10.6108  -22.3173  -52.6759 C.3       17 UNK        -0.1800 
     97 C          -8.6058  -21.0280  -53.5163 C.2       17 UNK         0.5000 
     98 O          -9.0132  -20.1764  -54.3078 O.2       17 UNK        -0.5000 
     99 N          -7.4504  -21.6861  -53.6795 N.am      18 UNK        -0.5000 
    100 CA        -6.5384  -21.5188  -54.8072 C.3       18 UNK         0.1400 
    101 CB        -5.9146  -22.8814  -55.1554 C.3       18 UNK        -0.1800 
    102 C         -5.4842  -20.4509  -54.4731 C.2       18 UNK         0.5000 
    103 O         -4.3355  -20.7755  -54.1686 O.2       18 UNK        -0.5000 
    104 N         -5.9028  -19.1797  -54.5398 N.am      19 UNK        -0.5000 
    105 CA        -5.0588  -17.9965  -54.3288 C.3       19 UNK         0.1400 
    106 CB        -5.9574  -16.7522  -54.2673 C.3       19 UNK        -0.1800 
    107 C         -3.9513  -17.8169  -55.3911 C.2       19 UNK         0.5000 
    108 O         -2.9920  -17.0844  -55.1504 O.2       19 UNK        -0.5000 
    109 N         -4.0943  -18.4982  -56.5317 N.am      20 UNK        -0.5000 
    110 CA        -3.0622  -18.7138  -57.5359 C.3       20 UNK         0.1400 
    111 CB        -3.4570  -17.9901  -58.8324 C.3       20 UNK        -0.1800 
    112 C         -2.9571  -20.2293  -57.7635 C.2       20 UNK         0.5000 
    113 O         -3.9494  -20.9402  -57.5866 O.2       20 UNK        -0.5000 
    114 N         -1.7593  -20.6929  -58.1406 N.am      21 UNK        -0.5000 
    115 CA        -1.3676  -22.0804  -58.4404 C.3       21 UNK         0.1400 
    116 CB        -2.2360  -22.6816  -59.5643 C.3       21 UNK        -0.1800 
    117 C         -1.2815  -23.0340  -57.2268 C.2       21 UNK         0.5000 
    118 O         -0.6054  -24.0580  -57.3388 O.2       21 UNK        -0.5000 
    119 N         -1.9106  -22.6787  -56.0981 N.am      22 UNK        -0.5000 
    120 CA        -1.9393  -23.4156  -54.8198 C.3       22 UNK         0.1400 
    121 C         -2.7765  -24.7297  -54.8640 C.2       22 UNK         0.5000 
    122 N         -3.0734  -25.3226  -53.7153 N.am      22 UNK        -0.7600 
    123 O         -3.1777  -25.2238  -55.9155 O.2       22 UNK        -0.5000 
    124 C124       -0.5250  -23.6561  -54.2113 C.3       23 UNK        -0.0398 
    125 S125        0.4465  -22.1192  -54.0262 S.3       23 UNK        -0.2404 
    126 C126        0.2471  -21.8145  -52.2480 C.3       23 UNK        -0.0205 
    127 H127        2.6931  -15.3541  -46.8216 H         1 UNK         0.0600 
    128 H128        2.3831  -13.7017  -46.2713 H         1 UNK         0.0600 
    129 H129        3.0068  -13.9925  -47.8959 H         1 UNK         0.0600 
    130 H130        0.8079  -16.4260  -47.3119 H         1 UNK         0.3000 
    131 H131       -1.0719  -17.0200  -48.2269 H         1 UNK         0.0600 
    132 H132       -0.2658  -15.2551  -50.1622 H         1 UNK         0.0800 
    133 H133       -1.7460  -14.4822  -49.7239 H         1 UNK         0.0800 
    134 H134       -0.4333  -16.0063  -52.3497 H         1 UNK         0.0800 
    135 H135       -1.5320  -17.1927  -52.9850 H         1 UNK         0.0800 
    136 H136       -1.1834  -19.5632  -52.6953 H         1 UNK         0.1150 
    137 H137        2.4954  -20.9161  -50.9632 H         1 UNK         0.1150 
    138 H138        1.4408  -16.7621  -50.7922 H         1 UNK         0.1150 
    139 H139        4.2492  -18.7913  -50.6501 H         1 UNK         0.0800 
    140 H140        3.4923  -17.4339  -49.8563 H         1 UNK         0.0800 
    141 H141        1.3206  -18.3469  -48.3287 H         1 UNK         0.0800 
    142 H142        2.0736  -18.4093  -46.7717 H         1 UNK         0.0800 
    143 H143        1.4198  -21.0829  -48.0203 H         1 UNK         0.0600 
    144 H144        1.9526  -20.1547  -45.3862 H         1 UNK         0.3000 
    145 H145        0.5202  -22.9169  -43.6132 H         1 UNK         0.0600 
    146 H146        2.7888  -22.8125  -42.5923 H         1 UNK         0.0600 
    147 H147        3.3962  -21.9307  -43.9911 H         1 UNK         0.0600 
    148 H148        2.8338  -23.5847  -44.1703 H         1 UNK         0.0600 
    149 H149        1.7137  -20.5033  -42.6889 H         1 UNK         0.3000 
    150 H150       -1.2708  -18.4955  -42.7595 H         1 UNK         0.0600 
    151 H151       -1.4099  -19.7661  -40.6366 H         1 UNK         0.0600 
    152 H152       -0.5879  -18.2414  -40.3499 H         1 UNK         0.0600 
    153 H153        0.3386  -19.7298  -40.4575 H         1 UNK         0.0600 
    154 H154        1.3676  -17.9090  -41.8894 H         1 UNK         0.3000 
    155 H155        2.7523  -16.9281  -45.0349 H         1 UNK         0.0600 
    156 H156        3.3396  -14.9652  -43.5348 H         1 UNK         0.0600 
    157 H157        1.7547  -14.8610  -44.2685 H         1 UNK         0.0600 
    158 H158        1.9009  -15.3211  -42.5798 H         1 UNK         0.0600 
    159 H159        3.7506  -17.1244  -42.3409 H         1 UNK         0.3000 
    160 H160        5.0543  -20.4049  -42.6353 H         1 UNK         0.0600 
    161 H161        7.1966  -19.2374  -42.1827 H         1 UNK         0.0600 
    162 H162        6.5091  -17.7055  -42.7233 H         1 UNK         0.0600 
    163 H163        6.7340  -19.0264  -43.8639 H         1 UNK         0.0600 
    164 H164        5.2820  -18.3187  -40.6599 H         1 UNK         0.3000 
    165 H165        2.3802  -19.2754  -38.7884 H         1 UNK         0.0600 
    166 H166        4.0914  -19.4082  -37.0134 H         1 UNK         0.0600 
    167 H167        4.2559  -20.7800  -38.0971 H         1 UNK         0.0600 
    168 H168        5.3859  -19.4360  -38.2110 H         1 UNK         0.0600 
    169 H169        4.2161  -17.2136  -38.2599 H         1 UNK         0.3000 
    170 H170        2.9986  -15.0120  -38.2393 H         1 UNK         0.0600 
    171 H171        4.4006  -14.8764  -40.9880 H         1 UNK         0.0600 
    172 H172        4.5341  -13.6590  -39.7224 H         1 UNK         0.0600 
    173 H173        5.1963  -15.2621  -39.4657 H         1 UNK         0.0600 
    174 H174        1.3824  -15.0106  -40.5864 H         1 UNK         0.3000 
    175 H175       -0.2843  -12.0627  -39.8777 H         1 UNK         0.0600 
    176 H176        1.4753  -12.3249  -42.3781 H         1 UNK         0.0600 
    177 H177        0.0161  -11.3444  -42.2427 H         1 UNK         0.0600 
    178 H178        1.4384  -10.9376  -41.2949 H         1 UNK         0.0600 
    179 H179       -0.2918  -13.9808  -42.0897 H         1 UNK         0.3000 
    180 H180       -1.2267  -16.3196  -41.4644 H         1 UNK         0.0600 
    181 H181       -3.4667  -17.2481  -40.9938 H         1 UNK         0.0600 
    182 H182       -3.9563  -15.7434  -40.2127 H         1 UNK         0.0600 
    183 H183       -2.6916  -16.7426  -39.5041 H         1 UNK         0.0600 
    184 H184       -3.6261  -15.2249  -42.5969 H         1 UNK         0.3000 
    185 H185       -3.5785  -15.3528  -44.9579 H         1 UNK         0.0600 
    186 H186       -2.2469  -12.5745  -45.0913 H         1 UNK         0.0600 
    187 H187       -3.6631  -13.0690  -46.0170 H         1 UNK         0.0600 
    188 H188       -3.7611  -12.9346  -44.2681 H         1 UNK         0.0600 
    189 H189       -0.8336  -15.1221  -45.7799 H         1 UNK         0.3000 
    190 H190       -0.6255  -19.1424  -45.7892 H         1 UNK         0.3000 
    191 H191       -2.8317  -18.8227  -47.5151 H         1 UNK         0.0600 
    192 H192       -2.3777  -17.6682  -45.2493 H         1 UNK         0.0600 
    193 H193       -3.0142  -19.1059  -44.4716 H         1 UNK         0.0600 
    194 H194       -4.0395  -18.1629  -45.5390 H         1 UNK         0.0600 
    195 H195       -2.1109  -21.4489  -45.1782 H         1 UNK         0.3000 
    196 H196       -4.4609  -22.9873  -45.6337 H         1 UNK         0.0600 
    197 H197       -3.0305  -23.2405  -43.6228 H         1 UNK         0.0600 
    198 H198       -1.7006  -23.8410  -44.6102 H         1 UNK         0.0600 
    199 H199       -3.1816  -24.7790  -44.4594 H         1 UNK         0.0600 
    200 H200       -1.2255  -23.0861  -47.1808 H         1 UNK         0.3000 
    201 H201       -1.7399  -25.3144  -48.8964 H         1 UNK         0.0600 
    202 H202        0.5504  -24.5247  -48.3481 H         1 UNK         0.0600 
    203 H203        0.2506  -23.0004  -49.1803 H         1 UNK         0.0600 
    204 H204        0.2982  -24.5082  -50.0867 H         1 UNK         0.0600 
    205 H205       -2.4165  -21.8472  -49.2074 H         1 UNK         0.3000 
    206 H206       -3.2496  -21.9324  -51.9698 H         1 UNK         0.0600 
    207 H207       -3.9484  -19.8677  -49.8051 H         1 UNK         0.0600 
    208 H208       -2.4848  -19.8419  -50.7585 H         1 UNK         0.0600 
    209 H209       -4.0447  -19.6597  -51.5453 H         1 UNK         0.0600 
    210 H210       -5.1089  -21.5180  -48.9161 H         1 UNK         0.3000 
    211 H211       -7.2333  -21.7351  -48.3611 H         1 UNK         0.0600 
    212 H212       -7.2610  -24.1734  -50.2352 H         1 UNK         0.0600 
    213 H213       -8.4721  -23.8022  -49.0093 H         1 UNK         0.0600 
    214 H214       -6.8236  -24.1676  -48.5342 H         1 UNK         0.0600 
    215 H215       -8.6850  -23.0112  -51.1756 H         1 UNK         0.3000 
    216 H216       -9.9000  -20.4465  -51.9109 H         1 UNK         0.0600 
    217 H217      -11.2277  -21.8736  -53.4585 H         1 UNK         0.0600 
    218 H218      -11.2634  -22.5221  -51.8270 H         1 UNK         0.0600 
    219 H219      -10.2388  -23.2710  -53.0525 H         1 UNK         0.0600 
    220 H220       -7.1091  -22.2855  -52.9341 H         1 UNK         0.3000 
    221 H221       -7.0884  -21.1822  -55.6886 H         1 UNK         0.0600 
    222 H222       -5.3609  -23.3022  -54.3168 H         1 UNK         0.0600 
    223 H223       -6.6794  -23.6024  -55.4436 H         1 UNK         0.0600 
    224 H224       -5.2210  -22.7921  -55.9921 H         1 UNK         0.0600 
    225 H225       -6.8742  -19.0076  -54.7629 H         1 UNK         0.3000 
    226 H226       -4.5618  -18.1065  -53.3631 H         1 UNK         0.0600 
    227 H227       -6.6919  -16.8353  -53.4660 H         1 UNK         0.0600 
    228 H228       -5.3689  -15.8542  -54.0745 H         1 UNK         0.0600 
    229 H229       -6.4953  -16.5984  -55.2035 H         1 UNK         0.0600 
    230 H230       -4.8841  -19.1241  -56.6129 H         1 UNK         0.3000 
    231 H231       -2.0969  -18.3404  -57.1874 H         1 UNK         0.0600 
    232 H232       -2.7025  -18.1348  -59.6065 H         1 UNK         0.0600 
    233 H233       -3.5541  -16.9167  -58.6684 H         1 UNK         0.0600 
    234 H234       -4.4066  -18.3560  -59.2252 H         1 UNK         0.0600 
    235 H235       -1.0075  -20.0229  -58.2280 H         1 UNK         0.3000 
    236 H236       -0.3505  -22.0078  -58.8288 H         1 UNK         0.0600 
    237 H237       -3.2622  -22.8546  -59.2397 H         1 UNK         0.0600 
    238 H238       -2.2628  -22.0288  -60.4367 H         1 UNK         0.0600 
    239 H239       -1.8364  -23.6427  -59.8901 H         1 UNK         0.0600 
    240 H240       -2.5001  -21.8584  -56.1342 H         1 UNK         0.3000 
    241 H241       -2.4790  -22.7578  -54.1385 H         1 UNK         0.0600 
    242 H242       -2.8166  -24.9281  -52.8109 H         1 UNK         0.3800 
    243 H243       -3.6187  -26.1690  -53.7370 H         1 UNK         0.3800 
    244 H244        0.0479  -24.3466  -54.8310 H         1 UNK         0.0800 
    245 H245       -0.6039  -24.1397  -53.2365 H         1 UNK         0.0800 
    246 H246       -0.7914  -21.9861  -51.9710 H         1 UNK         0.0800 
    247 H247        0.8450  -22.5333  -51.6866 H         1 UNK         0.0800 
@<TRIPOS>BOND
     1    1    2 1    
     2    1  127 1    
     3    1  128 1    
     4    1  129 1    
     5    2    3 2    
     6    2    4 am   BACKBONE|DICT|INTERRES
     7    4    5 1    
     8    4  130 1    
     9    5    6 1    
    10    5   65 1    
    11    5  131 1    
    12    6    7 1    
    13    6  132 1    
    14    6  133 1    
    15    7    8 1    
    16    8    9 1    
    17    8  134 1    
    18    8  135 1    
    19    9   10 ar   
    20    9   14 ar   
    21   10   11 ar   
    22   10  136 1    
    23   11   12 ar   
    24   11  126 1    
    25   12   13 ar   
    26   12  137 1    
    27   13   14 ar   
    28   13   15 1    
    29   14  138 1    
    30   15   16 1    
    31   15  139 1    
    32   15  140 1    
    33   16   17 1    
    34   17   18 1    
    35   17  141 1    
    36   17  142 1    
    37   18   19 1    
    38   18   67 1    
    39   18  143 1    
    40   19   20 am   BACKBONE|DICT|INTERRES
    41   19  144 1    
    42   20   21 2    
    43   20   22 1    
    44   22   23 1    
    45   22   24 1    
    46   22  145 1    
    47   23  146 1    
    48   23  147 1    
    49   23  148 1    
    50   24   25 am   BACKBONE|DICT|INTERRES
    51   24  149 1    
    52   25   26 2    
    53   25   27 1    
    54   27   28 1    
    55   27   29 1    
    56   27  150 1    
    57   28  151 1    
    58   28  152 1    
    59   28  153 1    
    60   29   30 am   BACKBONE|DICT|INTERRES
    61   29  154 1    
    62   30   31 2    
    63   30   32 1    
    64   32   33 1    
    65   32   34 1    
    66   32  155 1    
    67   33  156 1    
    68   33  157 1    
    69   33  158 1    
    70   34   35 am   BACKBONE|DICT|INTERRES
    71   34  159 1    
    72   35   36 2    
    73   35   37 1    
    74   37   38 1    
    75   37   39 1    
    76   37  160 1    
    77   38  161 1    
    78   38  162 1    
    79   38  163 1    
    80   39   40 am   BACKBONE|DICT|INTERRES
    81   39  164 1    
    82   40   41 2    
    83   40   42 1    
    84   42   43 1    
    85   42   44 1    
    86   42  165 1    
    87   43  166 1    
    88   43  167 1    
    89   43  168 1    
    90   44   45 am   BACKBONE|DICT|INTERRES
    91   44  169 1    
    92   45   46 2    
    93   45   47 1    
    94   47   48 1    
    95   47   49 1    
    96   47  170 1    
    97   48  171 1    
    98   48  172 1    
    99   48  173 1    
   100   49   50 am   BACKBONE|DICT|INTERRES
   101   49  174 1    
   102   50   51 2    
   103   50   52 1    
   104   52   53 1    
   105   52   54 1    
   106   52  175 1    
   107   53  176 1    
   108   53  177 1    
   109   53  178 1    
   110   54   55 am   BACKBONE|DICT|INTERRES
   111   54  179 1    
   112   55   56 2    
   113   55   57 1    
   114   57   58 1    
   115   57   59 1    
   116   57  180 1    
   117   58  181 1    
   118   58  182 1    
   119   58  183 1    
   120   59   60 am   BACKBONE|DICT|INTERRES
   121   59  184 1    
   122   60   61 2    
   123   60   62 1    
   124   62   63 1    
   125   62   64 1    
   126   62  185 1    
   127   63  186 1    
   128   63  187 1    
   129   63  188 1    
   130   64   65 am   BACKBONE|DICT|INTERRES
   131   64  189 1    
   132   65   66 2    
   133   67   68 2    
   134   67   69 am   BACKBONE|DICT|INTERRES
   135   69   70 1    
   136   69  190 1    
   137   70   71 1    
   138   70   72 1    
   139   70  191 1    
   140   71  192 1    
   141   71  193 1    
   142   71  194 1    
   143   72   73 2    
   144   72   74 am   BACKBONE|DICT|INTERRES
   145   74   75 1    
   146   74  195 1    
   147   75   76 1    
   148   75   77 1    
   149   75  196 1    
   150   76  197 1    
   151   76  198 1    
   152   76  199 1    
   153   77   78 2    
   154   77   79 am   BACKBONE|DICT|INTERRES
   155   79   80 1    
   156   79  200 1    
   157   80   81 1    
   158   80   82 1    
   159   80  201 1    
   160   81  202 1    
   161   81  203 1    
   162   81  204 1    
   163   82   83 2    
   164   82   84 am   BACKBONE|DICT|INTERRES
   165   84   85 1    
   166   84  205 1    
   167   85   86 1    
   168   85   87 1    
   169   85  206 1    
   170   86  207 1    
   171   86  208 1    
   172   86  209 1    
   173   87   88 2    
   174   87   89 am   BACKBONE|DICT|INTERRES
   175   89   90 1    
   176   89  210 1    
   177   90   91 1    
   178   90   92 1    
   179   90  211 1    
   180   91  212 1    
   181   91  213 1    
   182   91  214 1    
   183   92   93 2    
   184   92   94 am   BACKBONE|DICT|INTERRES
   185   94   95 1    
   186   94  215 1    
   187   95   96 1    
   188   95   97 1    
   189   95  216 1    
   190   96  217 1    
   191   96  218 1    
   192   96  219 1    
   193   97   98 2    
   194   97   99 am   BACKBONE|DICT|INTERRES
   195   99  100 1    
   196   99  220 1    
   197  100  101 1    
   198  100  102 1    
   199  100  221 1    
   200  101  222 1    
   201  101  223 1    
   202  101  224 1    
   203  102  103 2    
   204  102  104 am   BACKBONE|DICT|INTERRES
   205  104  105 1    
   206  104  225 1    
   207  105  106 1    
   208  105  107 1    
   209  105  226 1    
   210  106  227 1    
   211  106  228 1    
   212  106  229 1    
   213  107  108 2    
   214  107  109 am   BACKBONE|DICT|INTERRES
   215  109  110 1    
   216  109  230 1    
   217  110  111 1    
   218  110  112 1    
   219  110  231 1    
   220  111  232 1    
   221  111  233 1    
   222  111  234 1    
   223  112  113 2    
   224  112  114 am   BACKBONE|DICT|INTERRES
   225  114  115 1    
   226  114  235 1    
   227  115  116 1    
   228  115  117 1    
   229  115  236 1    
   230  116  237 1    
   231  116  238 1    
   232  116  239 1    
   233  117  118 2    
   234  117  119 am   BACKBONE|DICT|INTERRES
   235  119  120 1    
   236  119  240 1    
   237  120  121 1    
   238  120  124 1    
   239  120  241 1    
   240  121  122 am   BACKBONE|DICT|INTERRES
   241  121  123 2    
   242  122  242 1    
   243  122  243 1    
   244  124  125 1    
   245  124  244 1    
   246  124  245 1    
   247  125  126 1    
   248  126  246 1    
   249  126  247 1    
@<TRIPOS>SUBSTRUCTURE
     1 UNK         1 GROUP             0       ****    0 ROOT    
