@<TRIPOS>MOLECULE
3R540
247   249    1
SMALL
USER_CHARGES


@<TRIPOS>ATOM
      1 CA          0.9148   -9.9754  -39.6982 C.3       0 UNK        -0.1800 
      2 C           0.7223  -10.5144  -41.1076 C.2       0 UNK         0.5000 
      3 O           1.3700  -10.0379  -42.0393 O.2       0 UNK        -0.5000 
      4 N          -0.1489  -11.5196  -41.2710 N.am      1 UNK        -0.5000 
      5 CA         -0.4775  -12.1504  -42.5574 C.3       1 UNK         0.1400 
      6 C6         -1.6308  -13.1742  -42.4112 C.3       23 UNK        -0.0398 
      7 S7         -2.6143  -13.3885  -43.9349 S.3       23 UNK        -0.2404 
      8 C8         -1.8614  -14.8853  -44.6420 C.3       23 UNK        -0.0205 
      9 C9         -2.8171  -15.5979  -45.5837 C.ar      23 UNK        -0.0193 
     10 C10        -2.8636  -15.2633  -46.9403 C.ar      23 UNK        -0.1150 
     11 C11        -3.7288  -15.9351  -47.8112 C.ar      23 UNK        -0.0193 
     12 C12        -4.5474  -16.9512  -47.3037 C.ar      23 UNK        -0.1150 
     13 C13        -4.4950  -17.3134  -45.9563 C.ar      23 UNK        -0.0193 
     14 C14        -3.6423  -16.6142  -45.0961 C.ar      23 UNK        -0.1150 
     15 C15        -5.3552  -18.4752  -45.4648 C.3       23 UNK        -0.0205 
     16 S16        -4.5273  -19.5852  -44.2727 S.3       23 UNK        -0.2404 
     17 C17        -2.9432  -19.9870  -45.0949 C.3       23 UNK        -0.0398 
     18 CA         -2.8782  -21.3817  -45.7592 C.3       11 UNK         0.1400 
     19 N          -1.6610  -21.5073  -46.5738 N.am      11 UNK        -0.5000 
     20 C          -1.2553  -22.5747  -47.2766 C.2       10 UNK         0.5000 
     21 O          -1.8983  -23.6202  -47.3604 O.2       10 UNK        -0.5000 
     22 CA          0.1012  -22.4664  -47.9921 C.3       10 UNK         0.1400 
     23 CB         -0.0645  -21.8481  -49.3891 C.3       10 UNK        -0.1800 
     24 N           1.0616  -21.6826  -47.2153 N.am      10 UNK        -0.5000 
     25 C           1.7176  -22.1416  -46.1398 C.2       9 UNK         0.5000 
     26 O           1.6192  -23.2949  -45.7215 O.2       9 UNK        -0.5000 
     27 CA          2.6170  -21.1378  -45.3934 C.3       9 UNK         0.1400 
     28 CB          4.0239  -21.1121  -46.0085 C.3       9 UNK        -0.1800 
     29 N           2.0631  -19.7828  -45.3921 N.am      9 UNK        -0.5000 
     30 C           0.9854  -19.4128  -44.6824 C.2       8 UNK         0.5000 
     31 O           0.3876  -20.1660  -43.9137 O.2       8 UNK        -0.5000 
     32 CA          0.4594  -17.9763  -44.8969 C.3       8 UNK         0.1400 
     33 CB          1.1321  -17.0194  -43.9033 C.3       8 UNK        -0.1800 
     34 N           0.6675  -17.4745  -46.2577 N.am      8 UNK        -0.5000 
     35 C           0.2229  -18.0710  -47.3739 C.2       7 UNK         0.5000 
     36 O          -0.5206  -19.0500  -47.3620 O.2       7 UNK        -0.5000 
     37 CA          0.7431  -17.5537  -48.7299 C.3       7 UNK         0.1400 
     38 CB         -0.3596  -16.7844  -49.4675 C.3       7 UNK        -0.1800 
     39 N           1.9350  -16.7073  -48.6526 N.am      7 UNK        -0.5000 
     40 C           3.1236  -17.0258  -48.1176 C.2       6 UNK         0.5000 
     41 O           3.3760  -18.1253  -47.6227 O.2       6 UNK        -0.5000 
     42 CA          4.1927  -15.9119  -48.0966 C.3       6 UNK         0.1400 
     43 CB          5.2826  -16.1942  -49.1415 C.3       6 UNK        -0.1800 
     44 N           3.6409  -14.5711  -48.3322 N.am      6 UNK        -0.5000 
     45 C           2.8407  -13.9156  -47.4802 C.2       5 UNK         0.5000 
     46 O           2.5117  -14.3586  -46.3795 O.2       5 UNK        -0.5000 
     47 CA          2.2383  -12.6022  -47.9945 C.3       5 UNK         0.1400 
     48 CB          0.8556  -12.8591  -48.6221 C.3       5 UNK        -0.1800 
     49 N           2.1112  -11.6338  -46.9103 N.am      5 UNK        -0.5000 
     50 C           2.1356  -10.3051  -47.0803 C.2       4 UNK         0.5000 
     51 O           2.2721   -9.7611  -48.1775 O.2       4 UNK        -0.5000 
     52 CA          1.9959   -9.4243  -45.8248 C.3       4 UNK         0.1400 
     53 CB          0.5186   -9.2552  -45.4374 C.3       4 UNK        -0.1800 
     54 N           2.7468   -9.9333  -44.6790 N.am      4 UNK        -0.5000 
     55 C           4.0844   -9.9702  -44.5922 C.2       3 UNK         0.5000 
     56 O           4.8412   -9.5487  -45.4675 O.2       3 UNK        -0.5000 
     57 CA          4.6760  -10.5946  -43.3164 C.3       3 UNK         0.1400 
     58 CB          4.8020   -9.5495  -42.1967 C.3       3 UNK        -0.1800 
     59 N           3.8593  -11.7166  -42.8550 N.am      3 UNK        -0.5000 
     60 C           3.9552  -12.9587  -43.3493 C.2       2 UNK         0.5000 
     61 O           4.8302  -13.3082  -44.1422 O.2       2 UNK        -0.5000 
     62 CA          2.9037  -13.9864  -42.8883 C.3       2 UNK         0.1400 
     63 CB          3.4649  -14.8711  -41.7651 C.3       2 UNK        -0.1800 
     64 N           1.6444  -13.3874  -42.4383 N.am      2 UNK        -0.5000 
     65 C           0.7569  -12.7799  -43.2399 C.2       1 UNK         0.5000 
     66 O           0.9067  -12.6553  -44.4532 O.2       1 UNK        -0.5000 
     67 C          -3.0199  -22.5168  -44.7220 C.2       11 UNK         0.5000 
     68 O          -4.1158  -23.0528  -44.5526 O.2       11 UNK        -0.5000 
     69 N          -1.8935  -22.9225  -44.1178 N.am      12 UNK        -0.5000 
     70 CA         -1.7871  -24.0564  -43.1943 C.3       12 UNK         0.1400 
     71 CB         -0.3619  -24.0901  -42.6223 C.3       12 UNK        -0.1800 
     72 C          -2.1512  -25.4222  -43.8195 C.2       12 UNK         0.5000 
     73 O          -2.4709  -26.3553  -43.0825 O.2       12 UNK        -0.5000 
     74 N          -2.1153  -25.5087  -45.1549 N.am      13 UNK        -0.5000 
     75 CA         -2.5019  -26.6641  -45.9594 C.3       13 UNK         0.1400 
     76 CB         -1.2927  -27.0838  -46.8151 C.3       13 UNK        -0.1800 
     77 C          -3.7403  -26.3496  -46.8255 C.2       13 UNK         0.5000 
     78 O          -3.9187  -26.9783  -47.8682 O.2       13 UNK        -0.5000 
     79 N          -4.5663  -25.3774  -46.4038 N.am      14 UNK        -0.5000 
     80 CA         -5.7948  -24.9123  -47.0628 C.3       14 UNK         0.1400 
     81 CB         -6.8711  -26.0185  -47.0625 C.3       14 UNK        -0.1800 
     82 C          -5.5284  -24.3309  -48.4669 C.2       14 UNK         0.5000 
     83 O          -6.1517  -24.7440  -49.4460 O.2       14 UNK        -0.5000 
     84 N          -4.5603  -23.4064  -48.5343 N.am      15 UNK        -0.5000 
     85 CA         -4.0209  -22.7717  -49.7439 C.3       15 UNK         0.1400 
     86 CB         -5.0762  -21.8825  -50.4293 C.3       15 UNK        -0.1800 
     87 C          -3.3703  -23.8039  -50.6875 C.2       15 UNK         0.5000 
     88 O          -3.5522  -23.7372  -51.9063 O.2       15 UNK        -0.5000 
     89 N          -2.6432  -24.7519  -50.0745 N.am      16 UNK        -0.5000 
     90 CA         -2.0257  -25.9400  -50.6710 C.3       16 UNK         0.1400 
     91 CB         -0.8497  -25.5371  -51.5830 C.3       16 UNK        -0.1800 
     92 C          -3.0693  -26.8225  -51.3838 C.2       16 UNK         0.5000 
     93 O          -2.9362  -27.0964  -52.5752 O.2       16 UNK        -0.5000 
     94 N          -4.1313  -27.1900  -50.6522 N.am      17 UNK        -0.5000 
     95 CA         -5.3342  -27.8875  -51.1266 C.3       17 UNK         0.1400 
     96 CB         -5.0090  -29.3582  -51.4583 C.3       17 UNK        -0.1800 
     97 C          -6.0260  -27.1425  -52.2910 C.2       17 UNK         0.5000 
     98 O          -6.4624  -27.7640  -53.2614 O.2       17 UNK        -0.5000 
     99 N          -6.0614  -25.8078  -52.1754 N.am      18 UNK        -0.5000 
    100 CA        -6.5185  -24.8181  -53.1538 C.3       18 UNK         0.1400 
    101 CB        -8.0326  -24.9629  -53.4095 C.3       18 UNK        -0.1800 
    102 C         -5.7013  -24.7656  -54.4657 C.2       18 UNK         0.5000 
    103 O         -6.1507  -24.1233  -55.4161 O.2       18 UNK        -0.5000 
    104 N         -4.5238  -25.4079  -54.5188 N.am      19 UNK        -0.5000 
    105 CA        -3.6572  -25.4112  -55.6993 C.3       19 UNK         0.1400 
    106 CB        -2.7521  -26.6521  -55.6893 C.3       19 UNK        -0.1800 
    107 C         -2.8103  -24.1326  -55.8135 C.2       19 UNK         0.5000 
    108 O         -2.5216  -23.7098  -56.9340 O.2       19 UNK        -0.5000 
    109 N         -2.4249  -23.5375  -54.6739 N.am      20 UNK        -0.5000 
    110 CA        -1.6872  -22.2728  -54.6403 C.3       20 UNK         0.1400 
    111 CB        -0.8704  -22.1592  -53.3427 C.3       20 UNK        -0.1800 
    112 C         -2.6427  -21.0807  -54.7901 C.2       20 UNK         0.5000 
    113 O         -2.3400  -20.1484  -55.5364 O.2       20 UNK        -0.5000 
    114 N         -3.7774  -21.1404  -54.0730 N.am      21 UNK        -0.5000 
    115 CA        -4.9045  -20.1950  -54.1073 C.3       21 UNK         0.1400 
    116 CB        -5.6812  -20.3634  -55.4291 C.3       21 UNK        -0.1800 
    117 C         -4.5207  -18.7192  -53.8407 C.2       21 UNK         0.5000 
    118 O         -5.2143  -17.8146  -54.3086 O.2       21 UNK        -0.5000 
    119 N         -3.4135  -18.5060  -53.1144 N.am      22 UNK        -0.5000 
    120 CA        -2.7685  -17.2018  -52.8675 C.3       22 UNK         0.1400 
    121 C         -2.1613  -16.5336  -54.1418 C.2       22 UNK         0.5000 
    122 N         -1.9279  -17.2613  -55.2285 N.am      22 UNK        -0.7600 
    123 O         -1.8625  -15.3424  -54.1416 O.2       22 UNK        -0.5000 
    124 C124       -3.6514  -16.2271  -52.0360 C.3       23 UNK        -0.0398 
    125 S125       -4.0942  -16.9380  -50.4156 S.3       23 UNK        -0.2404 
    126 C126       -3.7730  -15.5379  -49.2861 C.3       23 UNK        -0.0205 
    127 H127        0.6532   -8.9180  -39.6638 H         1 UNK         0.0600 
    128 H128        1.9572  -10.0796  -39.3971 H         1 UNK         0.0600 
    129 H129        0.2956  -10.5040  -38.9732 H         1 UNK         0.0600 
    130 H130       -0.6464  -11.8714  -40.4652 H         1 UNK         0.3000 
    131 H131       -0.8234  -11.3417  -43.2047 H         1 UNK         0.0600 
    132 H132       -1.2741  -14.1361  -42.0388 H         1 UNK         0.0800 
    133 H133       -2.3368  -12.8212  -41.6581 H         1 UNK         0.0800 
    134 H134       -0.9443  -14.6178  -45.1697 H         1 UNK         0.0800 
    135 H135       -1.5733  -15.5677  -43.8419 H         1 UNK         0.0800 
    136 H136       -2.2259  -14.4749  -47.3150 H         1 UNK         0.1150 
    137 H137       -5.2235  -17.4770  -47.9622 H         1 UNK         0.1150 
    138 H138       -3.6031  -16.8760  -44.0483 H         1 UNK         0.1150 
    139 H139       -6.2551  -18.0704  -45.0004 H         1 UNK         0.0800 
    140 H140       -5.6896  -19.0813  -46.3083 H         1 UNK         0.0800 
    141 H141       -2.1597  -19.8918  -44.3438 H         1 UNK         0.0800 
    142 H142       -2.7211  -19.2265  -45.8423 H         1 UNK         0.0800 
    143 H143       -3.7218  -21.4613  -46.4469 H         1 UNK         0.0600 
    144 H144       -1.1036  -20.6607  -46.6597 H         1 UNK         0.3000 
    145 H145        0.4941  -23.4780  -48.1165 H         1 UNK         0.0600 
    146 H146        0.8963  -21.7557  -49.8957 H         1 UNK         0.0600 
    147 H147       -0.6978  -22.4737  -50.0176 H         1 UNK         0.0600 
    148 H148       -0.5183  -20.8575  -49.3484 H         1 UNK         0.0600 
    149 H149        1.1621  -20.7096  -47.4645 H         1 UNK         0.3000 
    150 H150        2.7051  -21.4744  -44.3581 H         1 UNK         0.0600 
    151 H151        4.4787  -22.1032  -45.9839 H         1 UNK         0.0600 
    152 H152        4.6821  -20.4382  -45.4598 H         1 UNK         0.0600 
    153 H153        4.0033  -20.7859  -47.0491 H         1 UNK         0.0600 
    154 H154        2.4958  -19.1147  -46.0218 H         1 UNK         0.3000 
    155 H155       -0.6151  -17.9763  -44.7060 H         1 UNK         0.0600 
    156 H156        0.9248  -17.3140  -42.8738 H         1 UNK         0.0600 
    157 H157        0.7737  -15.9990  -44.0285 H         1 UNK         0.0600 
    158 H158        2.2153  -17.0091  -44.0310 H         1 UNK         0.0600 
    159 H159        1.2737  -16.6715  -46.3554 H         1 UNK         0.3000 
    160 H160        1.0044  -18.4314  -49.3241 H         1 UNK         0.0600 
    161 H161       -0.6240  -15.8672  -48.9408 H         1 UNK         0.0600 
    162 H162       -1.2630  -17.3891  -49.5531 H         1 UNK         0.0600 
    163 H163       -0.0518  -16.5168  -50.4783 H         1 UNK         0.0600 
    164 H164        1.8387  -15.7772  -49.0293 H         1 UNK         0.3000 
    165 H165        4.6537  -15.9224  -47.1066 H         1 UNK         0.0600 
    166 H166        6.0812  -15.4539  -49.0886 H         1 UNK         0.0600 
    167 H167        5.7375  -17.1721  -48.9775 H         1 UNK         0.0600 
    168 H168        4.8809  -16.1850  -50.1555 H         1 UNK         0.0600 
    169 H169        3.8598  -14.1496  -49.2238 H         1 UNK         0.3000 
    170 H170        2.9083  -12.2006  -48.7579 H         1 UNK         0.0600 
    171 H171        0.9198  -13.5775  -49.4400 H         1 UNK         0.0600 
    172 H172        0.1522  -13.2555  -47.8882 H         1 UNK         0.0600 
    173 H173        0.4293  -11.9430  -49.0312 H         1 UNK         0.0600 
    174 H174        1.9535  -12.0295  -45.9853 H         1 UNK         0.3000 
    175 H175        2.3928   -8.4363  -46.0672 H         1 UNK         0.0600 
    176 H176        0.4093   -8.6128  -44.5633 H         1 UNK         0.0600 
    177 H177       -0.0461   -8.7985  -46.2510 H         1 UNK         0.0600 
    178 H178        0.0481  -10.2117  -45.2115 H         1 UNK         0.0600 
    179 H179        2.2018  -10.2481  -43.8842 H         1 UNK         0.3000 
    180 H180        5.6813  -10.9513  -43.5512 H         1 UNK         0.0600 
    181 H181        3.8375   -9.1186  -41.9284 H         1 UNK         0.0600 
    182 H182        5.4505   -8.7286  -42.5050 H         1 UNK         0.0600 
    183 H183        5.2361   -9.9862  -41.2972 H         1 UNK         0.0600 
    184 H184        3.0922  -11.4933  -42.2358 H         1 UNK         0.3000 
    185 H185        2.6897  -14.6221  -43.7475 H         1 UNK         0.0600 
    186 H186        4.3879  -15.3609  -42.0783 H         1 UNK         0.0600 
    187 H187        3.6883  -14.2905  -40.8692 H         1 UNK         0.0600 
    188 H188        2.7597  -15.6561  -41.4914 H         1 UNK         0.0600 
    189 H189        1.4566  -13.4194  -41.4468 H         1 UNK         0.3000 
    190 H190       -1.0347  -22.4308  -44.3251 H         1 UNK         0.3000 
    191 H191       -2.4836  -23.8798  -42.3722 H         1 UNK         0.0600 
    192 H192        0.3797  -24.2579  -43.4043 H         1 UNK         0.0600 
    193 H193       -0.1144  -23.1543  -42.1206 H         1 UNK         0.0600 
    194 H194       -0.2526  -24.8904  -41.8892 H         1 UNK         0.0600 
    195 H195       -1.8690  -24.6832  -45.6908 H         1 UNK         0.3000 
    196 H196       -2.7748  -27.5047  -45.3191 H         1 UNK         0.0600 
    197 H197       -0.4375  -27.3332  -46.1869 H         1 UNK         0.0600 
    198 H198       -0.9851  -26.2865  -47.4923 H         1 UNK         0.0600 
    199 H199       -1.5169  -27.9650  -47.4174 H         1 UNK         0.0600 
    200 H200       -4.3197  -24.8777  -45.5565 H         1 UNK         0.3000 
    201 H201       -6.1738  -24.0873  -46.4578 H         1 UNK         0.0600 
    202 H202       -7.8182  -25.6391  -47.4479 H         1 UNK         0.0600 
    203 H203       -7.0560  -26.3875  -46.0538 H         1 UNK         0.0600 
    204 H204       -6.5853  -26.8681  -47.6833 H         1 UNK         0.0600 
    205 H205       -4.0346  -23.2308  -47.6890 H         1 UNK         0.3000 
    206 H206       -3.2173  -22.1118  -49.4175 H         1 UNK         0.0600 
    207 H207       -5.4943  -21.1601  -49.7283 H         1 UNK         0.0600 
    208 H208       -5.9007  -22.4642  -50.8395 H         1 UNK         0.0600 
    209 H209       -4.6303  -21.3153  -51.2453 H         1 UNK         0.0600 
    210 H210       -2.5612  -24.6818  -49.0669 H         1 UNK         0.3000 
    211 H211       -1.6230  -26.5339  -49.8501 H         1 UNK         0.0600 
    212 H212       -0.1391  -24.9009  -51.0555 H         1 UNK         0.0600 
    213 H213       -0.3070  -26.4178  -51.9276 H         1 UNK         0.0600 
    214 H214       -1.1902  -25.0006  -52.4676 H         1 UNK         0.0600 
    215 H215       -4.1331  -26.9506  -49.6615 H         1 UNK         0.3000 
    216 H216       -6.0402  -27.8805  -50.2949 H         1 UNK         0.0600 
    217 H217       -5.9156  -29.9147  -51.6983 H         1 UNK         0.0600 
    218 H218       -4.3374  -29.4413  -52.3134 H         1 UNK         0.0600 
    219 H219       -4.5374  -29.8569  -50.6116 H         1 UNK         0.0600 
    220 H220       -5.7258  -25.4141  -51.3016 H         1 UNK         0.3000 
    221 H221       -6.3627  -23.8490  -52.6804 H         1 UNK         0.0600 
    222 H222       -8.2664  -25.8809  -53.9490 H         1 UNK         0.0600 
    223 H223       -8.5907  -24.9711  -52.4732 H         1 UNK         0.0600 
    224 H224       -8.4124  -24.1305  -54.0029 H         1 UNK         0.0600 
    225 H225       -4.1901  -25.9166  -53.7068 H         1 UNK         0.3000 
    226 H226       -4.2861  -25.4755  -56.5900 H         1 UNK         0.0600 
    227 H227       -3.3272  -27.5637  -55.5256 H         1 UNK         0.0600 
    228 H228       -2.2342  -26.7589  -56.6430 H         1 UNK         0.0600 
    229 H229       -1.9880  -26.5898  -54.9142 H         1 UNK         0.0600 
    230 H230       -2.7416  -23.9124  -53.7857 H         1 UNK         0.3000 
    231 H231       -0.9824  -22.2449  -55.4743 H         1 UNK         0.0600 
    232 H232       -0.3012  -21.2290  -53.3239 H         1 UNK         0.0600 
    233 H233       -0.1533  -22.9751  -53.2560 H         1 UNK         0.0600 
    234 H234       -1.5023  -22.1693  -52.4558 H         1 UNK         0.0600 
    235 H235       -3.9037  -21.9499  -53.4795 H         1 UNK         0.3000 
    236 H236       -5.5745  -20.4825  -53.2965 H         1 UNK         0.0600 
    237 H237       -5.9639  -21.4032  -55.5906 H         1 UNK         0.0600 
    238 H238       -6.6013  -19.7779  -55.4252 H         1 UNK         0.0600 
    239 H239       -5.0896  -20.0410  -56.2867 H         1 UNK         0.0600 
    240 H240       -2.9103  -19.3122  -52.7773 H         1 UNK         0.3000 
    241 H241       -1.8947  -17.4308  -52.2566 H         1 UNK         0.0600 
    242 H242       -1.5259  -16.8190  -56.0394 H         1 UNK         0.3800 
    243 H243       -2.1473  -18.2534  -55.2595 H         1 UNK         0.3800 
    244 H244       -3.1252  -15.2858  -51.8722 H         1 UNK         0.0800 
    245 H245       -4.5655  -15.9687  -52.5710 H         1 UNK         0.0800 
    246 H246       -2.8296  -15.0676  -49.5654 H         1 UNK         0.0800 
    247 H247       -4.5497  -14.7851  -49.4248 H         1 UNK         0.0800 
@<TRIPOS>BOND
     1    1    2 1    
     2    1  127 1    
     3    1  128 1    
     4    1  129 1    
     5    2    3 2    
     6    2    4 am   BACKBONE|DICT|INTERRES
     7    4    5 1    
     8    4  130 1    
     9    5    6 1    
    10    5   65 1    
    11    5  131 1    
    12    6    7 1    
    13    6  132 1    
    14    6  133 1    
    15    7    8 1    
    16    8    9 1    
    17    8  134 1    
    18    8  135 1    
    19    9   10 ar   
    20    9   14 ar   
    21   10   11 ar   
    22   10  136 1    
    23   11   12 ar   
    24   11  126 1    
    25   12   13 ar   
    26   12  137 1    
    27   13   14 ar   
    28   13   15 1    
    29   14  138 1    
    30   15   16 1    
    31   15  139 1    
    32   15  140 1    
    33   16   17 1    
    34   17   18 1    
    35   17  141 1    
    36   17  142 1    
    37   18   19 1    
    38   18   67 1    
    39   18  143 1    
    40   19   20 am   BACKBONE|DICT|INTERRES
    41   19  144 1    
    42   20   21 2    
    43   20   22 1    
    44   22   23 1    
    45   22   24 1    
    46   22  145 1    
    47   23  146 1    
    48   23  147 1    
    49   23  148 1    
    50   24   25 am   BACKBONE|DICT|INTERRES
    51   24  149 1    
    52   25   26 2    
    53   25   27 1    
    54   27   28 1    
    55   27   29 1    
    56   27  150 1    
    57   28  151 1    
    58   28  152 1    
    59   28  153 1    
    60   29   30 am   BACKBONE|DICT|INTERRES
    61   29  154 1    
    62   30   31 2    
    63   30   32 1    
    64   32   33 1    
    65   32   34 1    
    66   32  155 1    
    67   33  156 1    
    68   33  157 1    
    69   33  158 1    
    70   34   35 am   BACKBONE|DICT|INTERRES
    71   34  159 1    
    72   35   36 2    
    73   35   37 1    
    74   37   38 1    
    75   37   39 1    
    76   37  160 1    
    77   38  161 1    
    78   38  162 1    
    79   38  163 1    
    80   39   40 am   BACKBONE|DICT|INTERRES
    81   39  164 1    
    82   40   41 2    
    83   40   42 1    
    84   42   43 1    
    85   42   44 1    
    86   42  165 1    
    87   43  166 1    
    88   43  167 1    
    89   43  168 1    
    90   44   45 am   BACKBONE|DICT|INTERRES
    91   44  169 1    
    92   45   46 2    
    93   45   47 1    
    94   47   48 1    
    95   47   49 1    
    96   47  170 1    
    97   48  171 1    
    98   48  172 1    
    99   48  173 1    
   100   49   50 am   BACKBONE|DICT|INTERRES
   101   49  174 1    
   102   50   51 2    
   103   50   52 1    
   104   52   53 1    
   105   52   54 1    
   106   52  175 1    
   107   53  176 1    
   108   53  177 1    
   109   53  178 1    
   110   54   55 am   BACKBONE|DICT|INTERRES
   111   54  179 1    
   112   55   56 2    
   113   55   57 1    
   114   57   58 1    
   115   57   59 1    
   116   57  180 1    
   117   58  181 1    
   118   58  182 1    
   119   58  183 1    
   120   59   60 am   BACKBONE|DICT|INTERRES
   121   59  184 1    
   122   60   61 2    
   123   60   62 1    
   124   62   63 1    
   125   62   64 1    
   126   62  185 1    
   127   63  186 1    
   128   63  187 1    
   129   63  188 1    
   130   64   65 am   BACKBONE|DICT|INTERRES
   131   64  189 1    
   132   65   66 2    
   133   67   68 2    
   134   67   69 am   BACKBONE|DICT|INTERRES
   135   69   70 1    
   136   69  190 1    
   137   70   71 1    
   138   70   72 1    
   139   70  191 1    
   140   71  192 1    
   141   71  193 1    
   142   71  194 1    
   143   72   73 2    
   144   72   74 am   BACKBONE|DICT|INTERRES
   145   74   75 1    
   146   74  195 1    
   147   75   76 1    
   148   75   77 1    
   149   75  196 1    
   150   76  197 1    
   151   76  198 1    
   152   76  199 1    
   153   77   78 2    
   154   77   79 am   BACKBONE|DICT|INTERRES
   155   79   80 1    
   156   79  200 1    
   157   80   81 1    
   158   80   82 1    
   159   80  201 1    
   160   81  202 1    
   161   81  203 1    
   162   81  204 1    
   163   82   83 2    
   164   82   84 am   BACKBONE|DICT|INTERRES
   165   84   85 1    
   166   84  205 1    
   167   85   86 1    
   168   85   87 1    
   169   85  206 1    
   170   86  207 1    
   171   86  208 1    
   172   86  209 1    
   173   87   88 2    
   174   87   89 am   BACKBONE|DICT|INTERRES
   175   89   90 1    
   176   89  210 1    
   177   90   91 1    
   178   90   92 1    
   179   90  211 1    
   180   91  212 1    
   181   91  213 1    
   182   91  214 1    
   183   92   93 2    
   184   92   94 am   BACKBONE|DICT|INTERRES
   185   94   95 1    
   186   94  215 1    
   187   95   96 1    
   188   95   97 1    
   189   95  216 1    
   190   96  217 1    
   191   96  218 1    
   192   96  219 1    
   193   97   98 2    
   194   97   99 am   BACKBONE|DICT|INTERRES
   195   99  100 1    
   196   99  220 1    
   197  100  101 1    
   198  100  102 1    
   199  100  221 1    
   200  101  222 1    
   201  101  223 1    
   202  101  224 1    
   203  102  103 2    
   204  102  104 am   BACKBONE|DICT|INTERRES
   205  104  105 1    
   206  104  225 1    
   207  105  106 1    
   208  105  107 1    
   209  105  226 1    
   210  106  227 1    
   211  106  228 1    
   212  106  229 1    
   213  107  108 2    
   214  107  109 am   BACKBONE|DICT|INTERRES
   215  109  110 1    
   216  109  230 1    
   217  110  111 1    
   218  110  112 1    
   219  110  231 1    
   220  111  232 1    
   221  111  233 1    
   222  111  234 1    
   223  112  113 2    
   224  112  114 am   BACKBONE|DICT|INTERRES
   225  114  115 1    
   226  114  235 1    
   227  115  116 1    
   228  115  117 1    
   229  115  236 1    
   230  116  237 1    
   231  116  238 1    
   232  116  239 1    
   233  117  118 2    
   234  117  119 am   BACKBONE|DICT|INTERRES
   235  119  120 1    
   236  119  240 1    
   237  120  121 1    
   238  120  124 1    
   239  120  241 1    
   240  121  122 am   BACKBONE|DICT|INTERRES
   241  121  123 2    
   242  122  242 1    
   243  122  243 1    
   244  124  125 1    
   245  124  244 1    
   246  124  245 1    
   247  125  126 1    
   248  126  246 1    
   249  126  247 1    
@<TRIPOS>SUBSTRUCTURE
     1 UNK         1 GROUP             0       ****    0 ROOT    
