@<TRIPOS>MOLECULE
3R540
247   249    1
SMALL
USER_CHARGES


@<TRIPOS>ATOM
      1 CA          4.1352  -12.0058  -47.6477 C.3       0 UNK        -0.1800 
      2 C           2.7385  -12.2704  -48.1925 C.2       0 UNK         0.5000 
      3 O           2.2146  -11.4513  -48.9468 O.2       0 UNK        -0.5000 
      4 N           2.1498  -13.4107  -47.8075 N.am      1 UNK        -0.5000 
      5 CA          0.8068  -13.8907  -48.1690 C.3       1 UNK         0.1400 
      6 C6          0.6831  -14.2849  -49.6656 C.3       23 UNK        -0.0398 
      7 S7          1.8623  -15.5890  -50.1548 S.3       23 UNK        -0.2404 
      8 C8          0.8598  -17.0846  -49.8991 C.3       23 UNK        -0.0205 
      9 C9          1.5579  -18.3081  -50.4690 C.ar      23 UNK        -0.0193 
     10 C10         1.3099  -18.7086  -51.7851 C.ar      23 UNK        -0.1150 
     11 C11         1.9757  -19.8109  -52.3321 C.ar      23 UNK        -0.0193 
     12 C12         2.8716  -20.5310  -51.5380 C.ar      23 UNK        -0.1150 
     13 C13         3.1139  -20.1521  -50.2149 C.ar      23 UNK        -0.0193 
     14 C14         2.4610  -19.0333  -49.6877 C.ar      23 UNK        -0.1150 
     15 C15         4.0929  -20.9517  -49.3701 C.3       23 UNK        -0.0205 
     16 S16         3.3067  -22.4230  -48.6415 S.3       23 UNK        -0.2404 
     17 C17         2.4234  -21.6783  -47.2331 C.3       23 UNK        -0.0398 
     18 CA          1.0817  -22.3659  -46.8947 C.3       11 UNK         0.1400 
     19 N           0.6554  -22.0224  -45.5360 N.am      11 UNK        -0.5000 
     20 C          -0.3553  -22.5989  -44.8735 C.2       10 UNK         0.5000 
     21 O          -1.0274  -23.5255  -45.3239 O.2       10 UNK        -0.5000 
     22 CA         -0.6997  -22.0102  -43.4930 C.3       10 UNK         0.1400 
     23 CB          0.2463  -22.5569  -42.4137 C.3       10 UNK        -0.1800 
     24 N          -0.6637  -20.5470  -43.4816 N.am      10 UNK        -0.5000 
     25 C          -1.4792  -19.7618  -44.2001 C.2       9 UNK         0.5000 
     26 O          -2.3855  -20.1892  -44.9133 O.2       9 UNK        -0.5000 
     27 CA         -1.2002  -18.2493  -44.1590 C.3       9 UNK         0.1400 
     28 CB         -1.7463  -17.6313  -42.8621 C.3       9 UNK        -0.1800 
     29 N           0.2257  -17.9487  -44.3063 N.am      9 UNK        -0.5000 
     30 C           0.9498  -18.2360  -45.3988 C.2       8 UNK         0.5000 
     31 O           0.4801  -18.7252  -46.4244 O.2       8 UNK        -0.5000 
     32 CA          2.4630  -17.9819  -45.3192 C.3       8 UNK         0.1400 
     33 CB          2.7965  -16.5349  -45.7109 C.3       8 UNK        -0.1800 
     34 N           2.9946  -18.2862  -43.9903 N.am      8 UNK        -0.5000 
     35 C           3.1129  -19.5293  -43.5001 C.2       7 UNK         0.5000 
     36 O           2.8166  -20.5413  -44.1342 O.2       7 UNK        -0.5000 
     37 CA          3.5956  -19.6628  -42.0440 C.3       7 UNK         0.1400 
     38 CB          5.1261  -19.5601  -41.9683 C.3       7 UNK        -0.1800 
     39 N           2.9961  -18.6619  -41.1615 N.am      7 UNK        -0.5000 
     40 C           1.6897  -18.5956  -40.8683 C.2       6 UNK         0.5000 
     41 O           0.8622  -19.4178  -41.2604 O.2       6 UNK        -0.5000 
     42 CA          1.2211  -17.3798  -40.0441 C.3       6 UNK         0.1400 
     43 CB          1.2494  -17.7035  -38.5435 C.3       6 UNK        -0.1800 
     44 N           1.9962  -16.1591  -40.2891 N.am      6 UNK        -0.5000 
     45 C           2.1450  -15.5624  -41.4785 C.2       5 UNK         0.5000 
     46 O           1.6421  -15.9884  -42.5196 O.2       5 UNK        -0.5000 
     47 CA          2.9992  -14.2823  -41.4962 C.3       5 UNK         0.1400 
     48 CB          3.6184  -14.0147  -42.8795 C.3       5 UNK        -0.1800 
     49 N           2.2044  -13.1272  -41.0819 N.am      5 UNK        -0.5000 
     50 C           1.8980  -12.8336  -39.8090 C.2       4 UNK         0.5000 
     51 O           2.2910  -13.5008  -38.8502 O.2       4 UNK        -0.5000 
     52 CA          1.0214  -11.5923  -39.5440 C.3       4 UNK         0.1400 
     53 CB          1.8907  -10.4128  -39.0813 C.3       4 UNK        -0.1800 
     54 N           0.2321  -11.1687  -40.7007 N.am      4 UNK        -0.5000 
     55 C          -0.8446  -11.8093  -41.1732 C.2       3 UNK         0.5000 
     56 O          -1.3156  -12.8250  -40.6597 O.2       3 UNK        -0.5000 
     57 CA         -1.4966  -11.2414  -42.4524 C.3       3 UNK         0.1400 
     58 CB         -1.1462   -9.7629  -42.7370 C.3       3 UNK        -0.1800 
     59 N          -1.1974  -12.0776  -43.6196 N.am      3 UNK        -0.5000 
     60 C           0.0207  -12.4055  -44.0774 C.2       2 UNK         0.5000 
     61 O           1.0744  -11.9764  -43.6069 O.2       2 UNK        -0.5000 
     62 CA          0.0626  -13.3557  -45.2787 C.3       2 UNK         0.1400 
     63 CB         -0.6479  -14.6870  -44.9775 C.3       2 UNK        -0.1800 
     64 N          -0.5500  -12.6965  -46.4294 N.am      2 UNK        -0.5000 
     65 C          -0.3017  -12.8948  -47.7321 C.2       1 UNK         0.5000 
     66 O          -0.9327  -12.2761  -48.5891 O.2       1 UNK        -0.5000 
     67 C          -0.0214  -22.0758  -47.9397 C.2       11 UNK         0.5000 
     68 O          -0.2755  -22.9167  -48.8027 O.2       11 UNK        -0.5000 
     69 N          -0.7013  -20.9267  -47.8087 N.am      12 UNK        -0.5000 
     70 CA         -1.8646  -20.5597  -48.6165 C.3       12 UNK         0.1400 
     71 CB         -2.2346  -19.0906  -48.3652 C.3       12 UNK        -0.1800 
     72 C          -3.0714  -21.4795  -48.3587 C.2       12 UNK         0.5000 
     73 O          -3.7063  -21.9221  -49.3136 O.2       12 UNK        -0.5000 
     74 N          -3.3481  -21.7906  -47.0842 N.am      13 UNK        -0.5000 
     75 CA         -4.4131  -22.7078  -46.6709 C.3       13 UNK         0.1400 
     76 CB         -4.5513  -22.6968  -45.1422 C.3       13 UNK        -0.1800 
     77 C          -4.2103  -24.1428  -47.1927 C.2       13 UNK         0.5000 
     78 O          -5.1807  -24.7835  -47.5994 O.2       13 UNK        -0.5000 
     79 N          -2.9514  -24.6016  -47.2230 N.am      14 UNK        -0.5000 
     80 CA         -2.5422  -25.8822  -47.8014 C.3       14 UNK         0.1400 
     81 CB         -1.0727  -26.1583  -47.4502 C.3       14 UNK        -0.1800 
     82 C          -2.7672  -25.9678  -49.3245 C.2       14 UNK         0.5000 
     83 O          -2.9838  -27.0662  -49.8380 O.2       14 UNK        -0.5000 
     84 N          -2.7738  -24.8210  -50.0197 N.am      15 UNK        -0.5000 
     85 CA         -3.0943  -24.6921  -51.4427 C.3       15 UNK         0.1400 
     86 CB         -2.3833  -23.4513  -52.0129 C.3       15 UNK        -0.1800 
     87 C          -4.6215  -24.6763  -51.6763 C.2       15 UNK         0.5000 
     88 O          -5.1495  -23.7528  -52.3004 O.2       15 UNK        -0.5000 
     89 N          -5.3004  -25.7102  -51.1576 N.am      16 UNK        -0.5000 
     90 CA         -6.7364  -25.9897  -51.2549 C.3       16 UNK         0.1400 
     91 CB         -7.1008  -26.3822  -52.7024 C.3       16 UNK        -0.1800 
     92 C          -7.6115  -24.8413  -50.7139 C.2       16 UNK         0.5000 
     93 O          -8.5045  -24.3681  -51.4157 O.2       16 UNK        -0.5000 
     94 N          -7.3118  -24.3735  -49.4924 N.am      17 UNK        -0.5000 
     95 CA         -7.9452  -23.2243  -48.8272 C.3       17 UNK         0.1400 
     96 CB         -9.4169  -23.5294  -48.4772 C.3       17 UNK        -0.1800 
     97 C          -7.7702  -21.9132  -49.6263 C.2       17 UNK         0.5000 
     98 O          -8.6771  -21.0808  -49.6701 O.2       17 UNK        -0.5000 
     99 N          -6.6020  -21.7888  -50.2701 N.am      18 UNK        -0.5000 
    100 CA        -6.1663  -20.7374  -51.1894 C.3       18 UNK         0.1400 
    101 CB        -6.1416  -19.3586  -50.4992 C.3       18 UNK        -0.1800 
    102 C         -6.9079  -20.7172  -52.5434 C.2       18 UNK         0.5000 
    103 O         -6.7040  -19.7823  -53.3189 O.2       18 UNK        -0.5000 
    104 N         -7.7129  -21.7466  -52.8502 N.am      19 UNK        -0.5000 
    105 CA        -8.3866  -21.8934  -54.1443 C.3       19 UNK         0.1400 
    106 CB        -9.5500  -22.8879  -54.0191 C.3       19 UNK        -0.1800 
    107 C         -7.4272  -22.3308  -55.2677 C.2       19 UNK         0.5000 
    108 O         -7.7134  -22.0678  -56.4362 O.2       19 UNK        -0.5000 
    109 N         -6.3095  -22.9716  -54.9006 N.am      20 UNK        -0.5000 
    110 CA        -5.2480  -23.4128  -55.8047 C.3       20 UNK         0.1400 
    111 CB        -5.0617  -24.9333  -55.6502 C.3       20 UNK        -0.1800 
    112 C         -3.9420  -22.6366  -55.5432 C.2       20 UNK         0.5000 
    113 O         -2.8612  -23.1464  -55.8447 O.2       20 UNK        -0.5000 
    114 N         -4.0519  -21.4255  -54.9751 N.am      21 UNK        -0.5000 
    115 CA        -2.9308  -20.5282  -54.6942 C.3       21 UNK         0.1400 
    116 CB        -3.4242  -19.3404  -53.8542 C.3       21 UNK        -0.1800 
    117 C         -2.2252  -20.0335  -55.9721 C.2       21 UNK         0.5000 
    118 O         -2.8389  -19.9489  -57.0387 O.2       21 UNK        -0.5000 
    119 N         -0.9411  -19.7031  -55.8178 N.am      22 UNK        -0.5000 
    120 CA        -0.0238  -19.2694  -56.8817 C.3       22 UNK         0.1400 
    121 C         -0.1779  -17.7856  -57.3335 C.2       22 UNK         0.5000 
    122 N         -1.0163  -16.9764  -56.6974 N.am      22 UNK        -0.7600 
    123 O          0.4643  -17.3652  -58.2922 O.2       22 UNK        -0.5000 
    124 C124        1.4423  -19.6333  -56.5212 C.3       23 UNK        -0.0398 
    125 S125        2.0308  -18.8897  -54.9565 S.3       23 UNK        -0.2404 
    126 C126        1.7156  -20.2393  -53.7697 C.3       23 UNK        -0.0205 
    127 H127        4.4733  -12.8057  -46.9882 H         1 UNK         0.0600 
    128 H128        4.1469  -11.0735  -47.0831 H         1 UNK         0.0600 
    129 H129        4.8474  -11.9180  -48.4682 H         1 UNK         0.0600 
    130 H130        2.6714  -14.0285  -47.2040 H         1 UNK         0.3000 
    131 H131        0.6476  -14.8060  -47.6012 H         1 UNK         0.0600 
    132 H132       -0.3296  -14.6227  -49.8924 H         1 UNK         0.0800 
    133 H133        0.8578  -13.4185  -50.3055 H         1 UNK         0.0800 
    134 H134        0.6779  -17.2191  -48.8317 H         1 UNK         0.0800 
    135 H135       -0.1164  -16.9636  -50.3712 H         1 UNK         0.0800 
    136 H136        0.6139  -18.1477  -52.3930 H         1 UNK         0.1150 
    137 H137        3.3812  -21.3928  -51.9459 H         1 UNK         0.1150 
    138 H138        2.6559  -18.7192  -48.6724 H         1 UNK         0.1150 
    139 H139        4.9299  -21.2734  -49.9918 H         1 UNK         0.0800 
    140 H140        4.5233  -20.3309  -48.5826 H         1 UNK         0.0800 
    141 H141        2.2725  -20.6117  -47.3906 H         1 UNK         0.0800 
    142 H142        3.1027  -21.7602  -46.3846 H         1 UNK         0.0800 
    143 H143        1.2505  -23.4451  -46.8992 H         1 UNK         0.0600 
    144 H144        1.1913  -21.3010  -45.0649 H         1 UNK         0.3000 
    145 H145       -1.7157  -22.3211  -43.2423 H         1 UNK         0.0600 
    146 H146       -0.0411  -22.2032  -41.4234 H         1 UNK         0.0600 
    147 H147        0.2236  -23.6471  -42.3898 H         1 UNK         0.0600 
    148 H148        1.2784  -22.2525  -42.5892 H         1 UNK         0.0600 
    149 H149        0.0236  -20.1123  -42.8724 H         1 UNK         0.3000 
    150 H150       -1.7230  -17.7889  -45.0000 H         1 UNK         0.0600 
    151 H151       -2.8268  -17.7646  -42.7984 H         1 UNK         0.0600 
    152 H152       -1.5499  -16.5616  -42.8077 H         1 UNK         0.0600 
    153 H153       -1.3124  -18.0947  -41.9775 H         1 UNK         0.0600 
    154 H154        0.6902  -17.5002  -43.5241 H         1 UNK         0.3000 
    155 H155        2.9520  -18.6423  -46.0380 H         1 UNK         0.0600 
    156 H156        2.2853  -15.8141  -45.0741 H         1 UNK         0.0600 
    157 H157        3.8675  -16.3436  -45.6451 H         1 UNK         0.0600 
    158 H158        2.4936  -16.3382  -46.7400 H         1 UNK         0.0600 
    159 H159        3.1737  -17.4995  -43.3829 H         1 UNK         0.3000 
    160 H160        3.3009  -20.6513  -41.6851 H         1 UNK         0.0600 
    161 H161        5.4826  -18.5807  -42.2897 H         1 UNK         0.0600 
    162 H162        5.5988  -20.3076  -42.6069 H         1 UNK         0.0600 
    163 H163        5.4825  -19.7306  -40.9522 H         1 UNK         0.0600 
    164 H164        3.6078  -17.9490  -40.7926 H         1 UNK         0.3000 
    165 H165        0.1881  -17.1705  -40.3274 H         1 UNK         0.0600 
    166 H166        0.8327  -16.8853  -37.9557 H         1 UNK         0.0600 
    167 H167        0.6580  -18.5937  -38.3244 H         1 UNK         0.0600 
    168 H168        2.2648  -17.8880  -38.1906 H         1 UNK         0.0600 
    169 H169        2.3886  -15.6995  -39.4771 H         1 UNK         0.3000 
    170 H170        3.8247  -14.4166  -40.7939 H         1 UNK         0.0600 
    171 H171        2.8598  -13.8861  -43.6501 H         1 UNK         0.0600 
    172 H172        4.2362  -13.1167  -42.8677 H         1 UNK         0.0600 
    173 H173        4.2559  -14.8444  -43.1870 H         1 UNK         0.0600 
    174 H174        1.8147  -12.5594  -41.8279 H         1 UNK         0.3000 
    175 H175        0.3340  -11.8460  -38.7343 H         1 UNK         0.0600 
    176 H176        1.2782   -9.5503  -38.8175 H         1 UNK         0.0600 
    177 H177        2.5933  -10.1028  -39.8559 H         1 UNK         0.0600 
    178 H178        2.4726  -10.6783  -38.1976 H         1 UNK         0.0600 
    179 H179        0.5703  -10.3643  -41.2088 H         1 UNK         0.3000 
    180 H180       -2.5748  -11.2970  -42.2952 H         1 UNK         0.0600 
    181 H181       -0.0909   -9.6189  -42.9701 H         1 UNK         0.0600 
    182 H182       -1.3873   -9.1311  -41.8811 H         1 UNK         0.0600 
    183 H183       -1.7208   -9.3864  -43.5833 H         1 UNK         0.0600 
    184 H184       -2.0011  -12.5131  -44.0492 H         1 UNK         0.3000 
    185 H185        1.1154  -13.5618  -45.4639 H         1 UNK         0.0600 
    186 H186       -0.2613  -15.1190  -44.0563 H         1 UNK         0.0600 
    187 H187       -1.7238  -14.5614  -44.8541 H         1 UNK         0.0600 
    188 H188       -0.4935  -15.4228  -45.7647 H         1 UNK         0.0600 
    189 H189       -1.2251  -11.9847  -46.1885 H         1 UNK         0.3000 
    190 H190       -0.4015  -20.2502  -47.1116 H         1 UNK         0.3000 
    191 H191       -1.5869  -20.6624  -49.6678 H         1 UNK         0.0600 
    192 H192       -1.4046  -18.4296  -48.6086 H         1 UNK         0.0600 
    193 H193       -3.0820  -18.7904  -48.9827 H         1 UNK         0.0600 
    194 H194       -2.5058  -18.9135  -47.3243 H         1 UNK         0.0600 
    195 H195       -2.8176  -21.3426  -46.3411 H         1 UNK         0.3000 
    196 H196       -5.3444  -22.3300  -47.0948 H         1 UNK         0.0600 
    197 H197       -5.3647  -23.3475  -44.8191 H         1 UNK         0.0600 
    198 H198       -4.7704  -21.6947  -44.7732 H         1 UNK         0.0600 
    199 H199       -3.6408  -23.0422  -44.6530 H         1 UNK         0.0600 
    200 H200       -2.2183  -24.0371  -46.8034 H         1 UNK         0.3000 
    201 H201       -3.1513  -26.6619  -47.3394 H         1 UNK         0.0600 
    202 H202       -0.9215  -26.1742  -46.3708 H         1 UNK         0.0600 
    203 H203       -0.4086  -25.4030  -47.8698 H         1 UNK         0.0600 
    204 H204       -0.7537  -27.1268  -47.8373 H         1 UNK         0.0600 
    205 H205       -2.6318  -23.9530  -49.5186 H         1 UNK         0.3000 
    206 H206       -2.6981  -25.5616  -51.9709 H         1 UNK         0.0600 
    207 H207       -1.3220  -23.4522  -51.7639 H         1 UNK         0.0600 
    208 H208       -2.4598  -23.4334  -53.0991 H         1 UNK         0.0600 
    209 H209       -2.8128  -22.5214  -51.6418 H         1 UNK         0.0600 
    210 H210       -4.7545  -26.3980  -50.6497 H         1 UNK         0.3000 
    211 H211       -6.9301  -26.8530  -50.6170 H         1 UNK         0.0600 
    212 H212       -6.9800  -25.5456  -53.3909 H         1 UNK         0.0600 
    213 H213       -8.1387  -26.7103  -52.7684 H         1 UNK         0.0600 
    214 H214       -6.4778  -27.2022  -53.0593 H         1 UNK         0.0600 
    215 H215       -6.5357  -24.7872  -48.9815 H         1 UNK         0.3000 
    216 H216       -7.4145  -23.0819  -47.8862 H         1 UNK         0.0600 
    217 H217       -9.8423  -22.7382  -47.8588 H         1 UNK         0.0600 
    218 H218       -9.5034  -24.4599  -47.9163 H         1 UNK         0.0600 
    219 H219      -10.0390  -23.6153  -49.3684 H         1 UNK         0.0600 
    220 H220       -5.9310  -22.5388  -50.1666 H         1 UNK         0.3000 
    221 H221       -5.1349  -20.9927  -51.4341 H         1 UNK         0.0600 
    222 H222       -7.1461  -18.9907  -50.2899 H         1 UNK         0.0600 
    223 H223       -5.5940  -19.4009  -49.5576 H         1 UNK         0.0600 
    224 H224       -5.6475  -18.6162  -51.1268 H         1 UNK         0.0600 
    225 H225       -7.8327  -22.5039  -52.1865 H         1 UNK         0.3000 
    226 H226       -8.8060  -20.9244  -54.4232 H         1 UNK         0.0600 
    227 H227      -10.2037  -22.6342  -53.1844 H         1 UNK         0.0600 
    228 H228      -10.1592  -22.8858  -54.9237 H         1 UNK         0.0600 
    229 H229       -9.1942  -23.9081  -53.8729 H         1 UNK         0.0600 
    230 H230       -6.1313  -23.1324  -53.9122 H         1 UNK         0.3000 
    231 H231       -5.5213  -23.2143  -56.8426 H         1 UNK         0.0600 
    232 H232       -4.7023  -25.1968  -54.6557 H         1 UNK         0.0600 
    233 H233       -4.3398  -25.3166  -56.3721 H         1 UNK         0.0600 
    234 H234       -5.9988  -25.4639  -55.8195 H         1 UNK         0.0600 
    235 H235       -4.9766  -21.0681  -54.7833 H         1 UNK         0.3000 
    236 H236       -2.2043  -21.0871  -54.1006 H         1 UNK         0.0600 
    237 H237       -3.8229  -19.6741  -52.8975 H         1 UNK         0.0600 
    238 H238       -2.6126  -18.6455  -53.6350 H         1 UNK         0.0600 
    239 H239       -4.2065  -18.7812  -54.3689 H         1 UNK         0.0600 
    240 H240       -0.5318  -19.7460  -54.8975 H         1 UNK         0.3000 
    241 H241       -0.2744  -19.8528  -57.7699 H         1 UNK         0.0600 
    242 H242       -1.5571  -17.3097  -55.9167 H         1 UNK         0.3800 
    243 H243       -1.1120  -16.0209  -57.0038 H         1 UNK         0.3800 
    244 H244        1.5444  -20.7175  -56.4580 H         1 UNK         0.0800 
    245 H245        2.1192  -19.3289  -57.3213 H         1 UNK         0.0800 
    246 H246        0.6851  -20.5838  -53.8427 H         1 UNK         0.0800 
    247 H247        2.3434  -21.0908  -54.0374 H         1 UNK         0.0800 
@<TRIPOS>BOND
     1    1    2 1    
     2    1  127 1    
     3    1  128 1    
     4    1  129 1    
     5    2    3 2    
     6    2    4 am   BACKBONE|DICT|INTERRES
     7    4    5 1    
     8    4  130 1    
     9    5    6 1    
    10    5   65 1    
    11    5  131 1    
    12    6    7 1    
    13    6  132 1    
    14    6  133 1    
    15    7    8 1    
    16    8    9 1    
    17    8  134 1    
    18    8  135 1    
    19    9   10 ar   
    20    9   14 ar   
    21   10   11 ar   
    22   10  136 1    
    23   11   12 ar   
    24   11  126 1    
    25   12   13 ar   
    26   12  137 1    
    27   13   14 ar   
    28   13   15 1    
    29   14  138 1    
    30   15   16 1    
    31   15  139 1    
    32   15  140 1    
    33   16   17 1    
    34   17   18 1    
    35   17  141 1    
    36   17  142 1    
    37   18   19 1    
    38   18   67 1    
    39   18  143 1    
    40   19   20 am   BACKBONE|DICT|INTERRES
    41   19  144 1    
    42   20   21 2    
    43   20   22 1    
    44   22   23 1    
    45   22   24 1    
    46   22  145 1    
    47   23  146 1    
    48   23  147 1    
    49   23  148 1    
    50   24   25 am   BACKBONE|DICT|INTERRES
    51   24  149 1    
    52   25   26 2    
    53   25   27 1    
    54   27   28 1    
    55   27   29 1    
    56   27  150 1    
    57   28  151 1    
    58   28  152 1    
    59   28  153 1    
    60   29   30 am   BACKBONE|DICT|INTERRES
    61   29  154 1    
    62   30   31 2    
    63   30   32 1    
    64   32   33 1    
    65   32   34 1    
    66   32  155 1    
    67   33  156 1    
    68   33  157 1    
    69   33  158 1    
    70   34   35 am   BACKBONE|DICT|INTERRES
    71   34  159 1    
    72   35   36 2    
    73   35   37 1    
    74   37   38 1    
    75   37   39 1    
    76   37  160 1    
    77   38  161 1    
    78   38  162 1    
    79   38  163 1    
    80   39   40 am   BACKBONE|DICT|INTERRES
    81   39  164 1    
    82   40   41 2    
    83   40   42 1    
    84   42   43 1    
    85   42   44 1    
    86   42  165 1    
    87   43  166 1    
    88   43  167 1    
    89   43  168 1    
    90   44   45 am   BACKBONE|DICT|INTERRES
    91   44  169 1    
    92   45   46 2    
    93   45   47 1    
    94   47   48 1    
    95   47   49 1    
    96   47  170 1    
    97   48  171 1    
    98   48  172 1    
    99   48  173 1    
   100   49   50 am   BACKBONE|DICT|INTERRES
   101   49  174 1    
   102   50   51 2    
   103   50   52 1    
   104   52   53 1    
   105   52   54 1    
   106   52  175 1    
   107   53  176 1    
   108   53  177 1    
   109   53  178 1    
   110   54   55 am   BACKBONE|DICT|INTERRES
   111   54  179 1    
   112   55   56 2    
   113   55   57 1    
   114   57   58 1    
   115   57   59 1    
   116   57  180 1    
   117   58  181 1    
   118   58  182 1    
   119   58  183 1    
   120   59   60 am   BACKBONE|DICT|INTERRES
   121   59  184 1    
   122   60   61 2    
   123   60   62 1    
   124   62   63 1    
   125   62   64 1    
   126   62  185 1    
   127   63  186 1    
   128   63  187 1    
   129   63  188 1    
   130   64   65 am   BACKBONE|DICT|INTERRES
   131   64  189 1    
   132   65   66 2    
   133   67   68 2    
   134   67   69 am   BACKBONE|DICT|INTERRES
   135   69   70 1    
   136   69  190 1    
   137   70   71 1    
   138   70   72 1    
   139   70  191 1    
   140   71  192 1    
   141   71  193 1    
   142   71  194 1    
   143   72   73 2    
   144   72   74 am   BACKBONE|DICT|INTERRES
   145   74   75 1    
   146   74  195 1    
   147   75   76 1    
   148   75   77 1    
   149   75  196 1    
   150   76  197 1    
   151   76  198 1    
   152   76  199 1    
   153   77   78 2    
   154   77   79 am   BACKBONE|DICT|INTERRES
   155   79   80 1    
   156   79  200 1    
   157   80   81 1    
   158   80   82 1    
   159   80  201 1    
   160   81  202 1    
   161   81  203 1    
   162   81  204 1    
   163   82   83 2    
   164   82   84 am   BACKBONE|DICT|INTERRES
   165   84   85 1    
   166   84  205 1    
   167   85   86 1    
   168   85   87 1    
   169   85  206 1    
   170   86  207 1    
   171   86  208 1    
   172   86  209 1    
   173   87   88 2    
   174   87   89 am   BACKBONE|DICT|INTERRES
   175   89   90 1    
   176   89  210 1    
   177   90   91 1    
   178   90   92 1    
   179   90  211 1    
   180   91  212 1    
   181   91  213 1    
   182   91  214 1    
   183   92   93 2    
   184   92   94 am   BACKBONE|DICT|INTERRES
   185   94   95 1    
   186   94  215 1    
   187   95   96 1    
   188   95   97 1    
   189   95  216 1    
   190   96  217 1    
   191   96  218 1    
   192   96  219 1    
   193   97   98 2    
   194   97   99 am   BACKBONE|DICT|INTERRES
   195   99  100 1    
   196   99  220 1    
   197  100  101 1    
   198  100  102 1    
   199  100  221 1    
   200  101  222 1    
   201  101  223 1    
   202  101  224 1    
   203  102  103 2    
   204  102  104 am   BACKBONE|DICT|INTERRES
   205  104  105 1    
   206  104  225 1    
   207  105  106 1    
   208  105  107 1    
   209  105  226 1    
   210  106  227 1    
   211  106  228 1    
   212  106  229 1    
   213  107  108 2    
   214  107  109 am   BACKBONE|DICT|INTERRES
   215  109  110 1    
   216  109  230 1    
   217  110  111 1    
   218  110  112 1    
   219  110  231 1    
   220  111  232 1    
   221  111  233 1    
   222  111  234 1    
   223  112  113 2    
   224  112  114 am   BACKBONE|DICT|INTERRES
   225  114  115 1    
   226  114  235 1    
   227  115  116 1    
   228  115  117 1    
   229  115  236 1    
   230  116  237 1    
   231  116  238 1    
   232  116  239 1    
   233  117  118 2    
   234  117  119 am   BACKBONE|DICT|INTERRES
   235  119  120 1    
   236  119  240 1    
   237  120  121 1    
   238  120  124 1    
   239  120  241 1    
   240  121  122 am   BACKBONE|DICT|INTERRES
   241  121  123 2    
   242  122  242 1    
   243  122  243 1    
   244  124  125 1    
   245  124  244 1    
   246  124  245 1    
   247  125  126 1    
   248  126  246 1    
   249  126  247 1    
@<TRIPOS>SUBSTRUCTURE
     1 UNK         1 GROUP             0       ****    0 ROOT    
