@<TRIPOS>MOLECULE
3R540
247   249    1
SMALL
USER_CHARGES


@<TRIPOS>ATOM
      1 CA         -5.8608  -14.3472  -45.7292 C.3       0 UNK        -0.1800 
      2 C          -4.6585  -13.9666  -46.5815 C.2       0 UNK         0.5000 
      3 O          -4.8166  -13.2817  -47.5921 O.2       0 UNK        -0.5000 
      4 N          -3.4626  -14.4187  -46.1855 N.am      1 UNK        -0.5000 
      5 CA         -2.2018  -14.1520  -46.8822 C.3       1 UNK         0.1400 
      6 C6         -1.1033  -15.1749  -46.4872 C.3       23 UNK        -0.0398 
      7 S7         -0.0287  -15.6124  -47.8937 S.3       23 UNK        -0.2404 
      8 C8          0.0404  -17.4163  -47.6858 C.3       23 UNK        -0.0205 
      9 C9          0.6283  -18.1220  -48.8930 C.ar      23 UNK        -0.0193 
     10 C10        -0.1089  -18.2091  -50.0758 C.ar      23 UNK        -0.1150 
     11 C11         0.4024  -18.8894  -51.1825 C.ar      23 UNK        -0.0193 
     12 C12         1.6599  -19.4954  -51.0936 C.ar      23 UNK        -0.1150 
     13 C13         2.4054  -19.4287  -49.9112 C.ar      23 UNK        -0.0193 
     14 C14         1.8865  -18.7242  -48.8182 C.ar      23 UNK        -0.1150 
     15 C15         3.7772  -20.0996  -49.8507 C.3       23 UNK        -0.0205 
     16 S16         4.1767  -20.8709  -48.2439 S.3       23 UNK        -0.2404 
     17 C17         2.8342  -22.0960  -48.0781 C.3       23 UNK        -0.0398 
     18 CA          3.2175  -23.2620  -47.1333 C.3       11 UNK         0.1400 
     19 N           3.4449  -22.8013  -45.7583 N.am      11 UNK        -0.5000 
     20 C           4.1521  -23.4746  -44.8417 C.2       10 UNK         0.5000 
     21 O           4.7130  -24.5484  -45.0638 O.2       10 UNK        -0.5000 
     22 CA          4.2293  -22.8566  -43.4339 C.3       10 UNK         0.1400 
     23 CB          5.2611  -21.7192  -43.3964 C.3       10 UNK        -0.1800 
     24 N           2.9355  -22.3708  -42.9472 N.am      10 UNK        -0.5000 
     25 C           1.8847  -23.1571  -42.6688 C.2       9 UNK         0.5000 
     26 O           1.8942  -24.3817  -42.7943 O.2       9 UNK        -0.5000 
     27 CA          0.5964  -22.4636  -42.1881 C.3       9 UNK         0.1400 
     28 CB          0.6867  -22.1215  -40.6933 C.3       9 UNK        -0.1800 
     29 N           0.2861  -21.2528  -42.9443 N.am      9 UNK        -0.5000 
     30 C          -0.0244  -21.2217  -44.2475 C.2       8 UNK         0.5000 
     31 O          -0.1293  -22.2219  -44.9556 O.2       8 UNK        -0.5000 
     32 CA         -0.1735  -19.8297  -44.8826 C.3       8 UNK         0.1400 
     33 CB         -1.5489  -19.2228  -44.5713 C.3       8 UNK        -0.1800 
     34 N           0.8882  -18.9158  -44.4573 N.am      8 UNK        -0.5000 
     35 C           2.1911  -19.1142  -44.7086 C.2       7 UNK         0.5000 
     36 O           2.6271  -20.0733  -45.3423 O.2       7 UNK        -0.5000 
     37 CA          3.1726  -18.0928  -44.1184 C.3       7 UNK         0.1400 
     38 CB          3.2827  -16.8660  -45.0302 C.3       7 UNK        -0.1800 
     39 N           2.7801  -17.6791  -42.7723 N.am      7 UNK        -0.5000 
     40 C           2.8624  -18.4743  -41.6954 C.2       6 UNK         0.5000 
     41 O           3.3135  -19.6192  -41.7247 O.2       6 UNK        -0.5000 
     42 CA          2.2971  -17.9173  -40.3759 C.3       6 UNK         0.1400 
     43 CB          3.3219  -17.0030  -39.6883 C.3       6 UNK        -0.1800 
     44 N           1.0443  -17.1857  -40.5647 N.am      6 UNK        -0.5000 
     45 C          -0.0883  -17.7241  -41.0376 C.2       5 UNK         0.5000 
     46 O          -0.2140  -18.9182  -41.3068 O.2       5 UNK        -0.5000 
     47 CA         -1.2682  -16.7670  -41.2921 C.3       5 UNK         0.1400 
     48 CB         -2.2422  -16.7911  -40.1052 C.3       5 UNK        -0.1800 
     49 N          -0.8744  -15.3805  -41.5626 N.am      5 UNK        -0.5000 
     50 C          -0.1244  -14.9735  -42.5963 C.2       4 UNK         0.5000 
     51 O           0.3598  -15.7490  -43.4248 O.2       4 UNK        -0.5000 
     52 CA          0.0819  -13.4481  -42.7070 C.3       4 UNK         0.1400 
     53 CB          0.7357  -12.8592  -41.4379 C.3       4 UNK        -0.1800 
     54 N           0.7995  -13.0269  -43.9159 N.am      4 UNK        -0.5000 
     55 C           2.0947  -13.2011  -44.2257 C.2       3 UNK         0.5000 
     56 O           2.9051  -13.7623  -43.4872 O.2       3 UNK        -0.5000 
     57 CA          2.5775  -12.6394  -45.5846 C.3       3 UNK         0.1400 
     58 CB          3.4387  -13.6534  -46.3552 C.3       3 UNK        -0.1800 
     59 N           1.4768  -12.2263  -46.4564 N.am      3 UNK        -0.5000 
     60 C           0.9282  -11.0047  -46.5106 C.2       2 UNK         0.5000 
     61 O           1.3283  -10.0425  -45.8558 O.2       2 UNK        -0.5000 
     62 CA         -0.3058  -10.8507  -47.4260 C.3       2 UNK         0.1400 
     63 CB          0.1105  -10.3299  -48.8098 C.3       2 UNK        -0.1800 
     64 N          -1.0469  -12.1071  -47.5875 N.am      2 UNK        -0.5000 
     65 C          -1.7095  -12.7209  -46.5983 C.2       1 UNK         0.5000 
     66 O          -1.8450  -12.2420  -45.4694 O.2       1 UNK        -0.5000 
     67 C           2.1552  -24.3808  -47.2086 C.2       11 UNK         0.5000 
     68 O           2.1153  -25.0946  -48.2110 O.2       11 UNK        -0.5000 
     69 N           1.3100  -24.4973  -46.1711 N.am      12 UNK        -0.5000 
     70 CA          0.0974  -25.3212  -46.0934 C.3       12 UNK         0.1400 
     71 CB          0.4379  -26.8256  -46.1202 C.3       12 UNK        -0.1800 
     72 C          -0.9302  -24.8982  -47.1653 C.2       12 UNK         0.5000 
     73 O          -1.5034  -25.7413  -47.8579 O.2       12 UNK        -0.5000 
     74 N          -1.0997  -23.5788  -47.2992 N.am      13 UNK        -0.5000 
     75 CA         -1.8985  -22.9223  -48.3248 C.3       13 UNK         0.1400 
     76 CB         -1.1094  -21.7032  -48.8351 C.3       13 UNK        -0.1800 
     77 C          -3.2495  -22.4658  -47.7609 C.2       13 UNK         0.5000 
     78 O          -3.3344  -22.0987  -46.5867 O.2       13 UNK        -0.5000 
     79 N          -4.2700  -22.4364  -48.6286 N.am      14 UNK        -0.5000 
     80 CA         -5.5889  -21.8685  -48.3293 C.3       14 UNK         0.1400 
     81 CB         -6.5757  -22.2895  -49.4245 C.3       14 UNK        -0.1800 
     82 C          -5.5653  -20.3321  -48.1984 C.2       14 UNK         0.5000 
     83 O          -6.3946  -19.7728  -47.4802 O.2       14 UNK        -0.5000 
     84 N          -4.6131  -19.6893  -48.8919 N.am      15 UNK        -0.5000 
     85 CA         -4.2352  -18.2706  -48.8648 C.3       15 UNK         0.1400 
     86 CB         -3.8091  -17.8487  -47.4488 C.3       15 UNK        -0.1800 
     87 C          -5.2789  -17.2908  -49.4341 C.2       15 UNK         0.5000 
     88 O          -4.9197  -16.4320  -50.2389 O.2       15 UNK        -0.5000 
     89 N          -6.5394  -17.4228  -49.0065 N.am      16 UNK        -0.5000 
     90 CA         -7.6659  -16.6009  -49.4537 C.3       16 UNK         0.1400 
     91 CB         -8.7889  -16.6891  -48.4089 C.3       16 UNK        -0.1800 
     92 C          -8.1868  -17.0135  -50.8442 C.2       16 UNK         0.5000 
     93 O          -8.7701  -16.1866  -51.5469 O.2       16 UNK        -0.5000 
     94 N          -7.9731  -18.2836  -51.2075 N.am      17 UNK        -0.5000 
     95 CA         -8.2949  -18.8598  -52.5111 C.3       17 UNK         0.1400 
     96 CB         -8.5677  -20.3605  -52.3128 C.3       17 UNK        -0.1800 
     97 C          -7.1647  -18.6161  -53.5335 C.2       17 UNK         0.5000 
     98 O          -6.1322  -18.0295  -53.1990 O.2       17 UNK        -0.5000 
     99 N          -7.3872  -19.0742  -54.7724 N.am      18 UNK        -0.5000 
    100 CA        -6.4317  -19.0221  -55.8821 C.3       18 UNK         0.1400 
    101 CB        -7.1406  -19.5120  -57.1554 C.3       18 UNK        -0.1800 
    102 C         -5.1595  -19.8566  -55.6271 C.2       18 UNK         0.5000 
    103 O         -5.1696  -20.7630  -54.7919 O.2       18 UNK        -0.5000 
    104 N         -4.1010  -19.5687  -56.3984 N.am      19 UNK        -0.5000 
    105 CA        -2.7660  -20.1747  -56.2960 C.3       19 UNK         0.1400 
    106 CB        -1.8425  -19.5286  -57.3393 C.3       19 UNK        -0.1800 
    107 C         -2.7242  -21.7120  -56.4213 C.2       19 UNK         0.5000 
    108 O         -1.8013  -22.3357  -55.8979 O.2       19 UNK        -0.5000 
    109 N         -3.7388  -22.3071  -57.0635 N.am      20 UNK        -0.5000 
    110 CA        -3.9540  -23.7552  -57.1287 C.3       20 UNK         0.1400 
    111 CB        -5.1335  -24.0404  -58.0705 C.3       20 UNK        -0.1800 
    112 C         -4.1969  -24.4048  -55.7485 C.2       20 UNK         0.5000 
    113 O         -3.8835  -25.5821  -55.5709 O.2       20 UNK        -0.5000 
    114 N         -4.7178  -23.6245  -54.7914 N.am      21 UNK        -0.5000 
    115 CA        -4.9596  -24.0261  -53.4059 C.3       21 UNK         0.1400 
    116 CB        -6.2646  -23.3710  -52.9324 C.3       21 UNK        -0.1800 
    117 C         -3.7790  -23.6785  -52.4722 C.2       21 UNK         0.5000 
    118 O         -3.9135  -23.8163  -51.2538 O.2       21 UNK        -0.5000 
    119 N         -2.6473  -23.2410  -53.0410 N.am      22 UNK        -0.5000 
    120 CA        -1.3720  -23.0420  -52.3335 C.3       22 UNK         0.1400 
    121 C         -0.4098  -24.2612  -52.4457 C.2       22 UNK         0.5000 
    122 N         -0.7704  -25.3413  -53.1298 N.am      22 UNK        -0.7600 
    123 O          0.6839  -24.2346  -51.8897 O.2       22 UNK        -0.5000 
    124 C124       -0.6640  -21.7291  -52.7494 C.3       23 UNK        -0.0398 
    125 S125       -1.6765  -20.2446  -52.4347 S.3       23 UNK        -0.2404 
    126 C126       -0.4016  -18.9460  -52.4743 C.3       23 UNK        -0.0205 
    127 H127       -6.3622  -13.4507  -45.3646 H         1 UNK         0.0600 
    128 H128       -5.5735  -14.9511  -44.8682 H         1 UNK         0.0600 
    129 H129       -6.5724  -14.9206  -46.3234 H         1 UNK         0.0600 
    130 H130       -3.3907  -14.9275  -45.3168 H         1 UNK         0.3000 
    131 H131       -2.4043  -14.2428  -47.9523 H         1 UNK         0.0600 
    132 H132       -0.4737  -14.8165  -45.6737 H         1 UNK         0.0800 
    133 H133       -1.5595  -16.0854  -46.1004 H         1 UNK         0.0800 
    134 H134        0.6261  -17.6312  -46.7944 H         1 UNK         0.0800 
    135 H135       -0.9565  -17.8153  -47.5101 H         1 UNK         0.0800 
    136 H136       -1.0810  -17.7413  -50.1364 H         1 UNK         0.1150 
    137 H137        2.0613  -20.0183  -51.9502 H         1 UNK         0.1150 
    138 H138        2.4555  -18.6573  -47.9018 H         1 UNK         0.1150 
    139 H139        3.8614  -20.8622  -50.6266 H         1 UNK         0.0800 
    140 H140        4.5364  -19.3490  -50.0731 H         1 UNK         0.0800 
    141 H141        1.9390  -21.5861  -47.7169 H         1 UNK         0.0800 
    142 H142        2.5943  -22.4724  -49.0747 H         1 UNK         0.0800 
    143 H143        4.1493  -23.6948  -47.5040 H         1 UNK         0.0600 
    144 H144        3.0679  -21.8854  -45.5218 H         1 UNK         0.3000 
    145 H145        4.5678  -23.6373  -42.7495 H         1 UNK         0.0600 
    146 H146        5.3896  -21.3363  -42.3840 H         1 UNK         0.0600 
    147 H147        4.9667  -20.8869  -44.0356 H         1 UNK         0.0600 
    148 H148        6.2370  -22.0658  -43.7384 H         1 UNK         0.0600 
    149 H149        2.8617  -21.3740  -42.7762 H         1 UNK         0.3000 
    150 H150       -0.2299  -23.1639  -42.3274 H         1 UNK         0.0600 
    151 H151        0.9020  -23.0110  -40.1001 H         1 UNK         0.0600 
    152 H152       -0.2523  -21.7053  -40.3278 H         1 UNK         0.0600 
    153 H153        1.4734  -21.3931  -40.4936 H         1 UNK         0.0600 
    154 H154        0.3045  -20.3776  -42.4272 H         1 UNK         0.3000 
    155 H155       -0.0915  -19.9487  -45.9646 H         1 UNK         0.0600 
    156 H156       -2.3442  -19.8356  -44.9978 H         1 UNK         0.0600 
    157 H157       -1.6470  -18.2214  -44.9879 H         1 UNK         0.0600 
    158 H158       -1.7313  -19.1590  -43.4992 H         1 UNK         0.0600 
    159 H159        0.6176  -18.1012  -43.9225 H         1 UNK         0.3000 
    160 H160        4.1569  -18.5619  -44.0628 H         1 UNK         0.0600 
    161 H161        2.3276  -16.3492  -45.1273 H         1 UNK         0.0600 
    162 H162        3.6056  -17.1502  -46.0326 H         1 UNK         0.0600 
    163 H163        4.0118  -16.1559  -44.6409 H         1 UNK         0.0600 
    164 H164        2.3436  -16.7702  -42.6869 H         1 UNK         0.3000 
    165 H165        2.0954  -18.7645  -39.7168 H         1 UNK         0.0600 
    166 H166        2.9620  -16.6690  -38.7150 H         1 UNK         0.0600 
    167 H167        4.2636  -17.5281  -39.5230 H         1 UNK         0.0600 
    168 H168        3.5397  -16.1181  -40.2880 H         1 UNK         0.0600 
    169 H169        1.0592  -16.1954  -40.3723 H         1 UNK         0.3000 
    170 H170       -1.7979  -17.1332  -42.1733 H         1 UNK         0.0600 
    171 H171       -2.5767  -17.8080  -39.8946 H         1 UNK         0.0600 
    172 H172       -1.7794  -16.4031  -39.1969 H         1 UNK         0.0600 
    173 H173       -3.1315  -16.1953  -40.3114 H         1 UNK         0.0600 
    174 H174       -1.2408  -14.6867  -40.9271 H         1 UNK         0.3000 
    175 H175       -0.9137  -13.0115  -42.7993 H         1 UNK         0.0600 
    176 H176        1.6820  -13.3465  -41.2015 H         1 UNK         0.0600 
    177 H177        0.9290  -11.7926  -41.5535 H         1 UNK         0.0600 
    178 H178        0.0884  -12.9717  -40.5678 H         1 UNK         0.0600 
    179 H179        0.2198  -12.5597  -44.6003 H         1 UNK         0.3000 
    180 H180        3.2048  -11.7746  -45.3595 H         1 UNK         0.0600 
    181 H181        4.2897  -13.9865  -45.7604 H         1 UNK         0.0600 
    182 H182        3.8405  -13.2113  -47.2671 H         1 UNK         0.0600 
    183 H183        2.8629  -14.5338  -46.6409 H         1 UNK         0.0600 
    184 H184        1.0805  -12.9497  -47.0387 H         1 UNK         0.3000 
    185 H185       -0.9709  -10.1159  -46.9673 H         1 UNK         0.0600 
    186 H186        0.6440   -9.3821  -48.7256 H         1 UNK         0.0600 
    187 H187        0.7679  -11.0320  -49.3242 H         1 UNK         0.0600 
    188 H188       -0.7591  -10.1565  -49.4441 H         1 UNK         0.0600 
    189 H189       -0.9693  -12.5627  -48.4861 H         1 UNK         0.3000 
    190 H190        1.4166  -23.8334  -45.4150 H         1 UNK         0.3000 
    191 H191       -0.3583  -25.1039  -45.1261 H         1 UNK         0.0600 
    192 H192       -0.4516  -27.4277  -45.9321 H         1 UNK         0.0600 
    193 H193        1.1686  -27.0762  -45.3511 H         1 UNK         0.0600 
    194 H194        0.8433  -27.1366  -47.0832 H         1 UNK         0.0600 
    195 H195       -0.6859  -22.9745  -46.5935 H         1 UNK         0.3000 
    196 H196       -2.0767  -23.6095  -49.1533 H         1 UNK         0.0600 
    197 H197       -0.8664  -21.0112  -48.0283 H         1 UNK         0.0600 
    198 H198       -0.1742  -22.0056  -49.3070 H         1 UNK         0.0600 
    199 H199       -1.6804  -21.1444  -49.5764 H         1 UNK         0.0600 
    200 H200       -4.1365  -22.8115  -49.5645 H         1 UNK         0.3000 
    201 H201       -5.9344  -22.2783  -47.3779 H         1 UNK         0.0600 
    202 H202       -7.5737  -21.8933  -49.2323 H         1 UNK         0.0600 
    203 H203       -6.6604  -23.3747  -49.4828 H         1 UNK         0.0600 
    204 H204       -6.2550  -21.9228  -50.3987 H         1 UNK         0.0600 
    205 H205       -4.0314  -20.2640  -49.4841 H         1 UNK         0.3000 
    206 H206       -3.3551  -18.1976  -49.5052 H         1 UNK         0.0600 
    207 H207       -3.0939  -18.5538  -47.0283 H         1 UNK         0.0600 
    208 H208       -3.3377  -16.8685  -47.4751 H         1 UNK         0.0600 
    209 H209       -4.6560  -17.7874  -46.7645 H         1 UNK         0.0600 
    210 H210       -6.7330  -18.1656  -48.3385 H         1 UNK         0.3000 
    211 H211       -7.3385  -15.5607  -49.5155 H         1 UNK         0.0600 
    212 H212       -9.1494  -17.7120  -48.2919 H         1 UNK         0.0600 
    213 H213       -9.6400  -16.0706  -48.6965 H         1 UNK         0.0600 
    214 H214       -8.4488  -16.3401  -47.4338 H         1 UNK         0.0600 
    215 H215       -7.4379  -18.8640  -50.5805 H         1 UNK         0.3000 
    216 H216       -9.2024  -18.3925  -52.8991 H         1 UNK         0.0600 
    217 H217       -9.3920  -20.5208  -51.6175 H         1 UNK         0.0600 
    218 H218       -7.6941  -20.8711  -51.9131 H         1 UNK         0.0600 
    219 H219       -8.8379  -20.8515  -53.2481 H         1 UNK         0.0600 
    220 H220       -8.2505  -19.5625  -54.9580 H         1 UNK         0.3000 
    221 H221       -6.1346  -17.9805  -56.0206 H         1 UNK         0.0600 
    222 H222       -6.4851  -19.4462  -58.0247 H         1 UNK         0.0600 
    223 H223       -7.4591  -20.5513  -57.0632 H         1 UNK         0.0600 
    224 H224       -8.0224  -18.9090  -57.3732 H         1 UNK         0.0600 
    225 H225       -4.1928  -18.8287  -57.0794 H         1 UNK         0.3000 
    226 H226       -2.3797  -19.9284  -55.3060 H         1 UNK         0.0600 
    227 H227       -1.7686  -18.4514  -57.1890 H         1 UNK         0.0600 
    228 H228       -0.8316  -19.9332  -57.2715 H         1 UNK         0.0600 
    229 H229       -2.1993  -19.7041  -58.3550 H         1 UNK         0.0600 
    230 H230       -4.4579  -21.7223  -57.4624 H         1 UNK         0.3000 
    231 H231       -3.0562  -24.2095  -57.5529 H         1 UNK         0.0600 
    232 H232       -5.3085  -25.1131  -58.1639 H         1 UNK         0.0600 
    233 H233       -4.9413  -23.6556  -59.0722 H         1 UNK         0.0600 
    234 H234       -6.0568  -23.5873  -57.7068 H         1 UNK         0.0600 
    235 H235       -4.9044  -22.6454  -54.9955 H         1 UNK         0.3000 
    236 H236       -5.0963  -25.1082  -53.3586 H         1 UNK         0.0600 
    237 H237       -7.0828  -23.5664  -53.6256 H         1 UNK         0.0600 
    238 H238       -6.5667  -23.7608  -51.9607 H         1 UNK         0.0600 
    239 H239       -6.1514  -22.2914  -52.8425 H         1 UNK         0.0600 
    240 H240       -2.6140  -23.1155  -54.0449 H         1 UNK         0.3000 
    241 H241       -1.5782  -22.9535  -51.2699 H         1 UNK         0.0600 
    242 H242       -1.6632  -25.3865  -53.5950 H         1 UNK         0.3800 
    243 H243       -0.1364  -26.1228  -53.1867 H         1 UNK         0.3800 
    244 H244       -0.3874  -21.7518  -53.8035 H         1 UNK         0.0800 
    245 H245        0.2680  -21.6259  -52.1940 H         1 UNK         0.0800 
    246 H246       -0.8898  -17.9840  -52.6371 H         1 UNK         0.0800 
    247 H247        0.2546  -19.1003  -53.3322 H         1 UNK         0.0800 
@<TRIPOS>BOND
     1    1    2 1    
     2    1  127 1    
     3    1  128 1    
     4    1  129 1    
     5    2    3 2    
     6    2    4 am   BACKBONE|DICT|INTERRES
     7    4    5 1    
     8    4  130 1    
     9    5    6 1    
    10    5   65 1    
    11    5  131 1    
    12    6    7 1    
    13    6  132 1    
    14    6  133 1    
    15    7    8 1    
    16    8    9 1    
    17    8  134 1    
    18    8  135 1    
    19    9   10 ar   
    20    9   14 ar   
    21   10   11 ar   
    22   10  136 1    
    23   11   12 ar   
    24   11  126 1    
    25   12   13 ar   
    26   12  137 1    
    27   13   14 ar   
    28   13   15 1    
    29   14  138 1    
    30   15   16 1    
    31   15  139 1    
    32   15  140 1    
    33   16   17 1    
    34   17   18 1    
    35   17  141 1    
    36   17  142 1    
    37   18   19 1    
    38   18   67 1    
    39   18  143 1    
    40   19   20 am   BACKBONE|DICT|INTERRES
    41   19  144 1    
    42   20   21 2    
    43   20   22 1    
    44   22   23 1    
    45   22   24 1    
    46   22  145 1    
    47   23  146 1    
    48   23  147 1    
    49   23  148 1    
    50   24   25 am   BACKBONE|DICT|INTERRES
    51   24  149 1    
    52   25   26 2    
    53   25   27 1    
    54   27   28 1    
    55   27   29 1    
    56   27  150 1    
    57   28  151 1    
    58   28  152 1    
    59   28  153 1    
    60   29   30 am   BACKBONE|DICT|INTERRES
    61   29  154 1    
    62   30   31 2    
    63   30   32 1    
    64   32   33 1    
    65   32   34 1    
    66   32  155 1    
    67   33  156 1    
    68   33  157 1    
    69   33  158 1    
    70   34   35 am   BACKBONE|DICT|INTERRES
    71   34  159 1    
    72   35   36 2    
    73   35   37 1    
    74   37   38 1    
    75   37   39 1    
    76   37  160 1    
    77   38  161 1    
    78   38  162 1    
    79   38  163 1    
    80   39   40 am   BACKBONE|DICT|INTERRES
    81   39  164 1    
    82   40   41 2    
    83   40   42 1    
    84   42   43 1    
    85   42   44 1    
    86   42  165 1    
    87   43  166 1    
    88   43  167 1    
    89   43  168 1    
    90   44   45 am   BACKBONE|DICT|INTERRES
    91   44  169 1    
    92   45   46 2    
    93   45   47 1    
    94   47   48 1    
    95   47   49 1    
    96   47  170 1    
    97   48  171 1    
    98   48  172 1    
    99   48  173 1    
   100   49   50 am   BACKBONE|DICT|INTERRES
   101   49  174 1    
   102   50   51 2    
   103   50   52 1    
   104   52   53 1    
   105   52   54 1    
   106   52  175 1    
   107   53  176 1    
   108   53  177 1    
   109   53  178 1    
   110   54   55 am   BACKBONE|DICT|INTERRES
   111   54  179 1    
   112   55   56 2    
   113   55   57 1    
   114   57   58 1    
   115   57   59 1    
   116   57  180 1    
   117   58  181 1    
   118   58  182 1    
   119   58  183 1    
   120   59   60 am   BACKBONE|DICT|INTERRES
   121   59  184 1    
   122   60   61 2    
   123   60   62 1    
   124   62   63 1    
   125   62   64 1    
   126   62  185 1    
   127   63  186 1    
   128   63  187 1    
   129   63  188 1    
   130   64   65 am   BACKBONE|DICT|INTERRES
   131   64  189 1    
   132   65   66 2    
   133   67   68 2    
   134   67   69 am   BACKBONE|DICT|INTERRES
   135   69   70 1    
   136   69  190 1    
   137   70   71 1    
   138   70   72 1    
   139   70  191 1    
   140   71  192 1    
   141   71  193 1    
   142   71  194 1    
   143   72   73 2    
   144   72   74 am   BACKBONE|DICT|INTERRES
   145   74   75 1    
   146   74  195 1    
   147   75   76 1    
   148   75   77 1    
   149   75  196 1    
   150   76  197 1    
   151   76  198 1    
   152   76  199 1    
   153   77   78 2    
   154   77   79 am   BACKBONE|DICT|INTERRES
   155   79   80 1    
   156   79  200 1    
   157   80   81 1    
   158   80   82 1    
   159   80  201 1    
   160   81  202 1    
   161   81  203 1    
   162   81  204 1    
   163   82   83 2    
   164   82   84 am   BACKBONE|DICT|INTERRES
   165   84   85 1    
   166   84  205 1    
   167   85   86 1    
   168   85   87 1    
   169   85  206 1    
   170   86  207 1    
   171   86  208 1    
   172   86  209 1    
   173   87   88 2    
   174   87   89 am   BACKBONE|DICT|INTERRES
   175   89   90 1    
   176   89  210 1    
   177   90   91 1    
   178   90   92 1    
   179   90  211 1    
   180   91  212 1    
   181   91  213 1    
   182   91  214 1    
   183   92   93 2    
   184   92   94 am   BACKBONE|DICT|INTERRES
   185   94   95 1    
   186   94  215 1    
   187   95   96 1    
   188   95   97 1    
   189   95  216 1    
   190   96  217 1    
   191   96  218 1    
   192   96  219 1    
   193   97   98 2    
   194   97   99 am   BACKBONE|DICT|INTERRES
   195   99  100 1    
   196   99  220 1    
   197  100  101 1    
   198  100  102 1    
   199  100  221 1    
   200  101  222 1    
   201  101  223 1    
   202  101  224 1    
   203  102  103 2    
   204  102  104 am   BACKBONE|DICT|INTERRES
   205  104  105 1    
   206  104  225 1    
   207  105  106 1    
   208  105  107 1    
   209  105  226 1    
   210  106  227 1    
   211  106  228 1    
   212  106  229 1    
   213  107  108 2    
   214  107  109 am   BACKBONE|DICT|INTERRES
   215  109  110 1    
   216  109  230 1    
   217  110  111 1    
   218  110  112 1    
   219  110  231 1    
   220  111  232 1    
   221  111  233 1    
   222  111  234 1    
   223  112  113 2    
   224  112  114 am   BACKBONE|DICT|INTERRES
   225  114  115 1    
   226  114  235 1    
   227  115  116 1    
   228  115  117 1    
   229  115  236 1    
   230  116  237 1    
   231  116  238 1    
   232  116  239 1    
   233  117  118 2    
   234  117  119 am   BACKBONE|DICT|INTERRES
   235  119  120 1    
   236  119  240 1    
   237  120  121 1    
   238  120  124 1    
   239  120  241 1    
   240  121  122 am   BACKBONE|DICT|INTERRES
   241  121  123 2    
   242  122  242 1    
   243  122  243 1    
   244  124  125 1    
   245  124  244 1    
   246  124  245 1    
   247  125  126 1    
   248  126  246 1    
   249  126  247 1    
@<TRIPOS>SUBSTRUCTURE
     1 UNK         1 GROUP             0       ****    0 ROOT    
