@<TRIPOS>MOLECULE
3R540
247   249    1
SMALL
USER_CHARGES


@<TRIPOS>ATOM
      1 CA         -0.1164  -12.8363  -49.5720 C.3       0 UNK        -0.1800 
      2 C           1.4010  -12.7700  -49.6865 C.2       0 UNK         0.5000 
      3 O           1.9408  -11.7716  -50.1620 O.2       0 UNK        -0.5000 
      4 N           2.0880  -13.8301  -49.2426 N.am      1 UNK        -0.5000 
      5 CA          3.5557  -13.9399  -49.2154 C.3       1 UNK         0.1400 
      6 C6          4.0214  -15.4168  -49.1423 C.3       23 UNK        -0.0398 
      7 S7          3.4821  -16.4124  -50.5773 S.3       23 UNK        -0.2404 
      8 C8          1.9711  -17.1787  -49.9084 C.3       23 UNK        -0.0205 
      9 C9          1.2514  -18.0831  -50.8972 C.ar      23 UNK        -0.0193 
     10 C10         0.9194  -17.6252  -52.1751 C.ar      23 UNK        -0.1150 
     11 C11         0.2022  -18.4393  -53.0537 C.ar      23 UNK        -0.0193 
     12 C12        -0.1933  -19.7150  -52.6430 C.ar      23 UNK        -0.1150 
     13 C13         0.1239  -20.1893  -51.3662 C.ar      23 UNK        -0.0193 
     14 C14         0.8507  -19.3622  -50.5008 C.ar      23 UNK        -0.1150 
     15 C15        -0.3745  -21.5754  -50.9563 C.3       23 UNK        -0.0205 
     16 S16         0.6577  -22.4553  -49.7342 S.3       23 UNK        -0.2404 
     17 C17        -0.1071  -21.9738  -48.1458 C.3       23 UNK        -0.0398 
     18 CA          0.3310  -22.9171  -46.9934 C.3       11 UNK         0.1400 
     19 N           0.6755  -22.1834  -45.7667 N.am      11 UNK        -0.5000 
     20 C           1.3842  -22.6963  -44.7488 C.2       10 UNK         0.5000 
     21 O           1.7824  -23.8611  -44.7172 O.2       10 UNK        -0.5000 
     22 CA          1.6631  -21.7671  -43.5527 C.3       10 UNK         0.1400 
     23 CB          2.7644  -20.7482  -43.8834 C.3       10 UNK        -0.1800 
     24 N           0.4573  -21.0682  -43.1119 N.am      10 UNK        -0.5000 
     25 C          -0.5730  -21.6626  -42.4946 C.2       9 UNK         0.5000 
     26 O          -0.5666  -22.8420  -42.1435 O.2       9 UNK        -0.5000 
     27 CA         -1.8367  -20.8126  -42.2593 C.3       9 UNK         0.1400 
     28 CB         -1.7559  -20.0740  -40.9153 C.3       9 UNK        -0.1800 
     29 N          -2.0954  -19.8551  -43.3379 N.am      9 UNK        -0.5000 
     30 C          -2.3692  -20.2029  -44.6036 C.2       8 UNK         0.5000 
     31 O          -2.4704  -21.3670  -44.9852 O.2       8 UNK        -0.5000 
     32 CA         -2.4983  -19.0706  -45.6349 C.3       8 UNK         0.1400 
     33 CB         -3.9042  -18.4546  -45.6091 C.3       8 UNK        -0.1800 
     34 N          -1.4869  -18.0284  -45.4666 N.am      8 UNK        -0.5000 
     35 C          -0.1713  -18.2251  -45.6350 C.2       7 UNK         0.5000 
     36 O           0.3118  -19.2933  -46.0083 O.2       7 UNK        -0.5000 
     37 CA          0.7644  -17.0564  -45.2779 C.3       7 UNK         0.1400 
     38 CB          0.8050  -16.0079  -46.3970 C.3       7 UNK        -0.1800 
     39 N           0.3873  -16.4073  -44.0272 N.am      7 UNK        -0.5000 
     40 C           0.3960  -16.9973  -42.8254 C.2       6 UNK         0.5000 
     41 O           0.7700  -18.1536  -42.6305 O.2       6 UNK        -0.5000 
     42 CA         -0.1509  -16.1631  -41.6562 C.3       6 UNK         0.1400 
     43 CB          0.9195  -15.1949  -41.1304 C.3       6 UNK        -0.1800 
     44 N          -1.3489  -15.4135  -42.0379 N.am      6 UNK        -0.5000 
     45 C          -2.5372  -15.9738  -42.3046 C.2       5 UNK         0.5000 
     46 O          -2.7534  -17.1836  -42.2382 O.2       5 UNK        -0.5000 
     47 CA         -3.6615  -15.0252  -42.7577 C.3       5 UNK         0.1400 
     48 CB         -4.3033  -14.3259  -41.5500 C.3       5 UNK        -0.1800 
     49 N          -3.1992  -14.0189  -43.7148 N.am      5 UNK        -0.5000 
     50 C          -2.7804  -14.2987  -44.9565 C.2       4 UNK         0.5000 
     51 O          -2.7483  -15.4338  -45.4290 O.2       4 UNK        -0.5000 
     52 CA         -2.2610  -13.1186  -45.7968 C.3       4 UNK         0.1400 
     53 CB         -3.4207  -12.4007  -46.5021 C.3       4 UNK        -0.1800 
     54 N          -1.4635  -12.1444  -45.0433 N.am      4 UNK        -0.5000 
     55 C          -0.3416  -12.4404  -44.3748 C.2       3 UNK         0.5000 
     56 O           0.0699  -13.5893  -44.2007 O.2       3 UNK        -0.5000 
     57 CA          0.4902  -11.2659  -43.8310 C.3       3 UNK         0.1400 
     58 CB          0.4124  -11.2029  -42.2982 C.3       3 UNK        -0.1800 
     59 N           1.8817  -11.4506  -44.2438 N.am      3 UNK        -0.5000 
     60 C           2.2947  -11.3132  -45.5104 C.2       2 UNK         0.5000 
     61 O           1.6166  -10.7669  -46.3838 O.2       2 UNK        -0.5000 
     62 CA          3.6371  -11.9529  -45.9042 C.3       2 UNK         0.1400 
     63 CB          4.3076  -12.7860  -44.7909 C.3       2 UNK        -0.1800 
     64 N           3.3470  -12.8016  -47.0520 N.am      2 UNK        -0.5000 
     65 C           4.1710  -13.1224  -48.0543 C.2       1 UNK         0.5000 
     66 O           5.3591  -12.8003  -48.0936 O.2       1 UNK        -0.5000 
     67 C          -0.6778  -24.0671  -46.7645 C.2       11 UNK         0.5000 
     68 O          -0.7509  -24.9819  -47.5869 O.2       11 UNK        -0.5000 
     69 N          -1.3987  -24.0476  -45.6333 N.am      12 UNK        -0.5000 
     70 CA         -2.3067  -25.1084  -45.1881 C.3       12 UNK         0.1400 
     71 CB         -3.0229  -24.6700  -43.9033 C.3       12 UNK        -0.1800 
     72 C          -1.6148  -26.4706  -44.9854 C.2       12 UNK         0.5000 
     73 O          -2.2717  -27.5020  -45.1249 O.2       12 UNK        -0.5000 
     74 N          -0.2960  -26.4650  -44.7362 N.am      13 UNK        -0.5000 
     75 CA          0.5526  -27.6596  -44.7000 C.3       13 UNK         0.1400 
     76 CB          1.9437  -27.2696  -44.1794 C.3       13 UNK        -0.1800 
     77 C           0.6680  -28.3725  -46.0655 C.2       13 UNK         0.5000 
     78 O           0.9236  -29.5765  -46.0965 O.2       13 UNK        -0.5000 
     79 N           0.4528  -27.6299  -47.1605 N.am      14 UNK        -0.5000 
     80 CA          0.3860  -28.1316  -48.5338 C.3       14 UNK         0.1400 
     81 CB          1.1746  -27.1715  -49.4422 C.3       14 UNK        -0.1800 
     82 C          -1.0723  -28.2829  -49.0194 C.2       14 UNK         0.5000 
     83 O          -1.2839  -28.5492  -50.2032 O.2       14 UNK        -0.5000 
     84 N          -2.0471  -28.1030  -48.1119 N.am      15 UNK        -0.5000 
     85 CA         -3.4974  -28.1227  -48.3362 C.3       15 UNK         0.1400 
     86 CB         -3.9723  -29.5315  -48.7500 C.3       15 UNK        -0.1800 
     87 C          -3.9834  -27.0110  -49.2926 C.2       15 UNK         0.5000 
     88 O          -4.9403  -27.2158  -50.0422 O.2       15 UNK        -0.5000 
     89 N          -3.3176  -25.8522  -49.2430 N.am      16 UNK        -0.5000 
     90 CA         -3.6167  -24.6598  -50.0317 C.3       16 UNK         0.1400 
     91 CB         -2.4465  -24.4361  -51.0033 C.3       16 UNK        -0.1800 
     92 C          -3.8307  -23.4557  -49.0959 C.2       16 UNK         0.5000 
     93 O          -3.7766  -23.6062  -47.8748 O.2       16 UNK        -0.5000 
     94 N          -4.0742  -22.2743  -49.6713 N.am      17 UNK        -0.5000 
     95 CA         -4.2080  -21.0153  -48.9460 C.3       17 UNK         0.1400 
     96 CB         -5.6632  -20.8125  -48.4937 C.3       17 UNK        -0.1800 
     97 C          -3.7427  -19.8736  -49.8548 C.2       17 UNK         0.5000 
     98 O          -3.9864  -19.9214  -51.0633 O.2       17 UNK        -0.5000 
     99 N          -3.0858  -18.8720  -49.2582 N.am      18 UNK        -0.5000 
    100 CA        -2.5988  -17.6718  -49.9355 C.3       18 UNK         0.1400 
    101 CB        -1.7608  -16.8467  -48.9482 C.3       18 UNK        -0.1800 
    102 C         -3.7548  -16.8346  -50.5094 C.2       18 UNK         0.5000 
    103 O         -4.8440  -16.8128  -49.9311 O.2       18 UNK        -0.5000 
    104 N         -3.5009  -16.1971  -51.6578 N.am      19 UNK        -0.5000 
    105 CA        -4.4315  -15.4670  -52.5295 C.3       19 UNK         0.1400 
    106 CB        -5.1314  -14.3086  -51.7927 C.3       19 UNK        -0.1800 
    107 C         -5.4451  -16.3802  -53.2499 C.2       19 UNK         0.5000 
    108 O         -5.6496  -16.2194  -54.4529 O.2       19 UNK        -0.5000 
    109 N         -6.0432  -17.3285  -52.5184 N.am      20 UNK        -0.5000 
    110 CA        -7.0382  -18.2821  -53.0046 C.3       20 UNK         0.1400 
    111 CB        -7.6631  -19.0122  -51.8063 C.3       20 UNK        -0.1800 
    112 C         -6.4672  -19.2882  -54.0194 C.2       20 UNK         0.5000 
    113 O         -7.0553  -19.4744  -55.0855 O.2       20 UNK        -0.5000 
    114 N         -5.3292  -19.9108  -53.6816 N.am      21 UNK        -0.5000 
    115 CA        -4.6700  -20.9205  -54.5164 C.3       21 UNK         0.1400 
    116 CB        -3.7934  -21.8129  -53.6241 C.3       21 UNK        -0.1800 
    117 C         -3.8397  -20.3241  -55.6701 C.2       21 UNK         0.5000 
    118 O         -3.3858  -21.0760  -56.5336 O.2       21 UNK        -0.5000 
    119 N         -3.6361  -19.0013  -55.6619 N.am      22 UNK        -0.5000 
    120 CA        -2.7994  -18.2708  -56.6287 C.3       22 UNK         0.1400 
    121 C         -3.4447  -18.0689  -58.0314 C.2       22 UNK         0.5000 
    122 N         -4.7250  -18.3619  -58.2255 N.am      22 UNK        -0.7600 
    123 O         -2.7677  -17.6433  -58.9634 O.2       22 UNK        -0.5000 
    124 C124       -2.2800  -16.9197  -56.0636 C.3       23 UNK        -0.0398 
    125 S125       -1.7276  -16.9872  -54.3253 S.3       23 UNK        -0.2404 
    126 C126       -0.1811  -17.9289  -54.4317 C.3       23 UNK        -0.0205 
    127 H127       -0.4437  -13.7163  -49.0185 H         1 UNK         0.0600 
    128 H128       -0.5679  -12.8679  -50.5635 H         1 UNK         0.0600 
    129 H129       -0.4915  -11.9548  -49.0519 H         1 UNK         0.0600 
    130 H130        1.5845  -14.6256  -48.8843 H         1 UNK         0.3000 
    131 H131        3.9456  -13.5131  -50.1422 H         1 UNK         0.0600 
    132 H132        5.1117  -15.4641  -49.1163 H         1 UNK         0.0800 
    133 H133        3.6812  -15.8878  -48.2184 H         1 UNK         0.0800 
    134 H134        2.2326  -17.7341  -49.0063 H         1 UNK         0.0800 
    135 H135        1.2713  -16.3983  -49.6164 H         1 UNK         0.0800 
    136 H136        1.2055  -16.6286  -52.4811 H         1 UNK         0.1150 
    137 H137       -0.7647  -20.3350  -53.3192 H         1 UNK         0.1150 
    138 H138        1.0976  -19.6988  -49.5067 H         1 UNK         0.1150 
    139 H139       -1.3955  -21.4910  -50.5885 H         1 UNK         0.0800 
    140 H140       -0.4237  -22.2085  -51.8434 H         1 UNK         0.0800 
    141 H141       -1.1929  -21.9359  -48.2452 H         1 UNK         0.0800 
    142 H142        0.2020  -20.9517  -47.9395 H         1 UNK         0.0800 
    143 H143        1.2590  -23.4080  -47.2955 H         1 UNK         0.0600 
    144 H144        0.4071  -21.2037  -45.7302 H         1 UNK         0.3000 
    145 H145        2.0193  -22.3858  -42.7263 H         1 UNK         0.0600 
    146 H146        2.9986  -20.1286  -43.0175 H         1 UNK         0.0600 
    147 H147        3.6841  -21.2524  -44.1821 H         1 UNK         0.0600 
    148 H148        2.4756  -20.0843  -44.6979 H         1 UNK         0.0600 
    149 H149        0.4064  -20.0725  -43.2981 H         1 UNK         0.3000 
    150 H150       -2.6863  -21.4974  -42.2165 H         1 UNK         0.0600 
    151 H151       -1.5904  -20.7733  -40.0948 H         1 UNK         0.0600 
    152 H152       -2.6814  -19.5384  -40.7036 H         1 UNK         0.0600 
    153 H153       -0.9399  -19.3517  -40.9002 H         1 UNK         0.0600 
    154 H154       -2.0783  -18.8715  -43.0873 H         1 UNK         0.3000 
    155 H155       -2.3417  -19.5187  -46.6164 H         1 UNK         0.0600 
    156 H156       -4.0999  -17.9436  -44.6657 H         1 UNK         0.0600 
    157 H157       -4.0347  -17.7298  -46.4130 H         1 UNK         0.0600 
    158 H158       -4.6707  -19.2207  -45.7330 H         1 UNK         0.0600 
    159 H159       -1.8234  -17.1048  -45.2072 H         1 UNK         0.3000 
    160 H160        1.7705  -17.4621  -45.1537 H         1 UNK         0.0600 
    161 H161        1.5058  -15.2070  -46.1607 H         1 UNK         0.0600 
    162 H162       -0.1736  -15.5593  -46.5677 H         1 UNK         0.0600 
    163 H163        1.1292  -16.4623  -47.3288 H         1 UNK         0.0600 
    164 H164        0.1084  -15.4302  -44.0862 H         1 UNK         0.3000 
    165 H165       -0.4187  -16.8475  -40.8485 H         1 UNK         0.0600 
    166 H166        0.5445  -14.6066  -40.2929 H         1 UNK         0.0600 
    167 H167        1.7957  -15.7407  -40.7784 H         1 UNK         0.0600 
    168 H168        1.2555  -14.5043  -41.9042 H         1 UNK         0.0600 
    169 H169       -1.2366  -14.4213  -42.1837 H         1 UNK         0.3000 
    170 H170       -4.4280  -15.6303  -43.2469 H         1 UNK         0.0600 
    171 H171       -3.5942  -13.6782  -41.0332 H         1 UNK         0.0600 
    172 H172       -5.1546  -13.7167  -41.8543 H         1 UNK         0.0600 
    173 H173       -4.6695  -15.0556  -40.8265 H         1 UNK         0.0600 
    174 H174       -3.1805  -13.0591  -43.4032 H         1 UNK         0.3000 
    175 H175       -1.6115  -13.5369  -46.5682 H         1 UNK         0.0600 
    176 H176       -3.0529  -11.6407  -47.1918 H         1 UNK         0.0600 
    177 H177       -4.0875  -11.9145  -45.7890 H         1 UNK         0.0600 
    178 H178       -4.0181  -13.1033  -47.0850 H         1 UNK         0.0600 
    179 H179       -1.7324  -11.1758  -45.1400 H         1 UNK         0.3000 
    180 H180        0.1127  -10.3262  -44.2399 H         1 UNK         0.0600 
    181 H181        0.7899  -12.1141  -41.8338 H         1 UNK         0.0600 
    182 H182       -0.6172  -11.0666  -41.9652 H         1 UNK         0.0600 
    183 H183        0.9927  -10.3657  -41.9100 H         1 UNK         0.0600 
    184 H184        2.4748  -11.9510  -43.5984 H         1 UNK         0.3000 
    185 H185        4.3077  -11.1456  -46.2051 H         1 UNK         0.0600 
    186 H186        3.6696  -13.6059  -44.4572 H         1 UNK         0.0600 
    187 H187        5.2438  -13.2213  -45.1407 H         1 UNK         0.0600 
    188 H188        4.5493  -12.1690  -43.9248 H         1 UNK         0.0600 
    189 H189        2.3719  -13.0438  -47.1554 H         1 UNK         0.3000 
    190 H190       -1.3611  -23.2147  -45.0585 H         1 UNK         0.3000 
    191 H191       -3.0602  -25.2445  -45.9651 H         1 UNK         0.0600 
    192 H192       -3.5496  -23.7263  -44.0453 H         1 UNK         0.0600 
    193 H193       -3.7626  -25.4112  -43.5983 H         1 UNK         0.0600 
    194 H194       -2.3246  -24.5472  -43.0761 H         1 UNK         0.0600 
    195 H195        0.1762  -25.5736  -44.6474 H         1 UNK         0.3000 
    196 H196        0.1083  -28.3660  -43.9958 H         1 UNK         0.0600 
    197 H197        2.5859  -28.1461  -44.0854 H         1 UNK         0.0600 
    198 H198        1.8819  -26.8044  -43.1954 H         1 UNK         0.0600 
    199 H199        2.4412  -26.5686  -44.8509 H         1 UNK         0.0600 
    200 H200        0.2130  -26.6497  -47.0518 H         1 UNK         0.3000 
    201 H201        0.8513  -29.1169  -48.5983 H         1 UNK         0.0600 
    202 H202        2.2004  -27.0518  -49.0934 H         1 UNK         0.0600 
    203 H203        0.7165  -26.1825  -49.4811 H         1 UNK         0.0600 
    204 H204        1.2234  -27.5488  -50.4643 H         1 UNK         0.0600 
    205 H205       -1.7703  -27.9095  -47.1574 H         1 UNK         0.3000 
    206 H206       -3.9519  -27.8995  -47.3701 H         1 UNK         0.0600 
    207 H207       -3.6209  -30.2876  -48.0479 H         1 UNK         0.0600 
    208 H208       -5.0613  -29.5878  -48.7663 H         1 UNK         0.0600 
    209 H209       -3.6173  -29.8047  -49.7439 H         1 UNK         0.0600 
    210 H210       -2.5669  -25.7405  -48.5709 H         1 UNK         0.3000 
    211 H211       -4.5359  -24.7904  -50.6059 H         1 UNK         0.0600 
    212 H212       -1.5051  -24.3172  -50.4673 H         1 UNK         0.0600 
    213 H213       -2.5950  -23.5533  -51.6232 H         1 UNK         0.0600 
    214 H214       -2.3337  -25.2852  -51.6778 H         1 UNK         0.0600 
    215 H215       -4.0993  -22.1828  -50.6781 H         1 UNK         0.3000 
    216 H216       -3.5634  -21.0349  -48.0648 H         1 UNK         0.0600 
    217 H217       -5.7983  -19.8365  -48.0257 H         1 UNK         0.0600 
    218 H218       -5.9552  -21.5669  -47.7630 H         1 UNK         0.0600 
    219 H219       -6.3565  -20.8756  -49.3324 H         1 UNK         0.0600 
    220 H220       -2.9794  -18.8805  -48.2576 H         1 UNK         0.3000 
    221 H221       -1.9561  -17.9916  -50.7585 H         1 UNK         0.0600 
    222 H222       -2.3549  -16.5040  -48.0998 H         1 UNK         0.0600 
    223 H223       -0.9266  -17.4313  -48.5614 H         1 UNK         0.0600 
    224 H224       -1.3425  -15.9658  -49.4353 H         1 UNK         0.0600 
    225 H225       -2.5830  -16.3231  -52.0648 H         1 UNK         0.3000 
    226 H226       -3.8110  -15.0187  -53.3068 H         1 UNK         0.0600 
    227 H227       -4.4067  -13.6561  -51.3058 H         1 UNK         0.0600 
    228 H228       -5.7020  -13.6967  -52.4922 H         1 UNK         0.0600 
    229 H229       -5.8285  -14.6632  -51.0334 H         1 UNK         0.0600 
    230 H230       -5.8022  -17.3748  -51.5330 H         1 UNK         0.3000 
    231 H231       -7.8265  -17.7162  -53.5054 H         1 UNK         0.0600 
    232 H232       -6.9128  -19.5614  -51.2376 H         1 UNK         0.0600 
    233 H233       -8.4184  -19.7279  -52.1333 H         1 UNK         0.0600 
    234 H234       -8.1502  -18.3117  -51.1278 H         1 UNK         0.0600 
    235 H235       -4.9004  -19.7209  -52.7792 H         1 UNK         0.3000 
    236 H236       -5.4362  -21.5545  -54.9678 H         1 UNK         0.0600 
    237 H237       -4.3871  -22.2829  -52.8405 H         1 UNK         0.0600 
    238 H238       -3.3288  -22.6130  -54.2017 H         1 UNK         0.0600 
    239 H239       -2.9933  -21.2447  -53.1498 H         1 UNK         0.0600 
    240 H240       -4.0508  -18.4525  -54.9236 H         1 UNK         0.3000 
    241 H241       -1.9213  -18.8922  -56.8115 H         1 UNK         0.0600 
    242 H242       -5.2906  -18.7073  -57.4654 H         1 UNK         0.3800 
    243 H243       -5.1336  -18.2318  -59.1378 H         1 UNK         0.3800 
    244 H244       -1.4613  -16.5389  -56.6767 H         1 UNK         0.0800 
    245 H245       -3.0696  -16.1676  -56.1126 H         1 UNK         0.0800 
    246 H246        0.6084  -17.2959  -54.8393 H         1 UNK         0.0800 
    247 H247       -0.2961  -18.7685  -55.1177 H         1 UNK         0.0800 
@<TRIPOS>BOND
     1    1    2 1    
     2    1  127 1    
     3    1  128 1    
     4    1  129 1    
     5    2    3 2    
     6    2    4 am   BACKBONE|DICT|INTERRES
     7    4    5 1    
     8    4  130 1    
     9    5    6 1    
    10    5   65 1    
    11    5  131 1    
    12    6    7 1    
    13    6  132 1    
    14    6  133 1    
    15    7    8 1    
    16    8    9 1    
    17    8  134 1    
    18    8  135 1    
    19    9   10 ar   
    20    9   14 ar   
    21   10   11 ar   
    22   10  136 1    
    23   11   12 ar   
    24   11  126 1    
    25   12   13 ar   
    26   12  137 1    
    27   13   14 ar   
    28   13   15 1    
    29   14  138 1    
    30   15   16 1    
    31   15  139 1    
    32   15  140 1    
    33   16   17 1    
    34   17   18 1    
    35   17  141 1    
    36   17  142 1    
    37   18   19 1    
    38   18   67 1    
    39   18  143 1    
    40   19   20 am   BACKBONE|DICT|INTERRES
    41   19  144 1    
    42   20   21 2    
    43   20   22 1    
    44   22   23 1    
    45   22   24 1    
    46   22  145 1    
    47   23  146 1    
    48   23  147 1    
    49   23  148 1    
    50   24   25 am   BACKBONE|DICT|INTERRES
    51   24  149 1    
    52   25   26 2    
    53   25   27 1    
    54   27   28 1    
    55   27   29 1    
    56   27  150 1    
    57   28  151 1    
    58   28  152 1    
    59   28  153 1    
    60   29   30 am   BACKBONE|DICT|INTERRES
    61   29  154 1    
    62   30   31 2    
    63   30   32 1    
    64   32   33 1    
    65   32   34 1    
    66   32  155 1    
    67   33  156 1    
    68   33  157 1    
    69   33  158 1    
    70   34   35 am   BACKBONE|DICT|INTERRES
    71   34  159 1    
    72   35   36 2    
    73   35   37 1    
    74   37   38 1    
    75   37   39 1    
    76   37  160 1    
    77   38  161 1    
    78   38  162 1    
    79   38  163 1    
    80   39   40 am   BACKBONE|DICT|INTERRES
    81   39  164 1    
    82   40   41 2    
    83   40   42 1    
    84   42   43 1    
    85   42   44 1    
    86   42  165 1    
    87   43  166 1    
    88   43  167 1    
    89   43  168 1    
    90   44   45 am   BACKBONE|DICT|INTERRES
    91   44  169 1    
    92   45   46 2    
    93   45   47 1    
    94   47   48 1    
    95   47   49 1    
    96   47  170 1    
    97   48  171 1    
    98   48  172 1    
    99   48  173 1    
   100   49   50 am   BACKBONE|DICT|INTERRES
   101   49  174 1    
   102   50   51 2    
   103   50   52 1    
   104   52   53 1    
   105   52   54 1    
   106   52  175 1    
   107   53  176 1    
   108   53  177 1    
   109   53  178 1    
   110   54   55 am   BACKBONE|DICT|INTERRES
   111   54  179 1    
   112   55   56 2    
   113   55   57 1    
   114   57   58 1    
   115   57   59 1    
   116   57  180 1    
   117   58  181 1    
   118   58  182 1    
   119   58  183 1    
   120   59   60 am   BACKBONE|DICT|INTERRES
   121   59  184 1    
   122   60   61 2    
   123   60   62 1    
   124   62   63 1    
   125   62   64 1    
   126   62  185 1    
   127   63  186 1    
   128   63  187 1    
   129   63  188 1    
   130   64   65 am   BACKBONE|DICT|INTERRES
   131   64  189 1    
   132   65   66 2    
   133   67   68 2    
   134   67   69 am   BACKBONE|DICT|INTERRES
   135   69   70 1    
   136   69  190 1    
   137   70   71 1    
   138   70   72 1    
   139   70  191 1    
   140   71  192 1    
   141   71  193 1    
   142   71  194 1    
   143   72   73 2    
   144   72   74 am   BACKBONE|DICT|INTERRES
   145   74   75 1    
   146   74  195 1    
   147   75   76 1    
   148   75   77 1    
   149   75  196 1    
   150   76  197 1    
   151   76  198 1    
   152   76  199 1    
   153   77   78 2    
   154   77   79 am   BACKBONE|DICT|INTERRES
   155   79   80 1    
   156   79  200 1    
   157   80   81 1    
   158   80   82 1    
   159   80  201 1    
   160   81  202 1    
   161   81  203 1    
   162   81  204 1    
   163   82   83 2    
   164   82   84 am   BACKBONE|DICT|INTERRES
   165   84   85 1    
   166   84  205 1    
   167   85   86 1    
   168   85   87 1    
   169   85  206 1    
   170   86  207 1    
   171   86  208 1    
   172   86  209 1    
   173   87   88 2    
   174   87   89 am   BACKBONE|DICT|INTERRES
   175   89   90 1    
   176   89  210 1    
   177   90   91 1    
   178   90   92 1    
   179   90  211 1    
   180   91  212 1    
   181   91  213 1    
   182   91  214 1    
   183   92   93 2    
   184   92   94 am   BACKBONE|DICT|INTERRES
   185   94   95 1    
   186   94  215 1    
   187   95   96 1    
   188   95   97 1    
   189   95  216 1    
   190   96  217 1    
   191   96  218 1    
   192   96  219 1    
   193   97   98 2    
   194   97   99 am   BACKBONE|DICT|INTERRES
   195   99  100 1    
   196   99  220 1    
   197  100  101 1    
   198  100  102 1    
   199  100  221 1    
   200  101  222 1    
   201  101  223 1    
   202  101  224 1    
   203  102  103 2    
   204  102  104 am   BACKBONE|DICT|INTERRES
   205  104  105 1    
   206  104  225 1    
   207  105  106 1    
   208  105  107 1    
   209  105  226 1    
   210  106  227 1    
   211  106  228 1    
   212  106  229 1    
   213  107  108 2    
   214  107  109 am   BACKBONE|DICT|INTERRES
   215  109  110 1    
   216  109  230 1    
   217  110  111 1    
   218  110  112 1    
   219  110  231 1    
   220  111  232 1    
   221  111  233 1    
   222  111  234 1    
   223  112  113 2    
   224  112  114 am   BACKBONE|DICT|INTERRES
   225  114  115 1    
   226  114  235 1    
   227  115  116 1    
   228  115  117 1    
   229  115  236 1    
   230  116  237 1    
   231  116  238 1    
   232  116  239 1    
   233  117  118 2    
   234  117  119 am   BACKBONE|DICT|INTERRES
   235  119  120 1    
   236  119  240 1    
   237  120  121 1    
   238  120  124 1    
   239  120  241 1    
   240  121  122 am   BACKBONE|DICT|INTERRES
   241  121  123 2    
   242  122  242 1    
   243  122  243 1    
   244  124  125 1    
   245  124  244 1    
   246  124  245 1    
   247  125  126 1    
   248  126  246 1    
   249  126  247 1    
@<TRIPOS>SUBSTRUCTURE
     1 UNK         1 GROUP             0       ****    0 ROOT    
