@<TRIPOS>MOLECULE
3R540
247   249    1
SMALL
USER_CHARGES


@<TRIPOS>ATOM
      1 CA          5.7210  -14.7892  -48.0423 C.3       0 UNK        -0.1800 
      2 C           4.4982  -14.2747  -47.2971 C.2       0 UNK         0.5000 
      3 O           4.3620  -14.5154  -46.0983 O.2       0 UNK        -0.5000 
      4 N           3.6131  -13.5524  -47.9937 N.am      1 UNK        -0.5000 
      5 CA          2.3539  -13.0070  -47.4719 C.3       1 UNK         0.1400 
      6 C6          1.2925  -12.8519  -48.5905 C.3       23 UNK        -0.0398 
      7 S7          0.6603  -14.4655  -49.1463 S.3       23 UNK        -0.2404 
      8 C8          1.5649  -14.7321  -50.7005 C.3       23 UNK        -0.0205 
      9 C9          1.0765  -16.0175  -51.3425 C.ar      23 UNK        -0.0193 
     10 C10         0.0494  -15.9863  -52.2880 C.ar      23 UNK        -0.1150 
     11 C11        -0.4915  -17.1746  -52.7857 C.ar      23 UNK        -0.0193 
     12 C12         0.0065  -18.4013  -52.3340 C.ar      23 UNK        -0.1150 
     13 C13         1.0317  -18.4437  -51.3822 C.ar      23 UNK        -0.0193 
     14 C14         1.5853  -17.2464  -50.9176 C.ar      23 UNK        -0.1150 
     15 C15         1.4691  -19.7787  -50.7864 C.3       23 UNK        -0.0205 
     16 S16         1.4574  -19.7867  -48.9548 S.3       23 UNK        -0.2404 
     17 C17        -0.2019  -19.1309  -48.5572 C.3       23 UNK        -0.0398 
     18 CA         -1.1663  -20.2197  -48.0423 C.3       11 UNK         0.1400 
     19 N          -0.7757  -20.7378  -46.7318 N.am      11 UNK        -0.5000 
     20 C          -1.1548  -21.9152  -46.2207 C.2       10 UNK         0.5000 
     21 O          -1.8206  -22.7447  -46.8468 O.2       10 UNK        -0.5000 
     22 CA         -0.7547  -22.1846  -44.7544 C.3       10 UNK         0.1400 
     23 CB         -0.6282  -23.6853  -44.4294 C.3       10 UNK        -0.1800 
     24 N           0.4373  -21.4395  -44.3329 N.am      10 UNK        -0.5000 
     25 C           1.7009  -21.5972  -44.7575 C.2       9 UNK         0.5000 
     26 O           2.0577  -22.4719  -45.5441 O.2       9 UNK        -0.5000 
     27 CA          2.7512  -20.5972  -44.2343 C.3       9 UNK         0.1400 
     28 CB          3.1376  -19.6142  -45.3517 C.3       9 UNK        -0.1800 
     29 N           2.3018  -19.8333  -43.0690 N.am      9 UNK        -0.5000 
     30 C           2.1757  -20.3214  -41.8270 C.2       8 UNK         0.5000 
     31 O           2.4992  -21.4646  -41.5041 O.2       8 UNK        -0.5000 
     32 CA          1.5363  -19.3852  -40.7820 C.3       8 UNK         0.1400 
     33 CB          2.5927  -18.4529  -40.1718 C.3       8 UNK        -0.1800 
     34 N           0.4328  -18.5900  -41.3315 N.am      8 UNK        -0.5000 
     35 C          -0.7122  -19.1073  -41.8024 C.2       7 UNK         0.5000 
     36 O          -0.9711  -20.3099  -41.8015 O.2       7 UNK        -0.5000 
     37 CA         -1.7139  -18.1306  -42.4345 C.3       7 UNK         0.1400 
     38 CB         -2.6050  -17.4762  -41.3687 C.3       7 UNK        -0.1800 
     39 N          -1.0329  -17.0998  -43.2139 N.am      7 UNK        -0.5000 
     40 C          -0.5649  -17.2792  -44.4567 C.2       6 UNK         0.5000 
     41 O          -0.7239  -18.3166  -45.1031 O.2       6 UNK        -0.5000 
     42 CA          0.2147  -16.1047  -45.0788 C.3       6 UNK         0.1400 
     43 CB         -0.7639  -15.1497  -45.7775 C.3       6 UNK        -0.1800 
     44 N           1.0038  -15.3598  -44.0932 N.am      6 UNK        -0.5000 
     45 C           2.0368  -15.8778  -43.4075 C.2       5 UNK         0.5000 
     46 O           2.4578  -17.0196  -43.5809 O.2       5 UNK        -0.5000 
     47 CA          2.6629  -15.0194  -42.2886 C.3       5 UNK         0.1400 
     48 CB          3.9109  -14.2932  -42.7987 C.3       5 UNK        -0.1800 
     49 N           1.7355  -14.0510  -41.7033 N.am      5 UNK        -0.5000 
     50 C           0.5872  -14.3765  -41.0910 C.2       4 UNK         0.5000 
     51 O           0.2364  -15.5414  -40.8942 O.2       4 UNK        -0.5000 
     52 CA         -0.3553  -13.2270  -40.6809 C.3       4 UNK         0.1400 
     53 CB         -0.2715  -12.9822  -39.1672 C.3       4 UNK        -0.1800 
     54 N          -0.1186  -11.9603  -41.3817 N.am      4 UNK        -0.5000 
     55 C          -0.1746  -11.7650  -42.7072 C.2       3 UNK         0.5000 
     56 O          -0.4219  -12.6593  -43.5189 O.2       3 UNK        -0.5000 
     57 CA          0.1470  -10.3477  -43.2268 C.3       3 UNK         0.1400 
     58 CB          0.1977   -9.2626  -42.1273 C.3       3 UNK        -0.1800 
     59 N           1.3839  -10.3375  -44.0130 N.am      3 UNK        -0.5000 
     60 C           2.6039  -10.7282  -43.6169 C.2       2 UNK         0.5000 
     61 O           2.8573  -11.1511  -42.4868 O.2       2 UNK        -0.5000 
     62 CA          3.7021  -10.6933  -44.6993 C.3       2 UNK         0.1400 
     63 CB          5.1204  -10.8490  -44.1221 C.3       2 UNK        -0.1800 
     64 N           3.4682  -11.7511  -45.6812 N.am      2 UNK        -0.5000 
     65 C           2.5781  -11.6999  -46.6786 C.2       1 UNK         0.5000 
     66 O           1.9401  -10.6814  -46.9536 O.2       1 UNK        -0.5000 
     67 C          -2.6019  -19.6712  -47.9866 C.2       11 UNK         0.5000 
     68 O          -3.3833  -19.9376  -48.8978 O.2       11 UNK        -0.5000 
     69 N          -2.9456  -18.9662  -46.8968 N.am      12 UNK        -0.5000 
     70 CA         -4.2888  -18.4268  -46.6503 C.3       12 UNK         0.1400 
     71 CB         -4.2422  -17.4649  -45.4541 C.3       12 UNK        -0.1800 
     72 C          -5.3466  -19.5266  -46.4238 C.2       12 UNK         0.5000 
     73 O          -6.5230  -19.3143  -46.7164 O.2       12 UNK        -0.5000 
     74 N          -4.8957  -20.6928  -45.9417 N.am      13 UNK        -0.5000 
     75 CA         -5.6855  -21.9180  -45.8094 C.3       13 UNK         0.1400 
     76 CB         -5.0210  -22.8049  -44.7428 C.3       13 UNK        -0.1800 
     77 C          -5.8211  -22.6935  -47.1382 C.2       13 UNK         0.5000 
     78 O          -6.5843  -23.6575  -47.1928 O.2       13 UNK        -0.5000 
     79 N          -5.0527  -22.2901  -48.1630 N.am      14 UNK        -0.5000 
     80 CA         -4.8996  -22.8988  -49.4891 C.3       14 UNK         0.1400 
     81 CB         -6.2272  -22.8928  -50.2736 C.3       14 UNK        -0.1800 
     82 C          -4.2316  -24.2894  -49.4782 C.2       14 UNK         0.5000 
     83 O          -4.1940  -24.9451  -50.5194 O.2       14 UNK        -0.5000 
     84 N          -3.6764  -24.7093  -48.3338 N.am      15 UNK        -0.5000 
     85 CA         -2.9956  -25.9916  -48.1649 C.3       15 UNK         0.1400 
     86 CB         -2.8521  -26.3066  -46.6698 C.3       15 UNK        -0.1800 
     87 C          -1.6300  -25.9931  -48.8666 C.2       15 UNK         0.5000 
     88 O          -1.3332  -26.9178  -49.6232 O.2       15 UNK        -0.5000 
     89 N          -0.8550  -24.9175  -48.6662 N.am      16 UNK        -0.5000 
     90 CA          0.4246  -24.6910  -49.3465 C.3       16 UNK         0.1400 
     91 CB          1.2014  -23.5953  -48.6107 C.3       16 UNK        -0.1800 
     92 C           0.2562  -24.3348  -50.8361 C.2       16 UNK         0.5000 
     93 O           1.1860  -24.5297  -51.6186 O.2       16 UNK        -0.5000 
     94 N          -0.9394  -23.8546  -51.2031 N.am      17 UNK        -0.5000 
     95 CA         -1.3627  -23.6099  -52.5812 C.3       17 UNK         0.1400 
     96 CB         -2.4306  -22.5034  -52.5769 C.3       17 UNK        -0.1800 
     97 C          -1.8888  -24.8853  -53.2777 C.2       17 UNK         0.5000 
     98 O          -2.2468  -24.8160  -54.4524 O.2       17 UNK        -0.5000 
     99 N          -1.9500  -26.0168  -52.5546 N.am      18 UNK        -0.5000 
    100 CA        -2.4221  -27.3341  -52.9983 C.3       18 UNK         0.1400 
    101 CB        -1.4450  -27.9400  -54.0272 C.3       18 UNK        -0.1800 
    102 C         -3.8853  -27.3145  -53.4903 C.2       18 UNK         0.5000 
    103 O         -4.2104  -27.9421  -54.4990 O.2       18 UNK        -0.5000 
    104 N         -4.7290  -26.5567  -52.7748 N.am      19 UNK        -0.5000 
    105 CA        -6.1495  -26.2791  -53.0177 C.3       19 UNK         0.1400 
    106 CB        -6.9822  -27.5755  -53.0792 C.3       19 UNK        -0.1800 
    107 C         -6.4318  -25.3532  -54.2198 C.2       19 UNK         0.5000 
    108 O         -7.5845  -24.9611  -54.4094 O.2       19 UNK        -0.5000 
    109 N         -5.4012  -24.9670  -54.9840 N.am      20 UNK        -0.5000 
    110 CA        -5.4815  -23.9889  -56.0664 C.3       20 UNK         0.1400 
    111 CB        -4.4356  -24.3345  -57.1413 C.3       20 UNK        -0.1800 
    112 C         -5.2997  -22.5790  -55.4779 C.2       20 UNK         0.5000 
    113 O         -4.2415  -21.9689  -55.6384 O.2       20 UNK        -0.5000 
    114 N         -6.3290  -22.1233  -54.7507 N.am      21 UNK        -0.5000 
    115 CA        -6.3840  -20.8534  -54.0247 C.3       21 UNK         0.1400 
    116 CB        -7.7416  -20.7557  -53.3114 C.3       21 UNK        -0.1800 
    117 C         -6.1466  -19.6152  -54.9133 C.2       21 UNK         0.5000 
    118 O         -6.4072  -19.6510  -56.1186 O.2       21 UNK        -0.5000 
    119 N         -5.6610  -18.5416  -54.2810 N.am      22 UNK        -0.5000 
    120 CA        -5.1772  -17.3072  -54.9238 C.3       22 UNK         0.1400 
    121 C         -6.2451  -16.4672  -55.6876 C.2       22 UNK         0.5000 
    122 N         -7.5381  -16.6938  -55.4923 N.am      22 UNK        -0.7600 
    123 O         -5.8902  -15.5903  -56.4706 O.2       22 UNK        -0.5000 
    124 C124       -4.4112  -16.4005  -53.9229 C.3       23 UNK        -0.0398 
    125 S125       -3.2293  -17.2847  -52.8439 S.3       23 UNK        -0.2404 
    126 C126       -1.6622  -17.1236  -53.7536 C.3       23 UNK        -0.0205 
    127 H127        5.7619  -15.8770  -47.9868 H         1 UNK         0.0600 
    128 H128        5.7054  -14.5026  -49.0941 H         1 UNK         0.0600 
    129 H129        6.6298  -14.3889  -47.5929 H         1 UNK         0.0600 
    130 H130        3.8050  -13.3479  -48.9634 H         1 UNK         0.3000 
    131 H131        1.9566  -13.7170  -46.7435 H         1 UNK         0.0600 
    132 H132        1.6842  -12.2805  -49.4334 H         1 UNK         0.0800 
    133 H133        0.4226  -12.3009  -48.2282 H         1 UNK         0.0800 
    134 H134        2.6360  -14.7930  -50.5036 H         1 UNK         0.0800 
    135 H135        1.4104  -13.8860  -51.3718 H         1 UNK         0.0800 
    136 H136       -0.3622  -15.0368  -52.6007 H         1 UNK         0.1150 
    137 H137       -0.4409  -19.3195  -52.6884 H         1 UNK         0.1150 
    138 H138        2.3590  -17.2702  -50.1628 H         1 UNK         0.1150 
    139 H139        0.8250  -20.5869  -51.1373 H         1 UNK         0.0800 
    140 H140        2.4757  -20.0109  -51.1358 H         1 UNK         0.0800 
    141 H141       -0.6272  -18.6408  -49.4328 H         1 UNK         0.0800 
    142 H142       -0.0803  -18.3413  -47.8138 H         1 UNK         0.0800 
    143 H143       -1.1641  -21.0425  -48.7607 H         1 UNK         0.0600 
    144 H144       -0.2800  -20.0918  -46.1292 H         1 UNK         0.3000 
    145 H145       -1.5720  -21.7920  -44.1483 H         1 UNK         0.0600 
    146 H146       -0.2405  -23.8408  -43.4225 H         1 UNK         0.0600 
    147 H147       -1.6026  -24.1702  -44.4744 H         1 UNK         0.0600 
    148 H148        0.0317  -24.2001  -45.1287 H         1 UNK         0.0600 
    149 H149        0.2655  -20.7122  -43.6514 H         1 UNK         0.3000 
    150 H150        3.6394  -21.1672  -43.9543 H         1 UNK         0.0600 
    151 H151        3.5006  -20.1431  -46.2340 H         1 UNK         0.0600 
    152 H152        3.9312  -18.9403  -45.0285 H         1 UNK         0.0600 
    153 H153        2.2872  -19.0055  -45.6627 H         1 UNK         0.0600 
    154 H154        2.1000  -18.8498  -43.2309 H         1 UNK         0.3000 
    155 H155        1.1275  -20.0052  -39.9814 H         1 UNK         0.0600 
    156 H156        3.1239  -17.8928  -40.9403 H         1 UNK         0.0600 
    157 H157        3.3373  -19.0250  -39.6172 H         1 UNK         0.0600 
    158 H158        2.1454  -17.7400  -39.4787 H         1 UNK         0.0600 
    159 H159        0.5463  -17.5828  -41.3361 H         1 UNK         0.3000 
    160 H160       -2.3573  -18.7108  -43.0980 H         1 UNK         0.0600 
    161 H161       -3.3364  -16.8085  -41.8243 H         1 UNK         0.0600 
    162 H162       -2.0248  -16.8979  -40.6497 H         1 UNK         0.0600 
    163 H163       -3.1585  -18.2313  -40.8092 H         1 UNK         0.0600 
    164 H164       -0.8167  -16.2386  -42.7299 H         1 UNK         0.3000 
    165 H165        0.9003  -16.5096  -45.8263 H         1 UNK         0.0600 
    166 H166       -0.2506  -14.2889  -46.2028 H         1 UNK         0.0600 
    167 H167       -1.2841  -15.6537  -46.5932 H         1 UNK         0.0600 
    168 H168       -1.5199  -14.7717  -45.0880 H         1 UNK         0.0600 
    169 H169        0.6849  -14.4228  -43.8711 H         1 UNK         0.3000 
    170 H170        2.9728  -15.6912  -41.4882 H         1 UNK         0.0600 
    171 H171        4.6485  -15.0013  -43.1788 H         1 UNK         0.0600 
    172 H172        3.6613  -13.6151  -43.6120 H         1 UNK         0.0600 
    173 H173        4.3878  -13.7142  -42.0078 H         1 UNK         0.0600 
    174 H174        1.9588  -13.0709  -41.8326 H         1 UNK         0.3000 
    175 H175       -1.3710  -13.5481  -40.9202 H         1 UNK         0.0600 
    176 H176       -1.0041  -12.2420  -38.8451 H         1 UNK         0.0600 
    177 H177       -0.4724  -13.8988  -38.6105 H         1 UNK         0.0600 
    178 H178        0.7173  -12.6288  -38.8721 H         1 UNK         0.0600 
    179 H179        0.1332  -11.1731  -40.8018 H         1 UNK         0.3000 
    180 H180       -0.6603  -10.0859  -43.9122 H         1 UNK         0.0600 
    181 H181        1.0075   -9.4276  -41.4158 H         1 UNK         0.0600 
    182 H182       -0.7378   -9.2244  -41.5677 H         1 UNK         0.0600 
    183 H183        0.3458   -8.2757  -42.5659 H         1 UNK         0.0600 
    184 H184        1.2768  -10.0929  -44.9911 H         1 UNK         0.3000 
    185 H185        3.6524   -9.7208  -45.1940 H         1 UNK         0.0600 
    186 H186        5.2626  -11.8137  -43.6355 H         1 UNK         0.0600 
    187 H187        5.8738  -10.7576  -44.9046 H         1 UNK         0.0600 
    188 H188        5.3260  -10.0749  -43.3818 H         1 UNK         0.0600 
    189 H189        3.9402  -12.6362  -45.5253 H         1 UNK         0.3000 
    190 H190       -2.2359  -18.7800  -46.1936 H         1 UNK         0.3000 
    191 H191       -4.5886  -17.8580  -47.5330 H         1 UNK         0.0600 
    192 H192       -3.5100  -16.6726  -45.6087 H         1 UNK         0.0600 
    193 H193       -3.9900  -17.9837  -44.5305 H         1 UNK         0.0600 
    194 H194       -5.2103  -16.9858  -45.3034 H         1 UNK         0.0600 
    195 H195       -3.9136  -20.7646  -45.7253 H         1 UNK         0.3000 
    196 H196       -6.6911  -21.6615  -45.4697 H         1 UNK         0.0600 
    197 H197       -5.6030  -23.7110  -44.5688 H         1 UNK         0.0600 
    198 H198       -4.9426  -22.2840  -43.7884 H         1 UNK         0.0600 
    199 H199       -4.0183  -23.1135  -45.0408 H         1 UNK         0.0600 
    200 H200       -4.4834  -21.4637  -48.0258 H         1 UNK         0.3000 
    201 H201       -4.2082  -22.2486  -50.0249 H         1 UNK         0.0600 
    202 H202       -6.6753  -21.8992  -50.2803 H         1 UNK         0.0600 
    203 H203       -6.9530  -23.5871  -49.8499 H         1 UNK         0.0600 
    204 H204       -6.0690  -23.1817  -51.3135 H         1 UNK         0.0600 
    205 H205       -3.6718  -24.0817  -47.5420 H         1 UNK         0.3000 
    206 H206       -3.6108  -26.7719  -48.6186 H         1 UNK         0.0600 
    207 H207       -3.8236  -26.3298  -46.1758 H         1 UNK         0.0600 
    208 H208       -2.3855  -27.2810  -46.5196 H         1 UNK         0.0600 
    209 H209       -2.2354  -25.5663  -46.1629 H         1 UNK         0.0600 
    210 H210       -1.1787  -24.1903  -48.0344 H         1 UNK         0.3000 
    211 H211        1.0096  -25.6118  -49.2955 H         1 UNK         0.0600 
    212 H212        0.6494  -22.6573  -48.5860 H         1 UNK         0.0600 
    213 H213        2.1620  -23.3996  -49.0886 H         1 UNK         0.0600 
    214 H214        1.4043  -23.8951  -47.5838 H         1 UNK         0.0600 
    215 H215       -1.6433  -23.7482  -50.4891 H         1 UNK         0.3000 
    216 H216       -0.5065  -23.2500  -53.1554 H         1 UNK         0.0600 
    217 H217       -2.6041  -22.1380  -53.5884 H         1 UNK         0.0600 
    218 H218       -2.1223  -21.6471  -51.9762 H         1 UNK         0.0600 
    219 H219       -3.3860  -22.8626  -52.1954 H         1 UNK         0.0600 
    220 H220       -1.6585  -25.9777  -51.5863 H         1 UNK         0.3000 
    221 H221       -2.4092  -27.9752  -52.1157 H         1 UNK         0.0600 
    222 H222       -1.4395  -27.3777  -54.9614 H         1 UNK         0.0600 
    223 H223       -0.4263  -27.9565  -53.6397 H         1 UNK         0.0600 
    224 H224       -1.7168  -28.9688  -54.2661 H         1 UNK         0.0600 
    225 H225       -4.3471  -26.0531  -51.9751 H         1 UNK         0.3000 
    226 H226       -6.4834  -25.7254  -52.1389 H         1 UNK         0.0600 
    227 H227       -6.7890  -28.2107  -52.2148 H         1 UNK         0.0600 
    228 H228       -6.7717  -28.1549  -53.9782 H         1 UNK         0.0600 
    229 H229       -8.0495  -27.3514  -53.0837 H         1 UNK         0.0600 
    230 H230       -4.4699  -25.2825  -54.7426 H         1 UNK         0.3000 
    231 H231       -6.4648  -24.0344  -56.5396 H         1 UNK         0.0600 
    232 H232       -4.6034  -25.3326  -57.5460 H         1 UNK         0.0600 
    233 H233       -3.4191  -24.3006  -56.7496 H         1 UNK         0.0600 
    234 H234       -4.4888  -23.6318  -57.9736 H         1 UNK         0.0600 
    235 H235       -7.1417  -22.7202  -54.6690 H         1 UNK         0.3000 
    236 H236       -5.5959  -20.8845  -53.2692 H         1 UNK         0.0600 
    237 H237       -7.8064  -19.8488  -52.7090 H         1 UNK         0.0600 
    238 H238       -8.5675  -20.7369  -54.0238 H         1 UNK         0.0600 
    239 H239       -7.8980  -21.6002  -52.6400 H         1 UNK         0.0600 
    240 H240       -5.4895  -18.5967  -53.2874 H         1 UNK         0.3000 
    241 H241       -4.4585  -17.6262  -55.6810 H         1 UNK         0.0600 
    242 H242       -8.2207  -16.1469  -55.9934 H         1 UNK         0.3800 
    243 H243       -7.8403  -17.4213  -54.8646 H         1 UNK         0.3800 
    244 H244       -3.8900  -15.6018  -54.4531 H         1 UNK         0.0800 
    245 H245       -5.1210  -15.8995  -53.2622 H         1 UNK         0.0800 
    246 H246       -1.6400  -16.1861  -54.3110 H         1 UNK         0.0800 
    247 H247       -1.5838  -17.9254  -54.4894 H         1 UNK         0.0800 
@<TRIPOS>BOND
     1    1    2 1    
     2    1  127 1    
     3    1  128 1    
     4    1  129 1    
     5    2    3 2    
     6    2    4 am   BACKBONE|DICT|INTERRES
     7    4    5 1    
     8    4  130 1    
     9    5    6 1    
    10    5   65 1    
    11    5  131 1    
    12    6    7 1    
    13    6  132 1    
    14    6  133 1    
    15    7    8 1    
    16    8    9 1    
    17    8  134 1    
    18    8  135 1    
    19    9   10 ar   
    20    9   14 ar   
    21   10   11 ar   
    22   10  136 1    
    23   11   12 ar   
    24   11  126 1    
    25   12   13 ar   
    26   12  137 1    
    27   13   14 ar   
    28   13   15 1    
    29   14  138 1    
    30   15   16 1    
    31   15  139 1    
    32   15  140 1    
    33   16   17 1    
    34   17   18 1    
    35   17  141 1    
    36   17  142 1    
    37   18   19 1    
    38   18   67 1    
    39   18  143 1    
    40   19   20 am   BACKBONE|DICT|INTERRES
    41   19  144 1    
    42   20   21 2    
    43   20   22 1    
    44   22   23 1    
    45   22   24 1    
    46   22  145 1    
    47   23  146 1    
    48   23  147 1    
    49   23  148 1    
    50   24   25 am   BACKBONE|DICT|INTERRES
    51   24  149 1    
    52   25   26 2    
    53   25   27 1    
    54   27   28 1    
    55   27   29 1    
    56   27  150 1    
    57   28  151 1    
    58   28  152 1    
    59   28  153 1    
    60   29   30 am   BACKBONE|DICT|INTERRES
    61   29  154 1    
    62   30   31 2    
    63   30   32 1    
    64   32   33 1    
    65   32   34 1    
    66   32  155 1    
    67   33  156 1    
    68   33  157 1    
    69   33  158 1    
    70   34   35 am   BACKBONE|DICT|INTERRES
    71   34  159 1    
    72   35   36 2    
    73   35   37 1    
    74   37   38 1    
    75   37   39 1    
    76   37  160 1    
    77   38  161 1    
    78   38  162 1    
    79   38  163 1    
    80   39   40 am   BACKBONE|DICT|INTERRES
    81   39  164 1    
    82   40   41 2    
    83   40   42 1    
    84   42   43 1    
    85   42   44 1    
    86   42  165 1    
    87   43  166 1    
    88   43  167 1    
    89   43  168 1    
    90   44   45 am   BACKBONE|DICT|INTERRES
    91   44  169 1    
    92   45   46 2    
    93   45   47 1    
    94   47   48 1    
    95   47   49 1    
    96   47  170 1    
    97   48  171 1    
    98   48  172 1    
    99   48  173 1    
   100   49   50 am   BACKBONE|DICT|INTERRES
   101   49  174 1    
   102   50   51 2    
   103   50   52 1    
   104   52   53 1    
   105   52   54 1    
   106   52  175 1    
   107   53  176 1    
   108   53  177 1    
   109   53  178 1    
   110   54   55 am   BACKBONE|DICT|INTERRES
   111   54  179 1    
   112   55   56 2    
   113   55   57 1    
   114   57   58 1    
   115   57   59 1    
   116   57  180 1    
   117   58  181 1    
   118   58  182 1    
   119   58  183 1    
   120   59   60 am   BACKBONE|DICT|INTERRES
   121   59  184 1    
   122   60   61 2    
   123   60   62 1    
   124   62   63 1    
   125   62   64 1    
   126   62  185 1    
   127   63  186 1    
   128   63  187 1    
   129   63  188 1    
   130   64   65 am   BACKBONE|DICT|INTERRES
   131   64  189 1    
   132   65   66 2    
   133   67   68 2    
   134   67   69 am   BACKBONE|DICT|INTERRES
   135   69   70 1    
   136   69  190 1    
   137   70   71 1    
   138   70   72 1    
   139   70  191 1    
   140   71  192 1    
   141   71  193 1    
   142   71  194 1    
   143   72   73 2    
   144   72   74 am   BACKBONE|DICT|INTERRES
   145   74   75 1    
   146   74  195 1    
   147   75   76 1    
   148   75   77 1    
   149   75  196 1    
   150   76  197 1    
   151   76  198 1    
   152   76  199 1    
   153   77   78 2    
   154   77   79 am   BACKBONE|DICT|INTERRES
   155   79   80 1    
   156   79  200 1    
   157   80   81 1    
   158   80   82 1    
   159   80  201 1    
   160   81  202 1    
   161   81  203 1    
   162   81  204 1    
   163   82   83 2    
   164   82   84 am   BACKBONE|DICT|INTERRES
   165   84   85 1    
   166   84  205 1    
   167   85   86 1    
   168   85   87 1    
   169   85  206 1    
   170   86  207 1    
   171   86  208 1    
   172   86  209 1    
   173   87   88 2    
   174   87   89 am   BACKBONE|DICT|INTERRES
   175   89   90 1    
   176   89  210 1    
   177   90   91 1    
   178   90   92 1    
   179   90  211 1    
   180   91  212 1    
   181   91  213 1    
   182   91  214 1    
   183   92   93 2    
   184   92   94 am   BACKBONE|DICT|INTERRES
   185   94   95 1    
   186   94  215 1    
   187   95   96 1    
   188   95   97 1    
   189   95  216 1    
   190   96  217 1    
   191   96  218 1    
   192   96  219 1    
   193   97   98 2    
   194   97   99 am   BACKBONE|DICT|INTERRES
   195   99  100 1    
   196   99  220 1    
   197  100  101 1    
   198  100  102 1    
   199  100  221 1    
   200  101  222 1    
   201  101  223 1    
   202  101  224 1    
   203  102  103 2    
   204  102  104 am   BACKBONE|DICT|INTERRES
   205  104  105 1    
   206  104  225 1    
   207  105  106 1    
   208  105  107 1    
   209  105  226 1    
   210  106  227 1    
   211  106  228 1    
   212  106  229 1    
   213  107  108 2    
   214  107  109 am   BACKBONE|DICT|INTERRES
   215  109  110 1    
   216  109  230 1    
   217  110  111 1    
   218  110  112 1    
   219  110  231 1    
   220  111  232 1    
   221  111  233 1    
   222  111  234 1    
   223  112  113 2    
   224  112  114 am   BACKBONE|DICT|INTERRES
   225  114  115 1    
   226  114  235 1    
   227  115  116 1    
   228  115  117 1    
   229  115  236 1    
   230  116  237 1    
   231  116  238 1    
   232  116  239 1    
   233  117  118 2    
   234  117  119 am   BACKBONE|DICT|INTERRES
   235  119  120 1    
   236  119  240 1    
   237  120  121 1    
   238  120  124 1    
   239  120  241 1    
   240  121  122 am   BACKBONE|DICT|INTERRES
   241  121  123 2    
   242  122  242 1    
   243  122  243 1    
   244  124  125 1    
   245  124  244 1    
   246  124  245 1    
   247  125  126 1    
   248  126  246 1    
   249  126  247 1    
@<TRIPOS>SUBSTRUCTURE
     1 UNK         1 GROUP             0       ****    0 ROOT    
