@<TRIPOS>MOLECULE
3R540
247   249    1
SMALL
USER_CHARGES


@<TRIPOS>ATOM
      1 CA          3.5155  -17.9079  -42.5319 C.3       0 UNK        -0.1800 
      2 C           2.9250  -16.7039  -43.2495 C.2       0 UNK         0.5000 
      3 O           1.9565  -16.1176  -42.7607 O.2       0 UNK        -0.5000 
      4 N           3.4957  -16.3590  -44.4109 N.am      1 UNK        -0.5000 
      5 CA          3.1000  -15.2480  -45.2804 C.3       1 UNK         0.1400 
      6 C6          3.8920  -15.2577  -46.6125 C.3       23 UNK        -0.0398 
      7 S7          3.3992  -16.6566  -47.6676 S.3       23 UNK        -0.2404 
      8 C8          4.9874  -17.2552  -48.3153 C.3       23 UNK        -0.0205 
      9 C9          4.7893  -18.3460  -49.3614 C.ar      23 UNK        -0.0193 
     10 C10         4.1087  -18.0603  -50.5501 C.ar      23 UNK        -0.1150 
     11 C11         3.9579  -19.0372  -51.5383 C.ar      23 UNK        -0.0193 
     12 C12         4.5083  -20.3047  -51.3372 C.ar      23 UNK        -0.1150 
     13 C13         5.1927  -20.6064  -50.1577 C.ar      23 UNK        -0.0193 
     14 C14         5.3218  -19.6259  -49.1677 C.ar      23 UNK        -0.1150 
     15 C15         5.8464  -21.9713  -49.9906 C.3       23 UNK        -0.0205 
     16 S16         4.9362  -23.0702  -48.8619 S.3       23 UNK        -0.2404 
     17 C17         3.3842  -23.4039  -49.7698 C.3       23 UNK        -0.0398 
     18 CA          2.1573  -23.2024  -48.8520 C.3       11 UNK         0.1400 
     19 N           2.0641  -21.8301  -48.3474 N.am      11 UNK        -0.5000 
     20 C           1.3797  -21.4878  -47.2511 C.2       10 UNK         0.5000 
     21 O           0.7434  -22.2873  -46.5665 O.2       10 UNK        -0.5000 
     22 CA          1.3601  -19.9963  -46.8856 C.3       10 UNK         0.1400 
     23 CB          2.5774  -19.6453  -46.0199 C.3       10 UNK        -0.1800 
     24 N           1.2847  -19.0889  -48.0360 N.am      10 UNK        -0.5000 
     25 C           0.3249  -19.1068  -48.9706 C.2       9 UNK         0.5000 
     26 O          -0.5829  -19.9378  -48.9879 O.2       9 UNK        -0.5000 
     27 CA          0.3774  -18.0021  -50.0345 C.3       9 UNK         0.1400 
     28 CB         -0.7841  -18.0817  -51.0433 C.3       9 UNK        -0.1800 
     29 N           0.3770  -16.7034  -49.3760 N.am      9 UNK        -0.5000 
     30 C           0.7988  -15.5526  -49.9099 C.2       8 UNK         0.5000 
     31 O           1.2860  -15.4621  -51.0380 O.2       8 UNK        -0.5000 
     32 CA          0.6108  -14.2933  -49.0346 C.3       8 UNK         0.1400 
     33 CB          0.9877  -12.9925  -49.7649 C.3       8 UNK        -0.1800 
     34 N          -0.7665  -14.1809  -48.5441 N.am      8 UNK        -0.5000 
     35 C          -1.2524  -14.8413  -47.4883 C.2       7 UNK         0.5000 
     36 O          -0.5703  -15.5979  -46.7918 O.2       7 UNK        -0.5000 
     37 CA         -2.7440  -14.6688  -47.1823 C.3       7 UNK         0.1400 
     38 CB         -3.5821  -15.6622  -48.0091 C.3       7 UNK        -0.1800 
     39 N          -2.9235  -14.9225  -45.7609 N.am      7 UNK        -0.5000 
     40 C          -3.9698  -14.5856  -45.0008 C.2       6 UNK         0.5000 
     41 O          -4.9549  -13.9850  -45.4330 O.2       6 UNK        -0.5000 
     42 CA         -3.8918  -14.9545  -43.5011 C.3       6 UNK         0.1400 
     43 CB         -5.2386  -15.4622  -42.9452 C.3       6 UNK        -0.1800 
     44 N          -2.7924  -15.8747  -43.1713 N.am      6 UNK        -0.5000 
     45 C          -2.6627  -17.1602  -43.5362 C.2       5 UNK         0.5000 
     46 O          -3.5118  -17.7845  -44.1717 O.2       5 UNK        -0.5000 
     47 CA         -1.3443  -17.8651  -43.1679 C.3       5 UNK         0.1400 
     48 CB         -0.4091  -17.9144  -44.3830 C.3       5 UNK        -0.1800 
     49 N          -0.6257  -17.2448  -42.0545 N.am      5 UNK        -0.5000 
     50 C          -0.9706  -17.3740  -40.7664 C.2       4 UNK         0.5000 
     51 O          -1.9633  -17.9937  -40.3835 O.2       4 UNK        -0.5000 
     52 CA         -0.0544  -16.7018  -39.7328 C.3       4 UNK         0.1400 
     53 CB          1.1464  -17.6031  -39.4087 C.3       4 UNK        -0.1800 
     54 N           0.4286  -15.4056  -40.2110 N.am      4 UNK        -0.5000 
     55 C          -0.0495  -14.2268  -39.7908 C.2       3 UNK         0.5000 
     56 O          -0.9353  -14.1075  -38.9432 O.2       3 UNK        -0.5000 
     57 CA          0.5607  -12.9583  -40.4155 C.3       3 UNK         0.1400 
     58 CB          1.7522  -12.4688  -39.5783 C.3       3 UNK        -0.1800 
     59 N           0.9924  -13.1276  -41.8032 N.am      3 UNK        -0.5000 
     60 C           0.1735  -13.3442  -42.8423 C.2       2 UNK         0.5000 
     61 O          -1.0433  -13.4844  -42.7261 O.2       2 UNK        -0.5000 
     62 CA          0.8078  -13.4281  -44.2430 C.3       2 UNK         0.1400 
     63 CB          0.1335  -12.4483  -45.2176 C.3       2 UNK        -0.1800 
     64 N           2.2457  -13.1300  -44.2021 N.am      2 UNK        -0.5000 
     65 C           3.2904  -13.8926  -44.5563 C.2       1 UNK         0.5000 
     66 O           4.4401  -13.5201  -44.3223 O.2       1 UNK        -0.5000 
     67 C           0.8456  -23.6771  -49.5172 C.2       11 UNK         0.5000 
     68 O           0.6125  -24.8846  -49.5769 O.2       11 UNK        -0.5000 
     69 N          -0.0061  -22.7395  -49.9616 N.am      12 UNK        -0.5000 
     70 CA         -1.3707  -23.0223  -50.4069 C.3       12 UNK         0.1400 
     71 CB         -1.8289  -21.9562  -51.4131 C.3       12 UNK        -0.1800 
     72 C          -2.3239  -23.0862  -49.2025 C.2       12 UNK         0.5000 
     73 O          -3.1512  -23.9934  -49.1304 O.2       12 UNK        -0.5000 
     74 N          -2.1717  -22.1534  -48.2510 N.am      13 UNK        -0.5000 
     75 CA         -2.9433  -22.0847  -47.0070 C.3       13 UNK         0.1400 
     76 CB         -2.5635  -20.8157  -46.2296 C.3       13 UNK        -0.1800 
     77 C          -2.7896  -23.3370  -46.1246 C.2       13 UNK         0.5000 
     78 O          -3.7736  -23.7860  -45.5380 O.2       13 UNK        -0.5000 
     79 N          -1.5863  -23.9265  -46.1124 N.am      14 UNK        -0.5000 
     80 CA         -1.2730  -25.2091  -45.4755 C.3       14 UNK         0.1400 
     81 CB          0.2390  -25.4598  -45.5822 C.3       14 UNK        -0.1800 
     82 C          -2.0556  -26.4072  -46.0562 C.2       14 UNK         0.5000 
     83 O          -2.2634  -27.3918  -45.3468 O.2       14 UNK        -0.5000 
     84 N          -2.4918  -26.2954  -47.3179 N.am      15 UNK        -0.5000 
     85 CA         -3.3392  -27.2628  -48.0166 C.3       15 UNK         0.1400 
     86 CB         -2.8095  -27.4229  -49.4526 C.3       15 UNK        -0.1800 
     87 C          -4.8247  -26.8395  -48.0168 C.2       15 UNK         0.5000 
     88 O          -5.6292  -27.4829  -48.6919 O.2       15 UNK        -0.5000 
     89 N          -5.1621  -25.7658  -47.2826 N.am      16 UNK        -0.5000 
     90 CA         -6.4742  -25.1142  -47.1898 C.3       16 UNK         0.1400 
     91 CB         -7.5205  -26.0572  -46.5594 C.3       16 UNK        -0.1800 
     92 C          -6.9454  -24.4906  -48.5224 C.2       16 UNK         0.5000 
     93 O          -8.1496  -24.3694  -48.7530 O.2       16 UNK        -0.5000 
     94 N          -5.9891  -24.0876  -49.3687 N.am      17 UNK        -0.5000 
     95 CA         -6.2050  -23.5315  -50.7033 C.3       17 UNK         0.1400 
     96 CB         -5.4161  -24.3769  -51.7199 C.3       17 UNK        -0.1800 
     97 C          -5.8141  -22.0426  -50.7663 C.2       17 UNK         0.5000 
     98 O          -5.4570  -21.5540  -51.8381 O.2       17 UNK        -0.5000 
     99 N          -5.8997  -21.3272  -49.6337 N.am      18 UNK        -0.5000 
    100 CA        -5.5506  -19.9049  -49.5003 C.3       18 UNK         0.1400 
    101 CB        -5.7567  -19.4622  -48.0429 C.3       18 UNK        -0.1800 
    102 C         -6.3359  -18.9681  -50.4417 C.2       18 UNK         0.5000 
    103 O         -5.7956  -17.9493  -50.8711 O.2       18 UNK        -0.5000 
    104 N         -7.5854  -19.3405  -50.7553 N.am      19 UNK        -0.5000 
    105 CA        -8.4593  -18.6278  -51.6887 C.3       19 UNK         0.1400 
    106 CB        -9.9014  -19.1240  -51.5025 C.3       19 UNK        -0.1800 
    107 C         -8.0236  -18.7759  -53.1598 C.2       19 UNK         0.5000 
    108 O         -8.2387  -17.8536  -53.9472 O.2       19 UNK        -0.5000 
    109 N         -7.4204  -19.9226  -53.5042 N.am      20 UNK        -0.5000 
    110 CA        -6.8311  -20.1809  -54.8194 C.3       20 UNK         0.1400 
    111 CB        -6.8041  -21.6951  -55.0802 C.3       20 UNK        -0.1800 
    112 C         -5.4168  -19.5829  -54.9227 C.2       20 UNK         0.5000 
    113 O         -5.0461  -19.0823  -55.9857 O.2       20 UNK        -0.5000 
    114 N         -4.6787  -19.6267  -53.8037 N.am      21 UNK        -0.5000 
    115 CA        -3.3167  -19.1326  -53.6033 C.3       21 UNK         0.1400 
    116 CB        -3.2574  -17.6026  -53.8163 C.3       21 UNK        -0.1800 
    117 C         -2.2728  -19.9139  -54.4313 C.2       21 UNK         0.5000 
    118 O         -2.5501  -21.0219  -54.8973 O.2       21 UNK        -0.5000 
    119 N         -1.0720  -19.3404  -54.5689 N.am      22 UNK        -0.5000 
    120 CA         0.0541  -19.9200  -55.3218 C.3       22 UNK         0.1400 
    121 C         -0.0738  -19.8050  -56.8716 C.2       22 UNK         0.5000 
    122 N         -1.0746  -19.1232  -57.4160 N.am      22 UNK        -0.7600 
    123 O          0.7503  -20.3537  -57.5982 O.2       22 UNK        -0.5000 
    124 C124        1.4130  -19.3538  -54.8369 C.3       23 UNK        -0.0398 
    125 S125        1.7579  -19.7300  -53.0860 S.3       23 UNK        -0.2404 
    126 C126        3.2510  -18.7167  -52.8467 C.3       23 UNK        -0.0205 
    127 H127        3.8908  -17.6135  -41.5520 H         1 UNK         0.0600 
    128 H128        4.3386  -18.3513  -43.0926 H         1 UNK         0.0600 
    129 H129        2.7504  -18.6719  -42.3945 H         1 UNK         0.0600 
    130 H130        4.2933  -16.8859  -44.7339 H         1 UNK         0.3000 
    131 H131        2.0617  -15.4092  -45.5545 H         1 UNK         0.0600 
    132 H132        4.9672  -15.2883  -46.4266 H         1 UNK         0.0800 
    133 H133        3.7057  -14.3456  -47.1827 H         1 UNK         0.0800 
    134 H134        5.5303  -16.4244  -48.7683 H         1 UNK         0.0800 
    135 H135        5.5982  -17.6166  -47.4866 H         1 UNK         0.0800 
    136 H136        3.7042  -17.0696  -50.7073 H         1 UNK         0.1150 
    137 H137        4.4156  -21.0518  -52.1131 H         1 UNK         0.1150 
    138 H138        5.8621  -19.8546  -48.2597 H         1 UNK         0.1150 
    139 H139        5.9610  -22.4666  -50.9561 H         1 UNK         0.0800 
    140 H140        6.8567  -21.8350  -49.6024 H         1 UNK         0.0800 
    141 H141        3.3109  -22.7713  -50.6546 H         1 UNK         0.0800 
    142 H142        3.4278  -24.4326  -50.1317 H         1 UNK         0.0800 
    143 H143        2.2999  -23.8565  -47.9882 H         1 UNK         0.0600 
    144 H144        2.5766  -21.1199  -48.8502 H         1 UNK         0.3000 
    145 H145        0.4640  -19.8320  -46.2904 H         1 UNK         0.0600 
    146 H146        2.4939  -18.6336  -45.6286 H         1 UNK         0.0600 
    147 H147        2.6585  -20.3152  -45.1628 H         1 UNK         0.0600 
    148 H148        3.5081  -19.7153  -46.5840 H         1 UNK         0.0600 
    149 H149        1.9911  -18.3643  -48.0811 H         1 UNK         0.3000 
    150 H150        1.3151  -18.1251  -50.5748 H         1 UNK         0.0600 
    151 H151       -0.7895  -19.0450  -51.5518 H         1 UNK         0.0600 
    152 H152       -0.6867  -17.3147  -51.8102 H         1 UNK         0.0600 
    153 H153       -1.7521  -17.9539  -50.5571 H         1 UNK         0.0600 
    154 H154        0.0217  -16.6825  -48.4250 H         1 UNK         0.3000 
    155 H155        1.2846  -14.3940  -48.1815 H         1 UNK         0.0600 
    156 H156        0.8835  -12.1284  -49.1084 H         1 UNK         0.0600 
    157 H157        0.3608  -12.8265  -50.6418 H         1 UNK         0.0600 
    158 H158        2.0251  -13.0190  -50.1009 H         1 UNK         0.0600 
    159 H159       -1.3901  -13.6102  -49.0968 H         1 UNK         0.3000 
    160 H160       -3.0409  -13.6428  -47.4081 H         1 UNK         0.0600 
    161 H161       -3.3129  -16.6959  -47.7862 H         1 UNK         0.0600 
    162 H162       -3.4344  -15.5082  -49.0787 H         1 UNK         0.0600 
    163 H163       -4.6477  -15.5463  -47.8109 H         1 UNK         0.0600 
    164 H164       -2.1387  -15.3959  -45.3323 H         1 UNK         0.3000 
    165 H165       -3.6629  -14.0234  -42.9816 H         1 UNK         0.0600 
    166 H166       -5.5983  -16.3388  -43.4841 H         1 UNK         0.0600 
    167 H167       -5.1563  -15.7250  -41.8906 H         1 UNK         0.0600 
    168 H168       -6.0084  -14.6942  -43.0278 H         1 UNK         0.0600 
    169 H169       -2.0197  -15.4399  -42.6815 H         1 UNK         0.3000 
    170 H170       -1.5948  -18.8923  -42.8941 H         1 UNK         0.0600 
    171 H171        0.4317  -18.5812  -44.1954 H         1 UNK         0.0600 
    172 H172       -0.9301  -18.2763  -45.2701 H         1 UNK         0.0600 
    173 H173       -0.0057  -16.9305  -44.6202 H         1 UNK         0.0600 
    174 H174        0.2283  -16.7469  -42.2882 H         1 UNK         0.3000 
    175 H175       -0.6302  -16.5810  -38.8128 H         1 UNK         0.0600 
    176 H176        1.7621  -17.7860  -40.2878 H         1 UNK         0.0600 
    177 H177        1.7799  -17.1541  -38.6437 H         1 UNK         0.0600 
    178 H178        0.8168  -18.5720  -39.0314 H         1 UNK         0.0600 
    179 H179        1.1319  -15.4181  -40.9411 H         1 UNK         0.3000 
    180 H180       -0.2085  -12.1832  -40.3980 H         1 UNK         0.0600 
    181 H181        2.5693  -13.1914  -39.5803 H         1 UNK         0.0600 
    182 H182        1.4601  -12.3067  -38.5398 H         1 UNK         0.0600 
    183 H183        2.1388  -11.5224  -39.9568 H         1 UNK         0.0600 
    184 H184        1.9860  -13.0905  -41.9757 H         1 UNK         0.3000 
    185 H185        0.5876  -14.4391  -44.5722 H         1 UNK         0.0600 
    186 H186        0.5426  -12.5512  -46.2227 H         1 UNK         0.0600 
    187 H187       -0.9397  -12.6307  -45.2845 H         1 UNK         0.0600 
    188 H188        0.2707  -11.4126  -44.9052 H         1 UNK         0.0600 
    189 H189        2.4625  -12.2336  -43.7907 H         1 UNK         0.3000 
    190 H190        0.2252  -21.7645  -49.8229 H         1 UNK         0.3000 
    191 H191       -1.3933  -23.9898  -50.9130 H         1 UNK         0.0600 
    192 H192       -2.7671  -22.2490  -51.8852 H         1 UNK         0.0600 
    193 H193       -1.0957  -21.8194  -52.2082 H         1 UNK         0.0600 
    194 H194       -1.9962  -20.9904  -50.9380 H         1 UNK         0.0600 
    195 H195       -1.5027  -21.4037  -48.4120 H         1 UNK         0.3000 
    196 H196       -3.9949  -22.0175  -47.2880 H         1 UNK         0.0600 
    197 H197       -1.5473  -20.8729  -45.8423 H         1 UNK         0.0600 
    198 H198       -2.6358  -19.9255  -46.8551 H         1 UNK         0.0600 
    199 H199       -3.2273  -20.6682  -45.3768 H         1 UNK         0.0600 
    200 H200       -0.8093  -23.4385  -46.5496 H         1 UNK         0.3000 
    201 H201       -1.5351  -25.1281  -44.4188 H         1 UNK         0.0600 
    202 H202        0.8055  -24.6705  -45.0878 H         1 UNK         0.0600 
    203 H203        0.5648  -25.5048  -46.6223 H         1 UNK         0.0600 
    204 H204        0.5158  -26.4025  -45.1085 H         1 UNK         0.0600 
    205 H205       -2.3105  -25.4359  -47.8223 H         1 UNK         0.3000 
    206 H206       -3.2813  -28.2359  -47.5253 H         1 UNK         0.0600 
    207 H207       -1.7575  -27.7088  -49.4551 H         1 UNK         0.0600 
    208 H208       -3.3566  -28.1989  -49.9892 H         1 UNK         0.0600 
    209 H209       -2.9060  -26.4999  -50.0251 H         1 UNK         0.0600 
    210 H210       -4.4293  -25.3073  -46.7531 H         1 UNK         0.3000 
    211 H211       -6.3416  -24.2764  -46.5043 H         1 UNK         0.0600 
    212 H212       -7.7754  -26.8840  -47.2226 H         1 UNK         0.0600 
    213 H213       -8.4446  -25.5226  -46.3367 H         1 UNK         0.0600 
    214 H214       -7.1575  -26.4778  -45.6217 H         1 UNK         0.0600 
    215 H215       -5.0132  -24.2010  -49.1030 H         1 UNK         0.3000 
    216 H216       -7.2609  -23.5869  -50.9738 H         1 UNK         0.0600 
    217 H217       -5.6169  -24.0556  -52.7423 H         1 UNK         0.0600 
    218 H218       -5.6918  -25.4294  -51.6527 H         1 UNK         0.0600 
    219 H219       -4.3405  -24.3041  -51.5581 H         1 UNK         0.0600 
    220 H220       -6.2189  -21.7978  -48.8005 H         1 UNK         0.3000 
    221 H221       -4.4908  -19.8036  -49.7445 H         1 UNK         0.0600 
    222 H222       -6.7988  -19.5608  -47.7367 H         1 UNK         0.0600 
    223 H223       -5.1513  -20.0453  -47.3527 H         1 UNK         0.0600 
    224 H224       -5.4739  -18.4170  -47.9090 H         1 UNK         0.0600 
    225 H225       -7.9517  -20.1855  -50.3426 H         1 UNK         0.3000 
    226 H226       -8.4304  -17.5646  -51.4405 H         1 UNK         0.0600 
    227 H227      -10.2477  -18.9568  -50.4825 H         1 UNK         0.0600 
    228 H228      -10.5851  -18.5944  -52.1673 H         1 UNK         0.0600 
    229 H229       -9.9926  -20.1892  -51.7188 H         1 UNK         0.0600 
    230 H230       -7.2270  -20.6051  -52.7844 H         1 UNK         0.3000 
    231 H231       -7.4521  -19.7179  -55.5894 H         1 UNK         0.0600 
    232 H232       -7.8053  -22.1231  -55.0277 H         1 UNK         0.0600 
    233 H233       -6.1757  -22.2195  -54.3602 H         1 UNK         0.0600 
    234 H234       -6.4093  -21.9099  -56.0739 H         1 UNK         0.0600 
    235 H235       -5.0531  -20.1651  -53.0272 H         1 UNK         0.3000 
    236 H236       -3.0880  -19.3313  -52.5560 H         1 UNK         0.0600 
    237 H237       -4.0406  -17.1011  -53.2471 H         1 UNK         0.0600 
    238 H238       -2.3095  -17.1824  -53.4839 H         1 UNK         0.0600 
    239 H239       -3.3829  -17.3311  -54.8647 H         1 UNK         0.0600 
    240 H240       -0.9076  -18.4340  -54.1582 H         1 UNK         0.3000 
    241 H241        0.0655  -20.9924  -55.1164 H         1 UNK         0.0600 
    242 H242       -1.7760  -18.6890  -56.8381 H         1 UNK         0.3800 
    243 H243       -1.1451  -19.0634  -58.4198 H         1 UNK         0.3800 
    244 H244        2.2342  -19.7696  -55.4238 H         1 UNK         0.0800 
    245 H245        1.4468  -18.2730  -54.9837 H         1 UNK         0.0800 
    246 H246        3.9456  -18.8902  -53.6699 H         1 UNK         0.0800 
    247 H247        2.9734  -17.6620  -52.8891 H         1 UNK         0.0800 
@<TRIPOS>BOND
     1    1    2 1    
     2    1  127 1    
     3    1  128 1    
     4    1  129 1    
     5    2    3 2    
     6    2    4 am   BACKBONE|DICT|INTERRES
     7    4    5 1    
     8    4  130 1    
     9    5    6 1    
    10    5   65 1    
    11    5  131 1    
    12    6    7 1    
    13    6  132 1    
    14    6  133 1    
    15    7    8 1    
    16    8    9 1    
    17    8  134 1    
    18    8  135 1    
    19    9   10 ar   
    20    9   14 ar   
    21   10   11 ar   
    22   10  136 1    
    23   11   12 ar   
    24   11  126 1    
    25   12   13 ar   
    26   12  137 1    
    27   13   14 ar   
    28   13   15 1    
    29   14  138 1    
    30   15   16 1    
    31   15  139 1    
    32   15  140 1    
    33   16   17 1    
    34   17   18 1    
    35   17  141 1    
    36   17  142 1    
    37   18   19 1    
    38   18   67 1    
    39   18  143 1    
    40   19   20 am   BACKBONE|DICT|INTERRES
    41   19  144 1    
    42   20   21 2    
    43   20   22 1    
    44   22   23 1    
    45   22   24 1    
    46   22  145 1    
    47   23  146 1    
    48   23  147 1    
    49   23  148 1    
    50   24   25 am   BACKBONE|DICT|INTERRES
    51   24  149 1    
    52   25   26 2    
    53   25   27 1    
    54   27   28 1    
    55   27   29 1    
    56   27  150 1    
    57   28  151 1    
    58   28  152 1    
    59   28  153 1    
    60   29   30 am   BACKBONE|DICT|INTERRES
    61   29  154 1    
    62   30   31 2    
    63   30   32 1    
    64   32   33 1    
    65   32   34 1    
    66   32  155 1    
    67   33  156 1    
    68   33  157 1    
    69   33  158 1    
    70   34   35 am   BACKBONE|DICT|INTERRES
    71   34  159 1    
    72   35   36 2    
    73   35   37 1    
    74   37   38 1    
    75   37   39 1    
    76   37  160 1    
    77   38  161 1    
    78   38  162 1    
    79   38  163 1    
    80   39   40 am   BACKBONE|DICT|INTERRES
    81   39  164 1    
    82   40   41 2    
    83   40   42 1    
    84   42   43 1    
    85   42   44 1    
    86   42  165 1    
    87   43  166 1    
    88   43  167 1    
    89   43  168 1    
    90   44   45 am   BACKBONE|DICT|INTERRES
    91   44  169 1    
    92   45   46 2    
    93   45   47 1    
    94   47   48 1    
    95   47   49 1    
    96   47  170 1    
    97   48  171 1    
    98   48  172 1    
    99   48  173 1    
   100   49   50 am   BACKBONE|DICT|INTERRES
   101   49  174 1    
   102   50   51 2    
   103   50   52 1    
   104   52   53 1    
   105   52   54 1    
   106   52  175 1    
   107   53  176 1    
   108   53  177 1    
   109   53  178 1    
   110   54   55 am   BACKBONE|DICT|INTERRES
   111   54  179 1    
   112   55   56 2    
   113   55   57 1    
   114   57   58 1    
   115   57   59 1    
   116   57  180 1    
   117   58  181 1    
   118   58  182 1    
   119   58  183 1    
   120   59   60 am   BACKBONE|DICT|INTERRES
   121   59  184 1    
   122   60   61 2    
   123   60   62 1    
   124   62   63 1    
   125   62   64 1    
   126   62  185 1    
   127   63  186 1    
   128   63  187 1    
   129   63  188 1    
   130   64   65 am   BACKBONE|DICT|INTERRES
   131   64  189 1    
   132   65   66 2    
   133   67   68 2    
   134   67   69 am   BACKBONE|DICT|INTERRES
   135   69   70 1    
   136   69  190 1    
   137   70   71 1    
   138   70   72 1    
   139   70  191 1    
   140   71  192 1    
   141   71  193 1    
   142   71  194 1    
   143   72   73 2    
   144   72   74 am   BACKBONE|DICT|INTERRES
   145   74   75 1    
   146   74  195 1    
   147   75   76 1    
   148   75   77 1    
   149   75  196 1    
   150   76  197 1    
   151   76  198 1    
   152   76  199 1    
   153   77   78 2    
   154   77   79 am   BACKBONE|DICT|INTERRES
   155   79   80 1    
   156   79  200 1    
   157   80   81 1    
   158   80   82 1    
   159   80  201 1    
   160   81  202 1    
   161   81  203 1    
   162   81  204 1    
   163   82   83 2    
   164   82   84 am   BACKBONE|DICT|INTERRES
   165   84   85 1    
   166   84  205 1    
   167   85   86 1    
   168   85   87 1    
   169   85  206 1    
   170   86  207 1    
   171   86  208 1    
   172   86  209 1    
   173   87   88 2    
   174   87   89 am   BACKBONE|DICT|INTERRES
   175   89   90 1    
   176   89  210 1    
   177   90   91 1    
   178   90   92 1    
   179   90  211 1    
   180   91  212 1    
   181   91  213 1    
   182   91  214 1    
   183   92   93 2    
   184   92   94 am   BACKBONE|DICT|INTERRES
   185   94   95 1    
   186   94  215 1    
   187   95   96 1    
   188   95   97 1    
   189   95  216 1    
   190   96  217 1    
   191   96  218 1    
   192   96  219 1    
   193   97   98 2    
   194   97   99 am   BACKBONE|DICT|INTERRES
   195   99  100 1    
   196   99  220 1    
   197  100  101 1    
   198  100  102 1    
   199  100  221 1    
   200  101  222 1    
   201  101  223 1    
   202  101  224 1    
   203  102  103 2    
   204  102  104 am   BACKBONE|DICT|INTERRES
   205  104  105 1    
   206  104  225 1    
   207  105  106 1    
   208  105  107 1    
   209  105  226 1    
   210  106  227 1    
   211  106  228 1    
   212  106  229 1    
   213  107  108 2    
   214  107  109 am   BACKBONE|DICT|INTERRES
   215  109  110 1    
   216  109  230 1    
   217  110  111 1    
   218  110  112 1    
   219  110  231 1    
   220  111  232 1    
   221  111  233 1    
   222  111  234 1    
   223  112  113 2    
   224  112  114 am   BACKBONE|DICT|INTERRES
   225  114  115 1    
   226  114  235 1    
   227  115  116 1    
   228  115  117 1    
   229  115  236 1    
   230  116  237 1    
   231  116  238 1    
   232  116  239 1    
   233  117  118 2    
   234  117  119 am   BACKBONE|DICT|INTERRES
   235  119  120 1    
   236  119  240 1    
   237  120  121 1    
   238  120  124 1    
   239  120  241 1    
   240  121  122 am   BACKBONE|DICT|INTERRES
   241  121  123 2    
   242  122  242 1    
   243  122  243 1    
   244  124  125 1    
   245  124  244 1    
   246  124  245 1    
   247  125  126 1    
   248  126  246 1    
   249  126  247 1    
@<TRIPOS>SUBSTRUCTURE
     1 UNK         1 GROUP             0       ****    0 ROOT    
