@<TRIPOS>MOLECULE
3R540
247   249    1
SMALL
USER_CHARGES


@<TRIPOS>ATOM
      1 CA         -0.8471  -12.8217  -52.5349 C.3       0 UNK        -0.1800 
      2 C           0.1687  -11.8516  -51.9477 C.2       0 UNK         0.5000 
      3 O           0.0790  -10.6477  -52.1879 O.2       0 UNK        -0.5000 
      4 N           1.1364  -12.3740  -51.1838 N.am      1 UNK        -0.5000 
      5 CA          2.1973  -11.6135  -50.5109 C.3       1 UNK         0.1400 
      6 C6          3.3395  -12.5331  -49.9992 C.3       23 UNK        -0.0398 
      7 S7          2.7642  -13.9441  -48.9805 S.3       23 UNK        -0.2404 
      8 C8          2.9297  -15.3130  -50.1728 C.3       23 UNK        -0.0205 
      9 C9          1.8953  -16.4045  -49.9434 C.ar      23 UNK        -0.0193 
     10 C10         0.5395  -16.1313  -50.1447 C.ar      23 UNK        -0.1150 
     11 C11        -0.4201  -17.1363  -50.0050 C.ar      23 UNK        -0.0193 
     12 C12        -0.0168  -18.4239  -49.6433 C.ar      23 UNK        -0.1150 
     13 C13         1.3350  -18.7105  -49.4328 C.ar      23 UNK        -0.0193 
     14 C14         2.2879  -17.6976  -49.5834 C.ar      23 UNK        -0.1150 
     15 C15         1.7599  -20.1182  -49.0531 C.3       23 UNK        -0.0205 
     16 S16         1.8651  -20.2996  -47.2480 S.3       23 UNK        -0.2404 
     17 C17         1.9374  -22.1144  -47.0816 C.3       23 UNK        -0.0398 
     18 CA          0.6217  -22.7591  -46.5823 C.3       11 UNK         0.1400 
     19 N           0.2113  -22.2720  -45.2590 N.am      11 UNK        -0.5000 
     20 C          -0.7205  -22.8592  -44.4931 C.2       10 UNK         0.5000 
     21 O          -1.3565  -23.8524  -44.8508 O.2       10 UNK        -0.5000 
     22 CA         -1.0053  -22.2113  -43.1241 C.3       10 UNK         0.1400 
     23 CB         -1.7335  -23.1543  -42.1450 C.3       10 UNK        -0.1800 
     24 N           0.1932  -21.6388  -42.5094 N.am      10 UNK        -0.5000 
     25 C           1.3038  -22.2731  -42.1070 C.2       9 UNK         0.5000 
     26 O           1.4724  -23.4908  -42.1757 O.2       9 UNK        -0.5000 
     27 CA          2.4279  -21.3843  -41.5402 C.3       9 UNK         0.1400 
     28 CB          3.4743  -21.1050  -42.6306 C.3       9 UNK        -0.1800 
     29 N           1.9341  -20.1083  -41.0155 N.am      9 UNK        -0.5000 
     30 C           1.2304  -19.9661  -39.8830 C.2       8 UNK         0.5000 
     31 O           0.9995  -20.8885  -39.1004 O.2       8 UNK        -0.5000 
     32 CA          0.6543  -18.5652  -39.5995 C.3       8 UNK         0.1400 
     33 CB          1.7278  -17.6386  -39.0097 C.3       8 UNK        -0.1800 
     34 N           0.0712  -17.9473  -40.7932 N.am      8 UNK        -0.5000 
     35 C          -1.0234  -18.3967  -41.4255 C.2       7 UNK         0.5000 
     36 O          -1.6889  -19.3587  -41.0441 O.2       7 UNK        -0.5000 
     37 CA         -1.4236  -17.6766  -42.7240 C.3       7 UNK         0.1400 
     38 CB         -2.3168  -16.4623  -42.4277 C.3       7 UNK        -0.1800 
     39 N          -0.2547  -17.2517  -43.4923 N.am      7 UNK        -0.5000 
     40 C           0.5052  -18.0748  -44.2281 C.2       6 UNK         0.5000 
     41 O           0.2786  -19.2784  -44.3603 O.2       6 UNK        -0.5000 
     42 CA          1.7435  -17.4485  -44.8980 C.3       6 UNK         0.1400 
     43 CB          1.3478  -16.7545  -46.2105 C.3       6 UNK        -0.1800 
     44 N           2.4305  -16.4809  -44.0420 N.am      6 UNK        -0.5000 
     45 C           3.0052  -16.7598  -42.8634 C.2       5 UNK         0.5000 
     46 O           3.0686  -17.8897  -42.3837 O.2       5 UNK        -0.5000 
     47 CA          3.5458  -15.5631  -42.0572 C.3       5 UNK         0.1400 
     48 CB          5.0117  -15.2877  -42.4217 C.3       5 UNK        -0.1800 
     49 N           2.7665  -14.3391  -42.2511 N.am      5 UNK        -0.5000 
     50 C           1.4585  -14.1876  -42.0072 C.2       4 UNK         0.5000 
     51 O           0.7555  -15.0773  -41.5270 O.2       4 UNK        -0.5000 
     52 CA          0.8047  -12.8591  -42.4409 C.3       4 UNK         0.1400 
     53 CB          0.7591  -11.8525  -41.2764 C.3       4 UNK        -0.1800 
     54 N           1.3881  -12.2674  -43.6580 N.am      4 UNK        -0.5000 
     55 C           2.6007  -11.7190  -43.8338 C.2       3 UNK         0.5000 
     56 O           3.4359  -11.6132  -42.9355 O.2       3 UNK        -0.5000 
     57 CA          2.9852  -11.2815  -45.2599 C.3       3 UNK         0.1400 
     58 CB          4.1080  -12.1800  -45.8056 C.3       3 UNK        -0.1800 
     59 N           1.8766  -11.3076  -46.2153 N.am      3 UNK        -0.5000 
     60 C           0.9351  -10.3612  -46.3343 C.2       2 UNK         0.5000 
     61 O           0.8292   -9.4076  -45.5614 O.2       2 UNK        -0.5000 
     62 CA         -0.0336  -10.5134  -47.5307 C.3       2 UNK         0.1400 
     63 CB         -0.7144   -9.1865  -47.9253 C.3       2 UNK        -0.1800 
     64 N           0.5946  -11.1430  -48.7019 N.am      2 UNK        -0.5000 
     65 C           1.6698  -10.7046  -49.3796 C.2       1 UNK         0.5000 
     66 O           2.2567   -9.6491  -49.1371 O.2       1 UNK        -0.5000 
     67 C          -0.5161  -22.6709  -47.6238 C.2       11 UNK         0.5000 
     68 O          -0.5940  -23.5169  -48.5149 O.2       11 UNK        -0.5000 
     69 N          -1.4074  -21.6829  -47.4514 N.am      12 UNK        -0.5000 
     70 CA         -2.6379  -21.5105  -48.2214 C.3       12 UNK         0.1400 
     71 CB         -3.3117  -20.1954  -47.8028 C.3       12 UNK        -0.1800 
     72 C          -3.6085  -22.6958  -48.0616 C.2       12 UNK         0.5000 
     73 O          -4.2082  -23.1297  -49.0446 O.2       12 UNK        -0.5000 
     74 N          -3.7228  -23.2123  -46.8303 N.am      13 UNK        -0.5000 
     75 CA         -4.5343  -24.3827  -46.5032 C.3       13 UNK         0.1400 
     76 CB         -4.8442  -24.3937  -44.9987 C.3       13 UNK        -0.1800 
     77 C          -3.8441  -25.6877  -46.9313 C.2       13 UNK         0.5000 
     78 O          -4.5081  -26.5686  -47.4771 O.2       13 UNK        -0.5000 
     79 N          -2.5238  -25.7766  -46.7082 N.am      14 UNK        -0.5000 
     80 CA         -1.6887  -26.9359  -47.0405 C.3       14 UNK         0.1400 
     81 CB         -0.2728  -26.7227  -46.4869 C.3       14 UNK        -0.1800 
     82 C          -1.6307  -27.2551  -48.5472 C.2       14 UNK         0.5000 
     83 O          -1.4771  -28.4221  -48.9096 O.2       14 UNK        -0.5000 
     84 N          -1.7826  -26.2268  -49.3950 N.am      15 UNK        -0.5000 
     85 CA         -1.9063  -26.3516  -50.8498 C.3       15 UNK         0.1400 
     86 CB         -1.8466  -24.9527  -51.4781 C.3       15 UNK        -0.1800 
     87 C          -3.1868  -27.0854  -51.2992 C.2       15 UNK         0.5000 
     88 O          -3.1944  -27.6713  -52.3819 O.2       15 UNK        -0.5000 
     89 N          -4.2325  -27.0443  -50.4583 N.am      16 UNK        -0.5000 
     90 CA         -5.5135  -27.7513  -50.5718 C.3       16 UNK         0.1400 
     91 CB         -5.2937  -29.2756  -50.4789 C.3       16 UNK        -0.1800 
     92 C          -6.3831  -27.3589  -51.7866 C.2       16 UNK         0.5000 
     93 O          -7.3496  -28.0630  -52.0858 O.2       16 UNK        -0.5000 
     94 N          -6.0619  -26.2433  -52.4520 N.am      17 UNK        -0.5000 
     95 CA         -6.7871  -25.7214  -53.6037 C.3       17 UNK         0.1400 
     96 CB         -6.3612  -26.4635  -54.8829 C.3       17 UNK        -0.1800 
     97 C          -6.5157  -24.2194  -53.7337 C.2       17 UNK         0.5000 
     98 O          -5.3651  -23.7940  -53.5944 O.2       17 UNK        -0.5000 
     99 N          -7.5841  -23.4546  -54.0045 N.am      18 UNK        -0.5000 
    100 CA        -7.6168  -22.0296  -54.3697 C.3       18 UNK         0.1400 
    101 CB        -7.0858  -21.8605  -55.8080 C.3       18 UNK        -0.1800 
    102 C         -6.9164  -21.0654  -53.3857 C.2       18 UNK         0.5000 
    103 O         -6.5555  -19.9564  -53.7832 O.2       18 UNK        -0.5000 
    104 N         -6.6983  -21.5094  -52.1392 N.am      19 UNK        -0.5000 
    105 CA        -5.8860  -20.8611  -51.1036 C.3       19 UNK         0.1400 
    106 CB        -6.5717  -19.5731  -50.5995 C.3       19 UNK        -0.1800 
    107 C         -4.4263  -20.6282  -51.5590 C.2       19 UNK         0.5000 
    108 O         -3.8754  -19.5582  -51.3104 O.2       19 UNK        -0.5000 
    109 N         -3.8466  -21.6118  -52.2675 N.am      20 UNK        -0.5000 
    110 CA        -2.5440  -21.5528  -52.9504 C.3       20 UNK         0.1400 
    111 CB        -1.3774  -21.3763  -51.9547 C.3       20 UNK        -0.1800 
    112 C         -2.5241  -20.5054  -54.0853 C.2       20 UNK         0.5000 
    113 O         -1.5138  -19.8351  -54.3002 O.2       20 UNK        -0.5000 
    114 N         -3.6644  -20.3922  -54.7805 N.am      21 UNK        -0.5000 
    115 CA        -3.9928  -19.4454  -55.8519 C.3       21 UNK         0.1400 
    116 CB        -3.0020  -19.5471  -57.0306 C.3       21 UNK        -0.1800 
    117 C         -4.2073  -17.9927  -55.3746 C.2       21 UNK         0.5000 
    118 O         -4.3505  -17.1039  -56.2164 O.2       21 UNK        -0.5000 
    119 N         -4.2662  -17.7672  -54.0552 N.am      22 UNK        -0.5000 
    120 CA        -4.6020  -16.4674  -53.4508 C.3       22 UNK         0.1400 
    121 C         -6.1274  -16.1580  -53.4312 C.2       22 UNK         0.5000 
    122 N         -7.0127  -17.1199  -53.6659 N.am      22 UNK        -0.7600 
    123 O         -6.5164  -15.0145  -53.2094 O.2       22 UNK        -0.5000 
    124 C124       -3.9931  -16.2990  -52.0363 C.3       23 UNK        -0.0398 
    125 S125       -2.1818  -16.5049  -52.0280 S.3       23 UNK        -0.2404 
    126 C126       -1.8860  -16.8281  -50.2628 C.3       23 UNK        -0.0205 
    127 H127       -0.5293  -13.8581  -52.4209 H         1 UNK         0.0600 
    128 H128       -1.8110  -12.7032  -52.0402 H         1 UNK         0.0600 
    129 H129       -0.9824  -12.6280  -53.5990 H         1 UNK         0.0600 
    130 H130        1.1594  -13.3698  -51.0251 H         1 UNK         0.3000 
    131 H131        2.6329  -10.9461  -51.2578 H         1 UNK         0.0600 
    132 H132        4.0641  -11.9609  -49.4166 H         1 UNK         0.0800 
    133 H133        3.9055  -12.9114  -50.8513 H         1 UNK         0.0800 
    134 H134        3.9423  -15.7142  -50.1096 H         1 UNK         0.0800 
    135 H135        2.8099  -14.9455  -51.1927 H         1 UNK         0.0800 
    136 H136        0.2261  -15.1386  -50.4303 H         1 UNK         0.1150 
    137 H137       -0.7535  -19.2063  -49.5308 H         1 UNK         0.1150 
    138 H138        3.3340  -17.9206  -49.4273 H         1 UNK         0.1150 
    139 H139        1.0483  -20.8390  -49.4590 H         1 UNK         0.0800 
    140 H140        2.7273  -20.3537  -49.4992 H         1 UNK         0.0800 
    141 H141        2.7378  -22.3456  -46.3775 H         1 UNK         0.0800 
    142 H142        2.2474  -22.5624  -48.0275 H         1 UNK         0.0800 
    143 H143        0.8354  -23.8211  -46.4581 H         1 UNK         0.0600 
    144 H144        0.6366  -21.4110  -44.9350 H         1 UNK         0.3000 
    145 H145       -1.6699  -21.3695  -43.3229 H         1 UNK         0.0600 
    146 H146       -1.9072  -22.6656  -41.1860 H         1 UNK         0.0600 
    147 H147       -2.7066  -23.4499  -42.5374 H         1 UNK         0.0600 
    148 H148       -1.1652  -24.0662  -41.9604 H         1 UNK         0.0600 
    149 H149        0.1956  -20.6301  -42.4457 H         1 UNK         0.3000 
    150 H150        2.9112  -21.9310  -40.7279 H         1 UNK         0.0600 
    151 H151        3.8870  -22.0341  -43.0258 H         1 UNK         0.0600 
    152 H152        4.3064  -20.5203  -42.2381 H         1 UNK         0.0600 
    153 H153        3.0440  -20.5537  -43.4682 H         1 UNK         0.0600 
    154 H154        2.1522  -19.2808  -41.5666 H         1 UNK         0.3000 
    155 H155       -0.1413  -18.6737  -38.8594 H         1 UNK         0.0600 
    156 H156        2.5839  -17.5385  -39.6759 H         1 UNK         0.0600 
    157 H157        2.0981  -18.0296  -38.0614 H         1 UNK         0.0600 
    158 H158        1.3306  -16.6413  -38.8192 H         1 UNK         0.0600 
    159 H159        0.5245  -17.1129  -41.1482 H         1 UNK         0.3000 
    160 H160       -2.0010  -18.3778  -43.3308 H         1 UNK         0.0600 
    161 H161       -2.6295  -15.9690  -43.3481 H         1 UNK         0.0600 
    162 H162       -1.8091  -15.7241  -41.8067 H         1 UNK         0.0600 
    163 H163       -3.2210  -16.7663  -41.8989 H         1 UNK         0.0600 
    164 H164        0.0359  -16.2916  -43.3767 H         1 UNK         0.3000 
    165 H165        2.4437  -18.2547  -45.1244 H         1 UNK         0.0600 
    166 H166        2.2275  -16.4281  -46.7655 H         1 UNK         0.0600 
    167 H167        0.7901  -17.4312  -46.8584 H         1 UNK         0.0600 
    168 H168        0.7180  -15.8816  -46.0361 H         1 UNK         0.0600 
    169 H169        2.4324  -15.5220  -44.3545 H         1 UNK         0.3000 
    170 H170        3.4972  -15.8217  -40.9986 H         1 UNK         0.0600 
    171 H171        5.6260  -16.1762  -42.2694 H         1 UNK         0.0600 
    172 H172        5.4295  -14.4942  -41.8017 H         1 UNK         0.0600 
    173 H173        5.1178  -14.9884  -43.4653 H         1 UNK         0.0600 
    174 H174        3.2663  -13.5240  -42.5910 H         1 UNK         0.3000 
    175 H175       -0.2277  -13.0988  -42.7004 H         1 UNK         0.0600 
    176 H176        0.2638  -10.9282  -41.5736 H         1 UNK         0.0600 
    177 H177        0.2027  -12.2631  -40.4329 H         1 UNK         0.0600 
    178 H178        1.7550  -11.5989  -40.9127 H         1 UNK         0.0600 
    179 H179        0.8028  -12.3227  -44.4790 H         1 UNK         0.3000 
    180 H180        3.3665  -10.2604  -45.1943 H         1 UNK         0.0600 
    181 H181        3.7861  -13.2184  -45.8959 H         1 UNK         0.0600 
    182 H182        4.9810  -12.1627  -45.1517 H         1 UNK         0.0600 
    183 H183        4.4373  -11.8452  -46.7895 H         1 UNK         0.0600 
    184 H184        1.8891  -12.0539  -46.8958 H         1 UNK         0.3000 
    185 H185       -0.8159  -11.1973  -47.1989 H         1 UNK         0.0600 
    186 H186        0.0135   -8.4248  -48.2059 H         1 UNK         0.0600 
    187 H187       -1.3929   -9.3272  -48.7668 H         1 UNK         0.0600 
    188 H188       -1.3030   -8.7870  -47.0987 H         1 UNK         0.0600 
    189 H189        0.1945  -12.0241  -48.9917 H         1 UNK         0.3000 
    190 H190       -1.2428  -21.0271  -46.7013 H         1 UNK         0.3000 
    191 H191       -2.3715  -21.4340  -49.2744 H         1 UNK         0.0600 
    192 H192       -2.6574  -19.3418  -47.9788 H         1 UNK         0.0600 
    193 H193       -3.5826  -20.1972  -46.7464 H         1 UNK         0.0600 
    194 H194       -4.2237  -20.0256  -48.3751 H         1 UNK         0.0600 
    195 H195       -3.1499  -22.8380  -46.0883 H         1 UNK         0.3000 
    196 H196       -5.4826  -24.3115  -47.0406 H         1 UNK         0.0600 
    197 H197       -5.4959  -25.2301  -44.7434 H         1 UNK         0.0600 
    198 H198       -5.3538  -23.4797  -44.6934 H         1 UNK         0.0600 
    199 H199       -3.9398  -24.4909  -44.3982 H         1 UNK         0.0600 
    200 H200       -2.0685  -25.0213  -46.2032 H         1 UNK         0.3000 
    201 H201       -2.1234  -27.8020  -46.5374 H         1 UNK         0.0600 
    202 H202       -0.2908  -26.4639  -45.4279 H         1 UNK         0.0600 
    203 H203        0.2471  -25.9300  -47.0229 H         1 UNK         0.0600 
    204 H204        0.3242  -27.6295  -46.5911 H         1 UNK         0.0600 
    205 H205       -1.8193  -25.2891  -49.0131 H         1 UNK         0.3000 
    206 H206       -1.0528  -26.9277  -51.2129 H         1 UNK         0.0600 
    207 H207       -0.8972  -24.4666  -51.2538 H         1 UNK         0.0600 
    208 H208       -1.9371  -25.0037  -52.5639 H         1 UNK         0.0600 
    209 H209       -2.6497  -24.3128  -51.1101 H         1 UNK         0.0600 
    210 H210       -4.1072  -26.5511  -49.5820 H         1 UNK         0.3000 
    211 H211       -6.0888  -27.4538  -49.6941 H         1 UNK         0.0600 
    212 H212       -4.7785  -29.6643  -51.3577 H         1 UNK         0.0600 
    213 H213       -6.2424  -29.8068  -50.3948 H         1 UNK         0.0600 
    214 H214       -4.7013  -29.5341  -49.6009 H         1 UNK         0.0600 
    215 H215       -5.2634  -25.6976  -52.1571 H         1 UNK         0.3000 
    216 H216       -7.8579  -25.8690  -53.4470 H         1 UNK         0.0600 
    217 H217       -6.8718  -26.0602  -55.7583 H         1 UNK         0.0600 
    218 H218       -6.6040  -27.5247  -54.8264 H         1 UNK         0.0600 
    219 H219       -5.2879  -26.3755  -55.0570 H         1 UNK         0.0600 
    220 H220       -8.4828  -23.9152  -54.0519 H         1 UNK         0.3000 
    221 H221       -8.6679  -21.7380  -54.3692 H         1 UNK         0.0600 
    222 H222       -6.0245  -22.1011  -55.8770 H         1 UNK         0.0600 
    223 H223       -7.6191  -22.5099  -56.5023 H         1 UNK         0.0600 
    224 H224       -7.2190  -20.8381  -56.1634 H         1 UNK         0.0600 
    225 H225       -7.0269  -22.4383  -51.9180 H         1 UNK         0.3000 
    226 H226       -5.8446  -21.5563  -50.2662 H         1 UNK         0.0600 
    227 H227       -7.5958  -19.7698  -50.2831 H         1 UNK         0.0600 
    228 H228       -6.0427  -19.1562  -49.7424 H         1 UNK         0.0600 
    229 H229       -6.6011  -18.8002  -51.3671 H         1 UNK         0.0600 
    230 H230       -4.3994  -22.4393  -52.4722 H         1 UNK         0.3000 
    231 H231       -2.4152  -22.5218  -53.4344 H         1 UNK         0.0600 
    232 H232       -1.3986  -22.1351  -51.1756 H         1 UNK         0.0600 
    233 H233       -1.3971  -20.3973  -51.4772 H         1 UNK         0.0600 
    234 H234       -0.4161  -21.4680  -52.4610 H         1 UNK         0.0600 
    235 H235       -4.4396  -20.9636  -54.4759 H         1 UNK         0.3000 
    236 H236       -4.9643  -19.7656  -56.2285 H         1 UNK         0.0600 
    237 H237       -3.3663  -18.9903  -57.8945 H         1 UNK         0.0600 
    238 H238       -2.0227  -19.1417  -56.7762 H         1 UNK         0.0600 
    239 H239       -2.8682  -20.5815  -57.3468 H         1 UNK         0.0600 
    240 H240       -4.1359  -18.5374  -53.4129 H         1 UNK         0.3000 
    241 H241       -4.1557  -15.6902  -54.0743 H         1 UNK         0.0600 
    242 H242       -7.9949  -16.8979  -53.6583 H         1 UNK         0.3800 
    243 H243       -6.7190  -18.0836  -53.8073 H         1 UNK         0.3800 
    244 H244       -4.2145  -15.3070  -51.6389 H         1 UNK         0.0800 
    245 H245       -4.4424  -17.0128  -51.3447 H         1 UNK         0.0800 
    246 H246       -2.5141  -17.6584  -49.9371 H         1 UNK         0.0800 
    247 H247       -2.1856  -15.9583  -49.6766 H         1 UNK         0.0800 
@<TRIPOS>BOND
     1    1    2 1    
     2    1  127 1    
     3    1  128 1    
     4    1  129 1    
     5    2    3 2    
     6    2    4 am   BACKBONE|DICT|INTERRES
     7    4    5 1    
     8    4  130 1    
     9    5    6 1    
    10    5   65 1    
    11    5  131 1    
    12    6    7 1    
    13    6  132 1    
    14    6  133 1    
    15    7    8 1    
    16    8    9 1    
    17    8  134 1    
    18    8  135 1    
    19    9   10 ar   
    20    9   14 ar   
    21   10   11 ar   
    22   10  136 1    
    23   11   12 ar   
    24   11  126 1    
    25   12   13 ar   
    26   12  137 1    
    27   13   14 ar   
    28   13   15 1    
    29   14  138 1    
    30   15   16 1    
    31   15  139 1    
    32   15  140 1    
    33   16   17 1    
    34   17   18 1    
    35   17  141 1    
    36   17  142 1    
    37   18   19 1    
    38   18   67 1    
    39   18  143 1    
    40   19   20 am   BACKBONE|DICT|INTERRES
    41   19  144 1    
    42   20   21 2    
    43   20   22 1    
    44   22   23 1    
    45   22   24 1    
    46   22  145 1    
    47   23  146 1    
    48   23  147 1    
    49   23  148 1    
    50   24   25 am   BACKBONE|DICT|INTERRES
    51   24  149 1    
    52   25   26 2    
    53   25   27 1    
    54   27   28 1    
    55   27   29 1    
    56   27  150 1    
    57   28  151 1    
    58   28  152 1    
    59   28  153 1    
    60   29   30 am   BACKBONE|DICT|INTERRES
    61   29  154 1    
    62   30   31 2    
    63   30   32 1    
    64   32   33 1    
    65   32   34 1    
    66   32  155 1    
    67   33  156 1    
    68   33  157 1    
    69   33  158 1    
    70   34   35 am   BACKBONE|DICT|INTERRES
    71   34  159 1    
    72   35   36 2    
    73   35   37 1    
    74   37   38 1    
    75   37   39 1    
    76   37  160 1    
    77   38  161 1    
    78   38  162 1    
    79   38  163 1    
    80   39   40 am   BACKBONE|DICT|INTERRES
    81   39  164 1    
    82   40   41 2    
    83   40   42 1    
    84   42   43 1    
    85   42   44 1    
    86   42  165 1    
    87   43  166 1    
    88   43  167 1    
    89   43  168 1    
    90   44   45 am   BACKBONE|DICT|INTERRES
    91   44  169 1    
    92   45   46 2    
    93   45   47 1    
    94   47   48 1    
    95   47   49 1    
    96   47  170 1    
    97   48  171 1    
    98   48  172 1    
    99   48  173 1    
   100   49   50 am   BACKBONE|DICT|INTERRES
   101   49  174 1    
   102   50   51 2    
   103   50   52 1    
   104   52   53 1    
   105   52   54 1    
   106   52  175 1    
   107   53  176 1    
   108   53  177 1    
   109   53  178 1    
   110   54   55 am   BACKBONE|DICT|INTERRES
   111   54  179 1    
   112   55   56 2    
   113   55   57 1    
   114   57   58 1    
   115   57   59 1    
   116   57  180 1    
   117   58  181 1    
   118   58  182 1    
   119   58  183 1    
   120   59   60 am   BACKBONE|DICT|INTERRES
   121   59  184 1    
   122   60   61 2    
   123   60   62 1    
   124   62   63 1    
   125   62   64 1    
   126   62  185 1    
   127   63  186 1    
   128   63  187 1    
   129   63  188 1    
   130   64   65 am   BACKBONE|DICT|INTERRES
   131   64  189 1    
   132   65   66 2    
   133   67   68 2    
   134   67   69 am   BACKBONE|DICT|INTERRES
   135   69   70 1    
   136   69  190 1    
   137   70   71 1    
   138   70   72 1    
   139   70  191 1    
   140   71  192 1    
   141   71  193 1    
   142   71  194 1    
   143   72   73 2    
   144   72   74 am   BACKBONE|DICT|INTERRES
   145   74   75 1    
   146   74  195 1    
   147   75   76 1    
   148   75   77 1    
   149   75  196 1    
   150   76  197 1    
   151   76  198 1    
   152   76  199 1    
   153   77   78 2    
   154   77   79 am   BACKBONE|DICT|INTERRES
   155   79   80 1    
   156   79  200 1    
   157   80   81 1    
   158   80   82 1    
   159   80  201 1    
   160   81  202 1    
   161   81  203 1    
   162   81  204 1    
   163   82   83 2    
   164   82   84 am   BACKBONE|DICT|INTERRES
   165   84   85 1    
   166   84  205 1    
   167   85   86 1    
   168   85   87 1    
   169   85  206 1    
   170   86  207 1    
   171   86  208 1    
   172   86  209 1    
   173   87   88 2    
   174   87   89 am   BACKBONE|DICT|INTERRES
   175   89   90 1    
   176   89  210 1    
   177   90   91 1    
   178   90   92 1    
   179   90  211 1    
   180   91  212 1    
   181   91  213 1    
   182   91  214 1    
   183   92   93 2    
   184   92   94 am   BACKBONE|DICT|INTERRES
   185   94   95 1    
   186   94  215 1    
   187   95   96 1    
   188   95   97 1    
   189   95  216 1    
   190   96  217 1    
   191   96  218 1    
   192   96  219 1    
   193   97   98 2    
   194   97   99 am   BACKBONE|DICT|INTERRES
   195   99  100 1    
   196   99  220 1    
   197  100  101 1    
   198  100  102 1    
   199  100  221 1    
   200  101  222 1    
   201  101  223 1    
   202  101  224 1    
   203  102  103 2    
   204  102  104 am   BACKBONE|DICT|INTERRES
   205  104  105 1    
   206  104  225 1    
   207  105  106 1    
   208  105  107 1    
   209  105  226 1    
   210  106  227 1    
   211  106  228 1    
   212  106  229 1    
   213  107  108 2    
   214  107  109 am   BACKBONE|DICT|INTERRES
   215  109  110 1    
   216  109  230 1    
   217  110  111 1    
   218  110  112 1    
   219  110  231 1    
   220  111  232 1    
   221  111  233 1    
   222  111  234 1    
   223  112  113 2    
   224  112  114 am   BACKBONE|DICT|INTERRES
   225  114  115 1    
   226  114  235 1    
   227  115  116 1    
   228  115  117 1    
   229  115  236 1    
   230  116  237 1    
   231  116  238 1    
   232  116  239 1    
   233  117  118 2    
   234  117  119 am   BACKBONE|DICT|INTERRES
   235  119  120 1    
   236  119  240 1    
   237  120  121 1    
   238  120  124 1    
   239  120  241 1    
   240  121  122 am   BACKBONE|DICT|INTERRES
   241  121  123 2    
   242  122  242 1    
   243  122  243 1    
   244  124  125 1    
   245  124  244 1    
   246  124  245 1    
   247  125  126 1    
   248  126  246 1    
   249  126  247 1    
@<TRIPOS>SUBSTRUCTURE
     1 UNK         1 GROUP             0       ****    0 ROOT    
