@<TRIPOS>MOLECULE
3R540
247   249    1
SMALL
USER_CHARGES


@<TRIPOS>ATOM
      1 CA         -4.0223  -11.6366  -52.1734 C.3       0 UNK        -0.1800 
      2 C          -2.7341  -12.2974  -51.7024 C.2       0 UNK         0.5000 
      3 O          -1.7152  -11.6206  -51.5598 O.2       0 UNK        -0.5000 
      4 N          -2.7741  -13.6149  -51.4694 N.am      1 UNK        -0.5000 
      5 CA         -1.6572  -14.4092  -50.9478 C.3       1 UNK         0.1400 
      6 C6         -1.8921  -15.9216  -51.1850 C.3       23 UNK        -0.0398 
      7 S7         -0.3449  -16.8306  -51.5203 S.3       23 UNK        -0.2404 
      8 C8         -0.2378  -17.9004  -50.0556 C.3       23 UNK        -0.0205 
      9 C9          0.7358  -19.0488  -50.2665 C.ar      23 UNK        -0.0193 
     10 C10         0.3793  -20.1179  -51.0937 C.ar      23 UNK        -0.1150 
     11 C11         1.2387  -21.2069  -51.2598 C.ar      23 UNK        -0.0193 
     12 C12         2.4682  -21.2162  -50.5984 C.ar      23 UNK        -0.1150 
     13 C13         2.8372  -20.1554  -49.7665 C.ar      23 UNK        -0.0193 
     14 C14         1.9669  -19.0721  -49.6041 C.ar      23 UNK        -0.1150 
     15 C15         4.1805  -20.1841  -49.0529 C.3       23 UNK        -0.0205 
     16 S16         4.3127  -21.5681  -47.8745 S.3       23 UNK        -0.2404 
     17 C17         3.1501  -21.0596  -46.5664 C.3       23 UNK        -0.0398 
     18 CA          2.0718  -22.1330  -46.2668 C.3       11 UNK         0.1400 
     19 N           1.6339  -22.0840  -44.8708 N.am      11 UNK        -0.5000 
     20 C           0.9427  -23.0479  -44.2478 C.2       10 UNK         0.5000 
     21 O           0.6927  -24.1430  -44.7508 O.2       10 UNK        -0.5000 
     22 CA          0.4163  -22.7259  -42.8350 C.3       10 UNK         0.1400 
     23 CB          1.4428  -23.1330  -41.7677 C.3       10 UNK        -0.1800 
     24 N           0.0655  -21.3140  -42.6627 N.am      10 UNK        -0.5000 
     25 C          -0.9261  -20.6944  -43.3190 C.2       9 UNK         0.5000 
     26 O          -1.6946  -21.2695  -44.0882 O.2       9 UNK        -0.5000 
     27 CA         -1.0420  -19.1696  -43.1360 C.3       9 UNK         0.1400 
     28 CB         -1.8087  -18.8233  -41.8522 C.3       9 UNK        -0.1800 
     29 N           0.2589  -18.4999  -43.1277 N.am      9 UNK        -0.5000 
     30 C           1.1173  -18.4885  -44.1573 C.2       8 UNK         0.5000 
     31 O           0.8883  -19.0210  -45.2406 O.2       8 UNK        -0.5000 
     32 CA          2.4874  -17.8353  -43.9118 C.3       8 UNK         0.1400 
     33 CB          2.4121  -16.3053  -44.0308 C.3       8 UNK        -0.1800 
     34 N           3.0293  -18.2072  -42.6054 N.am      8 UNK        -0.5000 
     35 C           3.4746  -19.4337  -42.2969 C.2       7 UNK         0.5000 
     36 O           3.5170  -20.3659  -43.0989 O.2       7 UNK        -0.5000 
     37 CA          3.9096  -19.6654  -40.8383 C.3       7 UNK         0.1400 
     38 CB          5.3676  -19.2284  -40.6328 C.3       7 UNK        -0.1800 
     39 N           3.0539  -18.9652  -39.8791 N.am      7 UNK        -0.5000 
     40 C           1.7668  -19.2651  -39.6533 C.2       6 UNK         0.5000 
     41 O           1.1744  -20.1920  -40.2044 O.2       6 UNK        -0.5000 
     42 CA          1.0007  -18.3356  -38.6927 C.3       6 UNK         0.1400 
     43 CB          1.2045  -18.7760  -37.2356 C.3       6 UNK        -0.1800 
     44 N           1.3751  -16.9244  -38.8344 N.am      6 UNK        -0.5000 
     45 C           1.2137  -16.2105  -39.9558 C.2       5 UNK         0.5000 
     46 O           0.7483  -16.6756  -40.9988 O.2       5 UNK        -0.5000 
     47 CA          1.7203  -14.7614  -39.9317 C.3       5 UNK         0.1400 
     48 CB          3.2180  -14.7217  -40.2753 C.3       5 UNK        -0.1800 
     49 N           0.9929  -13.9714  -40.9212 N.am      5 UNK        -0.5000 
     50 C          -0.1024  -13.2461  -40.6682 C.2       4 UNK         0.5000 
     51 O          -0.5655  -13.0666  -39.5410 O.2       4 UNK        -0.5000 
     52 CA         -0.8036  -12.6234  -41.8895 C.3       4 UNK         0.1400 
     53 CB         -0.1653  -11.2727  -42.2493 C.3       4 UNK        -0.1800 
     54 N          -0.7761  -13.4978  -43.0660 N.am      4 UNK        -0.5000 
     55 C          -1.5328  -14.5975  -43.2087 C.2       3 UNK         0.5000 
     56 O          -2.3301  -14.9829  -42.3533 O.2       3 UNK        -0.5000 
     57 CA         -1.3962  -15.3741  -44.5336 C.3       3 UNK         0.1400 
     58 CB         -2.7075  -16.0594  -44.9675 C.3       3 UNK        -0.1800 
     59 N          -0.8971  -14.5125  -45.6076 N.am      3 UNK        -0.5000 
     60 C          -0.2089  -14.9384  -46.6717 C.2       2 UNK         0.5000 
     61 O           0.0761  -16.1174  -46.8811 O.2       2 UNK        -0.5000 
     62 CA          0.2732  -13.8578  -47.6561 C.3       2 UNK         0.1400 
     63 CB          1.8045  -13.7347  -47.6131 C.3       2 UNK        -0.1800 
     64 N          -0.1472  -14.1404  -49.0280 N.am      2 UNK        -0.5000 
     65 C          -1.4150  -14.0953  -49.4549 C.2       1 UNK         0.5000 
     66 O          -2.3713  -13.8178  -48.7254 O.2       1 UNK        -0.5000 
     67 C           0.8600  -22.0433  -47.2196 C.2       11 UNK         0.5000 
     68 O           0.7031  -22.9010  -48.0882 O.2       11 UNK        -0.5000 
     69 N          -0.0102  -21.0475  -46.9897 N.am      12 UNK        -0.5000 
     70 CA         -1.2445  -20.8021  -47.7396 C.3       12 UNK         0.1400 
     71 CB         -1.9119  -19.5174  -47.2249 C.3       12 UNK        -0.1800 
     72 C          -2.2322  -21.9806  -47.7129 C.2       12 UNK         0.5000 
     73 O          -2.8528  -22.2704  -48.7358 O.2       12 UNK        -0.5000 
     74 N          -2.3098  -22.6756  -46.5687 N.am      13 UNK        -0.5000 
     75 CA         -3.1346  -23.8642  -46.3408 C.3       13 UNK         0.1400 
     76 CB         -2.9716  -24.3256  -44.8851 C.3       13 UNK        -0.1800 
     77 C          -2.8674  -25.0334  -47.3108 C.2       13 UNK         0.5000 
     78 O          -3.7667  -25.8487  -47.5189 O.2       13 UNK        -0.5000 
     79 N          -1.6798  -25.0764  -47.9356 N.am      14 UNK        -0.5000 
     80 CA         -1.3388  -26.0221  -49.0035 C.3       14 UNK         0.1400 
     81 CB          0.1620  -25.9222  -49.3130 C.3       14 UNK        -0.1800 
     82 C          -2.1705  -25.8231  -50.2898 C.2       14 UNK         0.5000 
     83 O          -2.3094  -26.7686  -51.0662 O.2       14 UNK        -0.5000 
     84 N          -2.7287  -24.6195  -50.4762 N.am      15 UNK        -0.5000 
     85 CA         -3.6681  -24.2654  -51.5392 C.3       15 UNK         0.1400 
     86 CB         -3.0596  -23.1326  -52.3826 C.3       15 UNK        -0.1800 
     87 C          -5.0431  -23.8864  -50.9513 C.2       15 UNK         0.5000 
     88 O          -5.7952  -23.1458  -51.5886 O.2       15 UNK        -0.5000 
     89 N          -5.3511  -24.3974  -49.7477 N.am      16 UNK        -0.5000 
     90 CA         -6.5628  -24.1665  -48.9579 C.3       16 UNK         0.1400 
     91 CB         -7.7849  -24.8350  -49.6262 C.3       16 UNK        -0.1800 
     92 C          -6.7632  -22.6704  -48.6434 C.2       16 UNK         0.5000 
     93 O          -6.1193  -22.1537  -47.7305 O.2       16 UNK        -0.5000 
     94 N          -7.6411  -22.0038  -49.4030 N.am      17 UNK        -0.5000 
     95 CA         -7.8943  -20.5656  -49.3182 C.3       17 UNK         0.1400 
     96 CB         -9.2621  -20.2701  -49.9542 C.3       17 UNK        -0.1800 
     97 C          -6.7991  -19.7139  -49.9916 C.2       17 UNK         0.5000 
     98 O          -6.7219  -18.5179  -49.7094 O.2       17 UNK        -0.5000 
     99 N          -6.0009  -20.3282  -50.8813 N.am      18 UNK        -0.5000 
    100 CA        -4.9531  -19.7139  -51.7053 C.3       18 UNK         0.1400 
    101 CB        -3.7726  -19.2353  -50.8374 C.3       18 UNK        -0.1800 
    102 C         -5.4991  -18.6212  -52.6490 C.2       18 UNK         0.5000 
    103 O         -4.8494  -17.5964  -52.8638 O.2       18 UNK        -0.5000 
    104 N         -6.6927  -18.8669  -53.2105 N.am      19 UNK        -0.5000 
    105 CA        -7.4033  -17.9570  -54.1156 C.3       19 UNK         0.1400 
    106 CB        -8.8273  -18.4873  -54.3407 C.3       19 UNK        -0.1800 
    107 C         -6.6838  -17.7417  -55.4624 C.2       19 UNK         0.5000 
    108 O         -6.8001  -16.6661  -56.0498 O.2       19 UNK        -0.5000 
    109 N         -5.9285  -18.7562  -55.9011 N.am      20 UNK        -0.5000 
    110 CA        -5.0419  -18.7237  -57.0667 C.3       20 UNK         0.1400 
    111 CB        -5.2975  -19.9846  -57.9116 C.3       20 UNK        -0.1800 
    112 C         -3.5639  -18.6124  -56.6340 C.2       20 UNK         0.5000 
    113 O         -2.6743  -19.0376  -57.3759 O.2       20 UNK        -0.5000 
    114 N         -3.3280  -18.0778  -55.4246 N.am      21 UNK        -0.5000 
    115 CA        -2.0518  -18.0163  -54.7131 C.3       21 UNK         0.1400 
    116 CB        -1.0879  -17.0149  -55.3882 C.3       21 UNK        -0.1800 
    117 C         -1.4822  -19.4322  -54.5154 C.2       21 UNK         0.5000 
    118 O         -2.0834  -20.2199  -53.7847 O.2       21 UNK        -0.5000 
    119 N         -0.3774  -19.7361  -55.1992 N.am      22 UNK        -0.5000 
    120 CA         0.2433  -21.0635  -55.2706 C.3       22 UNK         0.1400 
    121 C          0.3309  -21.5945  -56.7328 C.2       22 UNK         0.5000 
    122 N         -0.4239  -21.0480  -57.6816 N.am      22 UNK        -0.7600 
    123 O          1.0825  -22.5217  -57.0202 O.2       22 UNK        -0.5000 
    124 C124        1.5989  -21.0740  -54.5101 C.3       23 UNK        -0.0398 
    125 S125        1.8899  -22.6200  -53.5858 S.3       23 UNK        -0.2404 
    126 C126        0.8228  -22.3871  -52.1248 C.3       23 UNK        -0.0205 
    127 H127       -3.8694  -11.1655  -53.1444 H         1 UNK         0.0600 
    128 H128       -4.3301  -10.8678  -51.4647 H         1 UNK         0.0600 
    129 H129       -4.8360  -12.3561  -52.2692 H         1 UNK         0.0600 
    130 H130       -3.6511  -14.1051  -51.5711 H         1 UNK         0.3000 
    131 H131       -0.7704  -14.1018  -51.5073 H         1 UNK         0.0600 
    132 H132       -2.5211  -16.0641  -52.0640 H         1 UNK         0.0800 
    133 H133       -2.4479  -16.3791  -50.3643 H         1 UNK         0.0800 
    134 H134       -1.2196  -18.3128  -49.8260 H         1 UNK         0.0800 
    135 H135        0.0538  -17.3001  -49.1941 H         1 UNK         0.0800 
    136 H136       -0.5794  -20.1076  -51.5925 H         1 UNK         0.1150 
    137 H137        3.1338  -22.0592  -50.7203 H         1 UNK         0.1150 
    138 H138        2.2406  -18.2521  -48.9549 H         1 UNK         0.1150 
    139 H139        4.9707  -20.2823  -49.7985 H         1 UNK         0.0800 
    140 H140        4.3686  -19.2449  -48.5303 H         1 UNK         0.0800 
    141 H141        2.7040  -20.0933  -46.8054 H         1 UNK         0.0800 
    142 H142        3.7598  -20.8867  -45.6793 H         1 UNK         0.0800 
    143 H143        2.5256  -23.1161  -46.4116 H         1 UNK         0.0600 
    144 H144        1.8255  -21.2275  -44.3674 H         1 UNK         0.3000 
    145 H145       -0.4890  -23.3163  -42.6788 H         1 UNK         0.0600 
    146 H146        1.0473  -22.9825  -40.7630 H         1 UNK         0.0600 
    147 H147        2.3638  -22.5563  -41.8545 H         1 UNK         0.0600 
    148 H148        1.7049  -24.1878  -41.8595 H         1 UNK         0.0600 
    149 H149        0.6115  -20.7874  -41.9872 H         1 UNK         0.3000 
    150 H150       -1.6068  -18.7776  -43.9835 H         1 UNK         0.0600 
    151 H151       -2.8044  -19.2681  -41.8610 H         1 UNK         0.0600 
    152 H152       -1.9337  -17.7454  -41.7465 H         1 UNK         0.0600 
    153 H153       -1.2930  -19.1882  -40.9642 H         1 UNK         0.0600 
    154 H154        0.5084  -17.9990  -42.2779 H         1 UNK         0.3000 
    155 H155        3.1731  -18.1978  -44.6808 H         1 UNK         0.0600 
    156 H156        2.1034  -16.0136  -45.0344 H         1 UNK         0.0600 
    157 H157        3.3839  -15.8468  -43.8481 H         1 UNK         0.0600 
    158 H158        1.6989  -15.8739  -43.3298 H         1 UNK         0.0600 
    159 H159        2.9743  -17.5147  -41.8746 H         1 UNK         0.3000 
    160 H160        3.8419  -20.7367  -40.6369 H         1 UNK         0.0600 
    161 H161        5.4957  -18.1576  -40.7961 H         1 UNK         0.0600 
    162 H162        6.0314  -19.7481  -41.3251 H         1 UNK         0.0600 
    163 H163        5.7091  -19.4577  -39.6233 H         1 UNK         0.0600 
    164 H164        3.4630  -18.1891  -39.3805 H         1 UNK         0.3000 
    165 H165       -0.0619  -18.4227  -38.9285 H         1 UNK         0.0600 
    166 H166        0.5959  -18.1807  -36.5548 H         1 UNK         0.0600 
    167 H167        0.9157  -19.8192  -37.0995 H         1 UNK         0.0600 
    168 H168        2.2462  -18.6807  -36.9265 H         1 UNK         0.0600 
    169 H169        1.7766  -16.4805  -38.0209 H         1 UNK         0.3000 
    170 H170        1.5752  -14.3471  -38.9317 H         1 UNK         0.0600 
    171 H171        3.4204  -15.1411  -41.2615 H         1 UNK         0.0600 
    172 H172        3.5948  -13.6987  -40.2652 H         1 UNK         0.0600 
    173 H173        3.8037  -15.2882  -39.5503 H         1 UNK         0.0600 
    174 H174        1.2590  -14.1102  -41.8835 H         1 UNK         0.3000 
    175 H175       -1.8459  -12.4422  -41.6174 H         1 UNK         0.0600 
    176 H176        0.8770  -11.3848  -42.5506 H         1 UNK         0.0600 
    177 H177       -0.7012  -10.7883  -43.0658 H         1 UNK         0.0600 
    178 H178       -0.1889  -10.5914  -41.3977 H         1 UNK         0.0600 
    179 H179       -0.1243  -13.2532  -43.7960 H         1 UNK         0.3000 
    180 H180       -0.6574  -16.1517  -44.3414 H         1 UNK         0.0600 
    181 H181       -2.5595  -16.6670  -45.8605 H         1 UNK         0.0600 
    182 H182       -3.4858  -15.3276  -45.1854 H         1 UNK         0.0600 
    183 H183       -3.0855  -16.7233  -44.1893 H         1 UNK         0.0600 
    184 H184       -1.1389  -13.5338  -45.5354 H         1 UNK         0.3000 
    185 H185       -0.1516  -12.8947  -47.3649 H         1 UNK         0.0600 
    186 H186        2.2918  -14.6591  -47.9264 H         1 UNK         0.0600 
    187 H187        2.1551  -12.9329  -48.2632 H         1 UNK         0.0600 
    188 H188        2.1501  -13.5086  -46.6035 H         1 UNK         0.0600 
    189 H189        0.5798  -14.4168  -49.6718 H         1 UNK         0.3000 
    190 H190        0.2166  -20.3679  -46.2661 H         1 UNK         0.3000 
    191 H191       -0.9658  -20.6502  -48.7806 H         1 UNK         0.0600 
    192 H192       -1.2274  -18.6698  -47.2669 H         1 UNK         0.0600 
    193 H193       -2.2452  -19.6236  -46.1930 H         1 UNK         0.0600 
    194 H194       -2.7860  -19.2634  -47.8254 H         1 UNK         0.0600 
    195 H195       -1.8101  -22.3149  -45.7614 H         1 UNK         0.3000 
    196 H196       -4.1733  -23.5632  -46.4842 H         1 UNK         0.0600 
    197 H197       -3.2550  -23.5386  -44.1862 H         1 UNK         0.0600 
    198 H198       -1.9435  -24.6145  -44.6683 H         1 UNK         0.0600 
    199 H199       -3.6056  -25.1879  -44.6744 H         1 UNK         0.0600 
    200 H200       -0.9966  -24.3543  -47.7378 H         1 UNK         0.3000 
    201 H201       -1.5427  -27.0288  -48.6331 H         1 UNK         0.0600 
    202 H202        0.7635  -26.0652  -48.4151 H         1 UNK         0.0600 
    203 H203        0.4196  -24.9525  -49.7390 H         1 UNK         0.0600 
    204 H204        0.4631  -26.6844  -50.0327 H         1 UNK         0.0600 
    205 H205       -2.5852  -23.8952  -49.7763 H         1 UNK         0.3000 
    206 H206       -3.8440  -25.1178  -52.1976 H         1 UNK         0.0600 
    207 H207       -2.8244  -22.2587  -51.7736 H         1 UNK         0.0600 
    208 H208       -2.1422  -23.4636  -52.8676 H         1 UNK         0.0600 
    209 H209       -3.7368  -22.8123  -53.1751 H         1 UNK         0.0600 
    210 H210       -4.6546  -24.9741  -49.2918 H         1 UNK         0.3000 
    211 H211       -6.4044  -24.6617  -47.9986 H         1 UNK         0.0600 
    212 H212       -7.9712  -24.4589  -50.6325 H         1 UNK         0.0600 
    213 H213       -8.6895  -24.6737  -49.0385 H         1 UNK         0.0600 
    214 H214       -7.6409  -25.9127  -49.7027 H         1 UNK         0.0600 
    215 H215       -8.1063  -22.5045  -50.1464 H         1 UNK         0.3000 
    216 H216       -7.9366  -20.2770  -48.2657 H         1 UNK         0.0600 
    217 H217       -9.5052  -19.2089  -49.8845 H         1 UNK         0.0600 
    218 H218      -10.0584  -20.8177  -49.4497 H         1 UNK         0.0600 
    219 H219       -9.2832  -20.5422  -51.0103 H         1 UNK         0.0600 
    220 H220       -6.1324  -21.3249  -51.0332 H         1 UNK         0.3000 
    221 H221       -4.5766  -20.5042  -52.3554 H         1 UNK         0.0600 
    222 H222       -4.0559  -18.4150  -50.1779 H         1 UNK         0.0600 
    223 H223       -3.3862  -20.0465  -50.2216 H         1 UNK         0.0600 
    224 H224       -2.9502  -18.8868  -51.4623 H         1 UNK         0.0600 
    225 H225       -7.1619  -19.7294  -52.9757 H         1 UNK         0.3000 
    226 H226       -7.4745  -16.9849  -53.6231 H         1 UNK         0.0600 
    227 H227       -9.3721  -18.5669  -53.3996 H         1 UNK         0.0600 
    228 H228       -9.3956  -17.8181  -54.9881 H         1 UNK         0.0600 
    229 H229       -8.8212  -19.4717  -54.8105 H         1 UNK         0.0600 
    230 H230       -5.8912  -19.5945  -55.3390 H         1 UNK         0.3000 
    231 H231       -5.2586  -17.8517  -57.6867 H         1 UNK         0.0600 
    232 H232       -4.7090  -19.9700  -58.8298 H         1 UNK         0.0600 
    233 H233       -6.3455  -20.0572  -58.2027 H         1 UNK         0.0600 
    234 H234       -5.0365  -20.8930  -57.3672 H         1 UNK         0.0600 
    235 H235       -4.1256  -17.7896  -54.8710 H         1 UNK         0.3000 
    236 H236       -2.2721  -17.6418  -53.7154 H         1 UNK         0.0600 
    237 H237       -0.8497  -17.2897  -56.4160 H         1 UNK         0.0600 
    238 H238       -1.5242  -16.0163  -55.4092 H         1 UNK         0.0600 
    239 H239       -0.1507  -16.9406  -54.8349 H         1 UNK         0.0600 
    240 H240        0.0202  -19.0355  -55.8082 H         1 UNK         0.3000 
    241 H241       -0.4248  -21.7764  -54.7856 H         1 UNK         0.0600 
    242 H242       -0.3602  -21.4017  -58.6230 H         1 UNK         0.3800 
    243 H243       -1.0995  -20.3202  -57.4699 H         1 UNK         0.3800 
    244 H244        1.6500  -20.2497  -53.7976 H         1 UNK         0.0800 
    245 H245        2.4355  -20.9081  -55.1908 H         1 UNK         0.0800 
    246 H246        0.8491  -23.2934  -51.5189 H         1 UNK         0.0800 
    247 H247       -0.2095  -22.2696  -52.4526 H         1 UNK         0.0800 
@<TRIPOS>BOND
     1    1    2 1    
     2    1  127 1    
     3    1  128 1    
     4    1  129 1    
     5    2    3 2    
     6    2    4 am   BACKBONE|DICT|INTERRES
     7    4    5 1    
     8    4  130 1    
     9    5    6 1    
    10    5   65 1    
    11    5  131 1    
    12    6    7 1    
    13    6  132 1    
    14    6  133 1    
    15    7    8 1    
    16    8    9 1    
    17    8  134 1    
    18    8  135 1    
    19    9   10 ar   
    20    9   14 ar   
    21   10   11 ar   
    22   10  136 1    
    23   11   12 ar   
    24   11  126 1    
    25   12   13 ar   
    26   12  137 1    
    27   13   14 ar   
    28   13   15 1    
    29   14  138 1    
    30   15   16 1    
    31   15  139 1    
    32   15  140 1    
    33   16   17 1    
    34   17   18 1    
    35   17  141 1    
    36   17  142 1    
    37   18   19 1    
    38   18   67 1    
    39   18  143 1    
    40   19   20 am   BACKBONE|DICT|INTERRES
    41   19  144 1    
    42   20   21 2    
    43   20   22 1    
    44   22   23 1    
    45   22   24 1    
    46   22  145 1    
    47   23  146 1    
    48   23  147 1    
    49   23  148 1    
    50   24   25 am   BACKBONE|DICT|INTERRES
    51   24  149 1    
    52   25   26 2    
    53   25   27 1    
    54   27   28 1    
    55   27   29 1    
    56   27  150 1    
    57   28  151 1    
    58   28  152 1    
    59   28  153 1    
    60   29   30 am   BACKBONE|DICT|INTERRES
    61   29  154 1    
    62   30   31 2    
    63   30   32 1    
    64   32   33 1    
    65   32   34 1    
    66   32  155 1    
    67   33  156 1    
    68   33  157 1    
    69   33  158 1    
    70   34   35 am   BACKBONE|DICT|INTERRES
    71   34  159 1    
    72   35   36 2    
    73   35   37 1    
    74   37   38 1    
    75   37   39 1    
    76   37  160 1    
    77   38  161 1    
    78   38  162 1    
    79   38  163 1    
    80   39   40 am   BACKBONE|DICT|INTERRES
    81   39  164 1    
    82   40   41 2    
    83   40   42 1    
    84   42   43 1    
    85   42   44 1    
    86   42  165 1    
    87   43  166 1    
    88   43  167 1    
    89   43  168 1    
    90   44   45 am   BACKBONE|DICT|INTERRES
    91   44  169 1    
    92   45   46 2    
    93   45   47 1    
    94   47   48 1    
    95   47   49 1    
    96   47  170 1    
    97   48  171 1    
    98   48  172 1    
    99   48  173 1    
   100   49   50 am   BACKBONE|DICT|INTERRES
   101   49  174 1    
   102   50   51 2    
   103   50   52 1    
   104   52   53 1    
   105   52   54 1    
   106   52  175 1    
   107   53  176 1    
   108   53  177 1    
   109   53  178 1    
   110   54   55 am   BACKBONE|DICT|INTERRES
   111   54  179 1    
   112   55   56 2    
   113   55   57 1    
   114   57   58 1    
   115   57   59 1    
   116   57  180 1    
   117   58  181 1    
   118   58  182 1    
   119   58  183 1    
   120   59   60 am   BACKBONE|DICT|INTERRES
   121   59  184 1    
   122   60   61 2    
   123   60   62 1    
   124   62   63 1    
   125   62   64 1    
   126   62  185 1    
   127   63  186 1    
   128   63  187 1    
   129   63  188 1    
   130   64   65 am   BACKBONE|DICT|INTERRES
   131   64  189 1    
   132   65   66 2    
   133   67   68 2    
   134   67   69 am   BACKBONE|DICT|INTERRES
   135   69   70 1    
   136   69  190 1    
   137   70   71 1    
   138   70   72 1    
   139   70  191 1    
   140   71  192 1    
   141   71  193 1    
   142   71  194 1    
   143   72   73 2    
   144   72   74 am   BACKBONE|DICT|INTERRES
   145   74   75 1    
   146   74  195 1    
   147   75   76 1    
   148   75   77 1    
   149   75  196 1    
   150   76  197 1    
   151   76  198 1    
   152   76  199 1    
   153   77   78 2    
   154   77   79 am   BACKBONE|DICT|INTERRES
   155   79   80 1    
   156   79  200 1    
   157   80   81 1    
   158   80   82 1    
   159   80  201 1    
   160   81  202 1    
   161   81  203 1    
   162   81  204 1    
   163   82   83 2    
   164   82   84 am   BACKBONE|DICT|INTERRES
   165   84   85 1    
   166   84  205 1    
   167   85   86 1    
   168   85   87 1    
   169   85  206 1    
   170   86  207 1    
   171   86  208 1    
   172   86  209 1    
   173   87   88 2    
   174   87   89 am   BACKBONE|DICT|INTERRES
   175   89   90 1    
   176   89  210 1    
   177   90   91 1    
   178   90   92 1    
   179   90  211 1    
   180   91  212 1    
   181   91  213 1    
   182   91  214 1    
   183   92   93 2    
   184   92   94 am   BACKBONE|DICT|INTERRES
   185   94   95 1    
   186   94  215 1    
   187   95   96 1    
   188   95   97 1    
   189   95  216 1    
   190   96  217 1    
   191   96  218 1    
   192   96  219 1    
   193   97   98 2    
   194   97   99 am   BACKBONE|DICT|INTERRES
   195   99  100 1    
   196   99  220 1    
   197  100  101 1    
   198  100  102 1    
   199  100  221 1    
   200  101  222 1    
   201  101  223 1    
   202  101  224 1    
   203  102  103 2    
   204  102  104 am   BACKBONE|DICT|INTERRES
   205  104  105 1    
   206  104  225 1    
   207  105  106 1    
   208  105  107 1    
   209  105  226 1    
   210  106  227 1    
   211  106  228 1    
   212  106  229 1    
   213  107  108 2    
   214  107  109 am   BACKBONE|DICT|INTERRES
   215  109  110 1    
   216  109  230 1    
   217  110  111 1    
   218  110  112 1    
   219  110  231 1    
   220  111  232 1    
   221  111  233 1    
   222  111  234 1    
   223  112  113 2    
   224  112  114 am   BACKBONE|DICT|INTERRES
   225  114  115 1    
   226  114  235 1    
   227  115  116 1    
   228  115  117 1    
   229  115  236 1    
   230  116  237 1    
   231  116  238 1    
   232  116  239 1    
   233  117  118 2    
   234  117  119 am   BACKBONE|DICT|INTERRES
   235  119  120 1    
   236  119  240 1    
   237  120  121 1    
   238  120  124 1    
   239  120  241 1    
   240  121  122 am   BACKBONE|DICT|INTERRES
   241  121  123 2    
   242  122  242 1    
   243  122  243 1    
   244  124  125 1    
   245  124  244 1    
   246  124  245 1    
   247  125  126 1    
   248  126  246 1    
   249  126  247 1    
@<TRIPOS>SUBSTRUCTURE
     1 UNK         1 GROUP             0       ****    0 ROOT    
