@<TRIPOS>MOLECULE
3R540
247   249    1
SMALL
USER_CHARGES


@<TRIPOS>ATOM
      1 CA         -2.8670   -8.6197  -47.1189 C.3       0 UNK        -0.1800 
      2 C          -2.3551   -9.8218  -46.3382 C.2       0 UNK         0.5000 
      3 O          -2.7424  -10.0095  -45.1854 O.2       0 UNK        -0.5000 
      4 N          -1.4757  -10.6216  -46.9595 N.am      1 UNK        -0.5000 
      5 CA         -0.8745  -11.8604  -46.4320 C.3       1 UNK         0.1400 
      6 C6         -1.9144  -12.9525  -46.0583 C.3       23 UNK        -0.0398 
      7 S7         -2.9877  -13.4276  -47.4566 S.3       23 UNK        -0.2404 
      8 C8         -2.3759  -15.1083  -47.7722 C.3       23 UNK        -0.0205 
      9 C9         -3.1510  -15.7926  -48.8852 C.ar      23 UNK        -0.0193 
     10 C10        -2.6993  -15.7222  -50.2069 C.ar      23 UNK        -0.1150 
     11 C11        -3.4149  -16.3454  -51.2337 C.ar      23 UNK        -0.0193 
     12 C12        -4.5832  -17.0484  -50.9277 C.ar      23 UNK        -0.1150 
     13 C13        -5.0393  -17.1326  -49.6096 C.ar      23 UNK        -0.0193 
     14 C14        -4.3186  -16.5032  -48.5911 C.ar      23 UNK        -0.1150 
     15 C15        -6.3257  -17.8815  -49.3021 C.3       23 UNK        -0.0205 
     16 S16        -6.0556  -19.6772  -49.2252 S.3       23 UNK        -0.2404 
     17 C17        -5.5531  -19.8991  -47.4857 C.3       23 UNK        -0.0398 
     18 CA         -4.7716  -21.2190  -47.3047 C.3       11 UNK         0.1400 
     19 N          -3.4546  -21.1748  -47.9490 N.am      11 UNK        -0.5000 
     20 C          -2.6833  -22.2449  -48.1731 C.2       10 UNK         0.5000 
     21 O          -3.0114  -23.3932  -47.8747 O.2       10 UNK        -0.5000 
     22 CA         -1.3022  -21.9970  -48.8041 C.3       10 UNK         0.1400 
     23 CB         -1.4184  -22.0520  -50.3321 C.3       10 UNK        -0.1800 
     24 N          -0.6525  -20.7403  -48.4155 N.am      10 UNK        -0.5000 
     25 C          -0.4196  -20.3322  -47.1610 C.2       9 UNK         0.5000 
     26 O          -0.8390  -20.9164  -46.1601 O.2       9 UNK        -0.5000 
     27 CA          0.3742  -19.0273  -47.0040 C.3       9 UNK         0.1400 
     28 CB         -0.5711  -17.8236  -47.0678 C.3       9 UNK        -0.1800 
     29 N           1.0996  -19.0047  -45.7350 N.am      9 UNK        -0.5000 
     30 C           2.2489  -19.6614  -45.5216 C.2       8 UNK         0.5000 
     31 O           2.8258  -20.3115  -46.3948 O.2       8 UNK        -0.5000 
     32 CA          2.8863  -19.5727  -44.1211 C.3       8 UNK         0.1400 
     33 CB          4.2241  -18.8177  -44.1788 C.3       8 UNK        -0.1800 
     34 N           2.0153  -18.9441  -43.1236 N.am      8 UNK        -0.5000 
     35 C           1.0939  -19.6201  -42.4229 C.2       7 UNK         0.5000 
     36 O           0.8904  -20.8270  -42.5556 O.2       7 UNK        -0.5000 
     37 CA          0.2621  -18.8387  -41.3892 C.3       7 UNK         0.1400 
     38 CB          0.9640  -18.8521  -40.0229 C.3       7 UNK        -0.1800 
     39 N          -0.0443  -17.4537  -41.7438 N.am      7 UNK        -0.5000 
     40 C          -0.7138  -17.0276  -42.8205 C.2       6 UNK         0.5000 
     41 O          -1.0572  -17.7660  -43.7415 O.2       6 UNK        -0.5000 
     42 CA         -1.0593  -15.5231  -42.8906 C.3       6 UNK         0.1400 
     43 CB         -2.3197  -15.1999  -42.0687 C.3       6 UNK        -0.1800 
     44 N           0.0505  -14.6236  -42.5503 N.am      6 UNK        -0.5000 
     45 C           0.7296  -14.5063  -41.3977 C.2       5 UNK         0.5000 
     46 O           0.3880  -15.0443  -40.3428 O.2       5 UNK        -0.5000 
     47 CA          2.0595  -13.7217  -41.4699 C.3       5 UNK         0.1400 
     48 CB          3.0451  -14.1175  -40.3519 C.3       5 UNK        -0.1800 
     49 N           2.7093  -13.8327  -42.7822 N.am      5 UNK        -0.5000 
     50 C           3.0391  -14.9558  -43.4430 C.2       4 UNK         0.5000 
     51 O           2.9279  -16.0871  -42.9673 O.2       4 UNK        -0.5000 
     52 CA          3.4916  -14.8001  -44.9087 C.3       4 UNK         0.1400 
     53 CB          2.4709  -15.4643  -45.8488 C.3       4 UNK        -0.1800 
     54 N           3.6207  -13.3969  -45.3023 N.am      4 UNK        -0.5000 
     55 C           4.7528  -12.6829  -45.2609 C.2       3 UNK         0.5000 
     56 O           5.8482  -13.1496  -44.9477 O.2       3 UNK        -0.5000 
     57 CA          4.6333  -11.1850  -45.6081 C.3       3 UNK         0.1400 
     58 CB          4.9380  -10.9522  -47.0957 C.3       3 UNK        -0.1800 
     59 N           3.3158  -10.6207  -45.2962 N.am      3 UNK        -0.5000 
     60 C           2.8227  -10.4698  -44.0586 C.2       2 UNK         0.5000 
     61 O           3.4328  -10.7841  -43.0373 O.2       2 UNK        -0.5000 
     62 CA          1.3864   -9.9300  -43.9428 C.3       2 UNK         0.1400 
     63 CB          1.3894   -8.3959  -43.8717 C.3       2 UNK        -0.1800 
     64 N           0.5070  -10.3594  -45.0326 N.am      2 UNK        -0.5000 
     65 C           0.1364  -11.6239  -45.2830 C.2       1 UNK         0.5000 
     66 O           0.5861  -12.5907  -44.6628 O.2       1 UNK        -0.5000 
     67 C          -4.7148  -21.6538  -45.8238 C.2       11 UNK         0.5000 
     68 O          -5.7083  -22.1825  -45.3242 O.2       11 UNK        -0.5000 
     69 N          -3.5657  -21.4631  -45.1628 N.am      12 UNK        -0.5000 
     70 CA         -3.3140  -21.9125  -43.7959 C.3       12 UNK         0.1400 
     71 CB         -2.6606  -20.7694  -43.0051 C.3       12 UNK        -0.1800 
     72 C          -2.4180  -23.1617  -43.7863 C.2       12 UNK         0.5000 
     73 O          -2.7374  -24.1333  -43.1012 O.2       12 UNK        -0.5000 
     74 N          -1.3153  -23.1167  -44.5449 N.am      13 UNK        -0.5000 
     75 CA         -0.2546  -24.1236  -44.5435 C.3       13 UNK         0.1400 
     76 CB          0.9982  -23.5262  -45.2036 C.3       13 UNK        -0.1800 
     77 C          -0.6390  -25.4437  -45.2335 C.2       13 UNK         0.5000 
     78 O          -0.1454  -26.4964  -44.8269 O.2       13 UNK        -0.5000 
     79 N          -1.4905  -25.3685  -46.2636 N.am      14 UNK        -0.5000 
     80 CA         -1.9027  -26.5034  -47.0928 C.3       14 UNK         0.1400 
     81 CB         -1.2944  -26.3322  -48.4970 C.3       14 UNK        -0.1800 
     82 C          -3.4338  -26.6399  -47.1625 C.2       14 UNK         0.5000 
     83 O          -3.9303  -27.3827  -48.0087 O.2       14 UNK        -0.5000 
     84 N          -4.1641  -25.8987  -46.3139 N.am      15 UNK        -0.5000 
     85 CA         -5.6311  -25.8261  -46.2487 C.3       15 UNK         0.1400 
     86 CB         -6.2039  -27.1341  -45.6652 C.3       15 UNK        -0.1800 
     87 C          -6.2894  -25.4326  -47.5929 C.2       15 UNK         0.5000 
     88 O          -7.3817  -25.9055  -47.9100 O.2       15 UNK        -0.5000 
     89 N          -5.5873  -24.5874  -48.3618 N.am      16 UNK        -0.5000 
     90 CA         -5.9208  -24.0757  -49.6945 C.3       16 UNK         0.1400 
     91 CB         -7.2903  -23.3645  -49.7145 C.3       16 UNK        -0.1800 
     92 C          -5.7765  -25.1079  -50.8310 C.2       16 UNK         0.5000 
     93 O          -6.1512  -24.7997  -51.9625 O.2       16 UNK        -0.5000 
     94 N          -5.1886  -26.2844  -50.5616 N.am      17 UNK        -0.5000 
     95 CA         -4.9085  -27.3011  -51.5835 C.3       17 UNK         0.1400 
     96 CB         -4.5484  -28.6311  -50.9056 C.3       17 UNK        -0.1800 
     97 C          -3.7918  -26.8776  -52.5592 C.2       17 UNK         0.5000 
     98 O          -3.7904  -27.3165  -53.7095 O.2       17 UNK        -0.5000 
     99 N          -2.8780  -26.0201  -52.0852 N.am      18 UNK        -0.5000 
    100 CA        -1.7495  -25.4758  -52.8419 C.3       18 UNK         0.1400 
    101 CB        -0.4841  -25.5659  -51.9706 C.3       18 UNK        -0.1800 
    102 C         -1.9998  -24.0284  -53.3121 C.2       18 UNK         0.5000 
    103 O         -1.0528  -23.3647  -53.7333 O.2       18 UNK        -0.5000 
    104 N         -3.2507  -23.5421  -53.2377 N.am      19 UNK        -0.5000 
    105 CA        -3.6424  -22.1606  -53.5611 C.3       19 UNK         0.1400 
    106 CB        -5.1154  -21.9417  -53.1873 C.3       19 UNK        -0.1800 
    107 C         -3.3764  -21.7309  -55.0196 C.2       19 UNK         0.5000 
    108 O         -3.3257  -20.5338  -55.2978 O.2       19 UNK        -0.5000 
    109 N         -3.1464  -22.7009  -55.9152 N.am      20 UNK        -0.5000 
    110 CA        -2.6649  -22.4957  -57.2835 C.3       20 UNK         0.1400 
    111 CB        -2.6716  -23.8473  -58.0143 C.3       20 UNK        -0.1800 
    112 C         -1.2658  -21.8421  -57.3672 C.2       20 UNK         0.5000 
    113 O         -0.9148  -21.3151  -58.4232 O.2       20 UNK        -0.5000 
    114 N         -0.4964  -21.8732  -56.2674 N.am      21 UNK        -0.5000 
    115 CA         0.8001  -21.2075  -56.1307 C.3       21 UNK         0.1400 
    116 CB         1.5196  -21.7648  -54.8924 C.3       21 UNK        -0.1800 
    117 C          0.7069  -19.6688  -56.0480 C.2       21 UNK         0.5000 
    118 O          1.7181  -19.0024  -56.2755 O.2       21 UNK        -0.5000 
    119 N         -0.4753  -19.1265  -55.7196 N.am      22 UNK        -0.5000 
    120 CA        -0.7568  -17.6821  -55.7042 C.3       22 UNK         0.1400 
    121 C         -0.6510  -17.0449  -57.1193 C.2       22 UNK         0.5000 
    122 N         -0.0300  -15.8792  -57.2386 N.am      22 UNK        -0.7600 
    123 O         -1.1684  -17.5740  -58.1004 O.2       22 UNK        -0.5000 
    124 C124       -2.1467  -17.3777  -55.0930 C.3       23 UNK        -0.0398 
    125 S125       -2.2567  -17.7799  -53.3141 S.3       23 UNK        -0.2404 
    126 C126       -2.9613  -16.2250  -52.6799 C.3       23 UNK        -0.0205 
    127 H127       -2.4346   -8.5702  -48.1185 H         1 UNK         0.0600 
    128 H128       -2.6178   -7.6973  -46.5943 H         1 UNK         0.0600 
    129 H129       -3.9510   -8.6733  -47.2202 H         1 UNK         0.0600 
    130 H130       -1.2065  -10.3941  -47.9069 H         1 UNK         0.3000 
    131 H131       -0.2730  -12.2601  -47.2498 H         1 UNK         0.0600 
    132 H132       -1.4064  -13.8471  -45.6991 H         1 UNK         0.0800 
    133 H133       -2.5476  -12.6239  -45.2334 H         1 UNK         0.0800 
    134 H134       -2.4581  -15.6943  -46.8557 H         1 UNK         0.0800 
    135 H135       -1.3154  -15.0633  -48.0245 H         1 UNK         0.0800 
    136 H136       -1.7991  -15.1696  -50.4367 H         1 UNK         0.1150 
    137 H137       -5.1413  -17.5284  -51.7197 H         1 UNK         0.1150 
    138 H138       -4.6709  -16.5551  -47.5705 H         1 UNK         0.1150 
    139 H139       -6.7702  -17.5293  -48.3698 H         1 UNK         0.0800 
    140 H140       -7.0581  -17.6723  -50.0832 H         1 UNK         0.0800 
    141 H141       -6.4632  -19.8949  -46.8827 H         1 UNK         0.0800 
    142 H142       -4.9550  -19.0496  -47.1533 H         1 UNK         0.0800 
    143 H143       -5.3458  -21.9962  -47.8051 H         1 UNK         0.0600 
    144 H144       -3.1188  -20.2664  -48.2330 H         1 UNK         0.3000 
    145 H145       -0.6534  -22.8132  -48.4801 H         1 UNK         0.0600 
    146 H146       -0.4375  -22.0774  -50.8075 H         1 UNK         0.0600 
    147 H147       -1.9545  -22.9478  -50.6437 H         1 UNK         0.0600 
    148 H148       -1.9624  -21.1924  -50.7255 H         1 UNK         0.0600 
    149 H149       -0.2939  -20.1804  -49.1755 H         1 UNK         0.3000 
    150 H150        1.0929  -18.9459  -47.8224 H         1 UNK         0.0600 
    151 H151       -1.0309  -17.7472  -48.0537 H         1 UNK         0.0600 
    152 H152       -0.0373  -16.8920  -46.8818 H         1 UNK         0.0600 
    153 H153       -1.3770  -17.9034  -46.3378 H         1 UNK         0.0600 
    154 H154        0.6269  -18.5711  -44.9515 H         1 UNK         0.3000 
    155 H155        3.1068  -20.5950  -43.8061 H         1 UNK         0.0600 
    156 H156        4.1092  -17.8200  -44.5994 H         1 UNK         0.0600 
    157 H157        4.9436  -19.3496  -44.8025 H         1 UNK         0.0600 
    158 H158        4.6663  -18.7165  -43.1876 H         1 UNK         0.0600 
    159 H159        2.1479  -17.9501  -42.9588 H         1 UNK         0.3000 
    160 H160       -0.6913  -19.3585  -41.2829 H         1 UNK         0.0600 
    161 H161        1.9045  -18.3001  -40.0517 H         1 UNK         0.0600 
    162 H162        1.1890  -19.8716  -39.7066 H         1 UNK         0.0600 
    163 H163        0.3363  -18.4044  -39.2521 H         1 UNK         0.0600 
    164 H164        0.2027  -16.7461  -41.0568 H         1 UNK         0.3000 
    165 H165       -1.2928  -15.3171  -43.9348 H         1 UNK         0.0600 
    166 H166       -2.1761  -15.3923  -41.0053 H         1 UNK         0.0600 
    167 H167       -2.6071  -14.1549  -42.1852 H         1 UNK         0.0600 
    168 H168       -3.1633  -15.8081  -42.3977 H         1 UNK         0.0600 
    169 H169        0.4146  -14.0916  -43.3352 H         1 UNK         0.3000 
    170 H170        1.8040  -12.6695  -41.3377 H         1 UNK         0.0600 
    171 H171        2.6214  -13.9198  -39.3667 H         1 UNK         0.0600 
    172 H172        3.2984  -15.1774  -40.3935 H         1 UNK         0.0600 
    173 H173        3.9716  -13.5480  -40.4255 H         1 UNK         0.0600 
    174 H174        2.8485  -12.9537  -43.2620 H         1 UNK         0.3000 
    175 H175        4.4492  -15.3131  -45.0176 H         1 UNK         0.0600 
    176 H176        1.4867  -15.0010  -45.7697 H         1 UNK         0.0600 
    177 H177        2.7904  -15.3979  -46.8888 H         1 UNK         0.0600 
    178 H178        2.3510  -16.5213  -45.6162 H         1 UNK         0.0600 
    179 H179        2.7610  -12.9235  -45.5436 H         1 UNK         0.3000 
    180 H180        5.3795  -10.6495  -45.0175 H         1 UNK         0.0600 
    181 H181        4.2102  -11.4487  -47.7387 H         1 UNK         0.0600 
    182 H182        5.9243  -11.3380  -47.3573 H         1 UNK         0.0600 
    183 H183        4.9320   -9.8894  -47.3382 H         1 UNK         0.0600 
    184 H184        2.7436  -10.3382  -46.0784 H         1 UNK         0.3000 
    185 H185        0.9675  -10.3135  -43.0100 H         1 UNK         0.0600 
    186 H186        1.7696   -7.9501  -44.7917 H         1 UNK         0.0600 
    187 H187        0.3853   -8.0074  -43.6999 H         1 UNK         0.0600 
    188 H188        2.0172   -8.0437  -43.0519 H         1 UNK         0.0600 
    189 H189        0.0917   -9.6298  -45.5931 H         1 UNK         0.3000 
    190 H190       -2.7710  -21.0691  -45.6553 H         1 UNK         0.3000 
    191 H191       -4.2491  -22.1700  -43.2942 H         1 UNK         0.0600 
    192 H192       -2.4265  -21.0807  -41.9865 H         1 UNK         0.0600 
    193 H193       -3.3222  -19.9056  -42.9402 H         1 UNK         0.0600 
    194 H194       -1.7321  -20.4396  -43.4720 H         1 UNK         0.0600 
    195 H195       -1.1242  -22.2719  -45.0819 H         1 UNK         0.3000 
    196 H196       -0.0109  -24.3530  -43.5040 H         1 UNK         0.0600 
    197 H197        0.8175  -23.2622  -46.2462 H         1 UNK         0.0600 
    198 H198        1.3249  -22.6253  -44.6840 H         1 UNK         0.0600 
    199 H199        1.8285  -24.2330  -45.1818 H         1 UNK         0.0600 
    200 H200       -1.8612  -24.4664  -46.5405 H         1 UNK         0.3000 
    201 H201       -1.5345  -27.4420  -46.6747 H         1 UNK         0.0600 
    202 H202       -1.6801  -25.4422  -48.9935 H         1 UNK         0.0600 
    203 H203       -1.5193  -27.1883  -49.1343 H         1 UNK         0.0600 
    204 H204       -0.2091  -26.2440  -48.4483 H         1 UNK         0.0600 
    205 H205       -3.6647  -25.3192  -45.6548 H         1 UNK         0.3000 
    206 H206       -5.8671  -25.0216  -45.5509 H         1 UNK         0.0600 
    207 H207       -5.7364  -27.3776  -44.7112 H         1 UNK         0.0600 
    208 H208       -7.2762  -27.0479  -45.4863 H         1 UNK         0.0600 
    209 H209       -6.0508  -27.9778  -46.3389 H         1 UNK         0.0600 
    210 H210       -4.6769  -24.2936  -48.0161 H         1 UNK         0.3000 
    211 H211       -5.1666  -23.3159  -49.9029 H         1 UNK         0.0600 
    212 H212       -7.4211  -22.7995  -50.6381 H         1 UNK         0.0600 
    213 H213       -7.3879  -22.6585  -48.8903 H         1 UNK         0.0600 
    214 H214       -8.1171  -24.0720  -49.6499 H         1 UNK         0.0600 
    215 H215       -4.9038  -26.5019  -49.6120 H         1 UNK         0.3000 
    216 H216       -5.8187  -27.4561  -52.1668 H         1 UNK         0.0600 
    217 H217       -3.6039  -28.5650  -50.3645 H         1 UNK         0.0600 
    218 H218       -4.4454  -29.4278  -51.6433 H         1 UNK         0.0600 
    219 H219       -5.3200  -28.9382  -50.1994 H         1 UNK         0.0600 
    220 H220       -2.9705  -25.7137  -51.1284 H         1 UNK         0.3000 
    221 H221       -1.5772  -26.0729  -53.7394 H         1 UNK         0.0600 
    222 H222       -0.3141  -26.5861  -51.6261 H         1 UNK         0.0600 
    223 H223       -0.5475  -24.9219  -51.0939 H         1 UNK         0.0600 
    224 H224        0.4014  -25.2650  -52.5319 H         1 UNK         0.0600 
    225 H225       -3.9894  -24.1546  -52.9201 H         1 UNK         0.3000 
    226 H226       -3.0406  -21.4990  -52.9353 H         1 UNK         0.0600 
    227 H227       -5.7731  -22.6217  -53.7298 H         1 UNK         0.0600 
    228 H228       -5.2775  -22.0921  -52.1204 H         1 UNK         0.0600 
    229 H229       -5.4322  -20.9234  -53.4171 H         1 UNK         0.0600 
    230 H230       -3.2083  -23.6569  -55.5987 H         1 UNK         0.3000 
    231 H231       -3.3659  -21.8274  -57.7875 H         1 UNK         0.0600 
    232 H232       -2.0000  -24.5637  -57.5394 H         1 UNK         0.0600 
    233 H233       -2.3509  -23.7338  -59.0507 H         1 UNK         0.0600 
    234 H234       -3.6711  -24.2825  -58.0315 H         1 UNK         0.0600 
    235 H235       -0.8374  -22.3541  -55.4404 H         1 UNK         0.3000 
    236 H236        1.4001  -21.4516  -57.0098 H         1 UNK         0.0600 
    237 H237        1.6271  -22.8481  -54.9508 H         1 UNK         0.0600 
    238 H238        2.5211  -21.3432  -54.7984 H         1 UNK         0.0600 
    239 H239        0.9779  -21.5307  -53.9751 H         1 UNK         0.0600 
    240 H240       -1.2704  -19.7335  -55.5643 H         1 UNK         0.3000 
    241 H241       -0.0014  -17.2145  -55.0694 H         1 UNK         0.0600 
    242 H242        0.0310  -15.4479  -58.1481 H         1 UNK         0.3800 
    243 H243        0.3982  -15.4233  -56.4473 H         1 UNK         0.3800 
    244 H244       -2.9280  -17.9237  -55.6239 H         1 UNK         0.0800 
    245 H245       -2.3854  -16.3206  -55.2244 H         1 UNK         0.0800 
    246 H246       -3.8185  -15.9391  -53.2917 H         1 UNK         0.0800 
    247 H247       -2.2249  -15.4270  -52.7877 H         1 UNK         0.0800 
@<TRIPOS>BOND
     1    1    2 1    
     2    1  127 1    
     3    1  128 1    
     4    1  129 1    
     5    2    3 2    
     6    2    4 am   BACKBONE|DICT|INTERRES
     7    4    5 1    
     8    4  130 1    
     9    5    6 1    
    10    5   65 1    
    11    5  131 1    
    12    6    7 1    
    13    6  132 1    
    14    6  133 1    
    15    7    8 1    
    16    8    9 1    
    17    8  134 1    
    18    8  135 1    
    19    9   10 ar   
    20    9   14 ar   
    21   10   11 ar   
    22   10  136 1    
    23   11   12 ar   
    24   11  126 1    
    25   12   13 ar   
    26   12  137 1    
    27   13   14 ar   
    28   13   15 1    
    29   14  138 1    
    30   15   16 1    
    31   15  139 1    
    32   15  140 1    
    33   16   17 1    
    34   17   18 1    
    35   17  141 1    
    36   17  142 1    
    37   18   19 1    
    38   18   67 1    
    39   18  143 1    
    40   19   20 am   BACKBONE|DICT|INTERRES
    41   19  144 1    
    42   20   21 2    
    43   20   22 1    
    44   22   23 1    
    45   22   24 1    
    46   22  145 1    
    47   23  146 1    
    48   23  147 1    
    49   23  148 1    
    50   24   25 am   BACKBONE|DICT|INTERRES
    51   24  149 1    
    52   25   26 2    
    53   25   27 1    
    54   27   28 1    
    55   27   29 1    
    56   27  150 1    
    57   28  151 1    
    58   28  152 1    
    59   28  153 1    
    60   29   30 am   BACKBONE|DICT|INTERRES
    61   29  154 1    
    62   30   31 2    
    63   30   32 1    
    64   32   33 1    
    65   32   34 1    
    66   32  155 1    
    67   33  156 1    
    68   33  157 1    
    69   33  158 1    
    70   34   35 am   BACKBONE|DICT|INTERRES
    71   34  159 1    
    72   35   36 2    
    73   35   37 1    
    74   37   38 1    
    75   37   39 1    
    76   37  160 1    
    77   38  161 1    
    78   38  162 1    
    79   38  163 1    
    80   39   40 am   BACKBONE|DICT|INTERRES
    81   39  164 1    
    82   40   41 2    
    83   40   42 1    
    84   42   43 1    
    85   42   44 1    
    86   42  165 1    
    87   43  166 1    
    88   43  167 1    
    89   43  168 1    
    90   44   45 am   BACKBONE|DICT|INTERRES
    91   44  169 1    
    92   45   46 2    
    93   45   47 1    
    94   47   48 1    
    95   47   49 1    
    96   47  170 1    
    97   48  171 1    
    98   48  172 1    
    99   48  173 1    
   100   49   50 am   BACKBONE|DICT|INTERRES
   101   49  174 1    
   102   50   51 2    
   103   50   52 1    
   104   52   53 1    
   105   52   54 1    
   106   52  175 1    
   107   53  176 1    
   108   53  177 1    
   109   53  178 1    
   110   54   55 am   BACKBONE|DICT|INTERRES
   111   54  179 1    
   112   55   56 2    
   113   55   57 1    
   114   57   58 1    
   115   57   59 1    
   116   57  180 1    
   117   58  181 1    
   118   58  182 1    
   119   58  183 1    
   120   59   60 am   BACKBONE|DICT|INTERRES
   121   59  184 1    
   122   60   61 2    
   123   60   62 1    
   124   62   63 1    
   125   62   64 1    
   126   62  185 1    
   127   63  186 1    
   128   63  187 1    
   129   63  188 1    
   130   64   65 am   BACKBONE|DICT|INTERRES
   131   64  189 1    
   132   65   66 2    
   133   67   68 2    
   134   67   69 am   BACKBONE|DICT|INTERRES
   135   69   70 1    
   136   69  190 1    
   137   70   71 1    
   138   70   72 1    
   139   70  191 1    
   140   71  192 1    
   141   71  193 1    
   142   71  194 1    
   143   72   73 2    
   144   72   74 am   BACKBONE|DICT|INTERRES
   145   74   75 1    
   146   74  195 1    
   147   75   76 1    
   148   75   77 1    
   149   75  196 1    
   150   76  197 1    
   151   76  198 1    
   152   76  199 1    
   153   77   78 2    
   154   77   79 am   BACKBONE|DICT|INTERRES
   155   79   80 1    
   156   79  200 1    
   157   80   81 1    
   158   80   82 1    
   159   80  201 1    
   160   81  202 1    
   161   81  203 1    
   162   81  204 1    
   163   82   83 2    
   164   82   84 am   BACKBONE|DICT|INTERRES
   165   84   85 1    
   166   84  205 1    
   167   85   86 1    
   168   85   87 1    
   169   85  206 1    
   170   86  207 1    
   171   86  208 1    
   172   86  209 1    
   173   87   88 2    
   174   87   89 am   BACKBONE|DICT|INTERRES
   175   89   90 1    
   176   89  210 1    
   177   90   91 1    
   178   90   92 1    
   179   90  211 1    
   180   91  212 1    
   181   91  213 1    
   182   91  214 1    
   183   92   93 2    
   184   92   94 am   BACKBONE|DICT|INTERRES
   185   94   95 1    
   186   94  215 1    
   187   95   96 1    
   188   95   97 1    
   189   95  216 1    
   190   96  217 1    
   191   96  218 1    
   192   96  219 1    
   193   97   98 2    
   194   97   99 am   BACKBONE|DICT|INTERRES
   195   99  100 1    
   196   99  220 1    
   197  100  101 1    
   198  100  102 1    
   199  100  221 1    
   200  101  222 1    
   201  101  223 1    
   202  101  224 1    
   203  102  103 2    
   204  102  104 am   BACKBONE|DICT|INTERRES
   205  104  105 1    
   206  104  225 1    
   207  105  106 1    
   208  105  107 1    
   209  105  226 1    
   210  106  227 1    
   211  106  228 1    
   212  106  229 1    
   213  107  108 2    
   214  107  109 am   BACKBONE|DICT|INTERRES
   215  109  110 1    
   216  109  230 1    
   217  110  111 1    
   218  110  112 1    
   219  110  231 1    
   220  111  232 1    
   221  111  233 1    
   222  111  234 1    
   223  112  113 2    
   224  112  114 am   BACKBONE|DICT|INTERRES
   225  114  115 1    
   226  114  235 1    
   227  115  116 1    
   228  115  117 1    
   229  115  236 1    
   230  116  237 1    
   231  116  238 1    
   232  116  239 1    
   233  117  118 2    
   234  117  119 am   BACKBONE|DICT|INTERRES
   235  119  120 1    
   236  119  240 1    
   237  120  121 1    
   238  120  124 1    
   239  120  241 1    
   240  121  122 am   BACKBONE|DICT|INTERRES
   241  121  123 2    
   242  122  242 1    
   243  122  243 1    
   244  124  125 1    
   245  124  244 1    
   246  124  245 1    
   247  125  126 1    
   248  126  246 1    
   249  126  247 1    
@<TRIPOS>SUBSTRUCTURE
     1 UNK         1 GROUP             0       ****    0 ROOT    
