@<TRIPOS>MOLECULE
3R540
247   249    1
SMALL
USER_CHARGES


@<TRIPOS>ATOM
      1 CA          0.4634  -12.4662  -52.5508 C.3       0 UNK        -0.1800 
      2 C           0.6641  -11.9724  -51.1244 C.2       0 UNK         0.5000 
      3 O           0.4317  -10.7963  -50.8424 O.2       0 UNK        -0.5000 
      4 N           1.1016  -12.8650  -50.2301 N.am      1 UNK        -0.5000 
      5 CA          1.2675  -12.6139  -48.7960 C.3       1 UNK         0.1400 
      6 C6          2.3249  -13.5649  -48.1731 C.3       23 UNK        -0.0398 
      7 S7          1.9329  -15.3432  -48.3340 S.3       23 UNK        -0.2404 
      8 C8          3.0587  -15.8228  -49.6775 C.3       23 UNK        -0.0205 
      9 C9          2.6779  -17.1766  -50.2503 C.ar      23 UNK        -0.0193 
     10 C10         1.7260  -17.2636  -51.2695 C.ar      23 UNK        -0.1150 
     11 C11         1.3859  -18.5025  -51.8193 C.ar      23 UNK        -0.0193 
     12 C12         1.9924  -19.6635  -51.3308 C.ar      23 UNK        -0.1150 
     13 C13         2.9428  -19.5888  -50.3076 C.ar      23 UNK        -0.0193 
     14 C14         3.2849  -18.3415  -49.7755 C.ar      23 UNK        -0.1150 
     15 C15         3.6188  -20.8508  -49.7909 C.3       23 UNK        -0.0205 
     16 S16         3.3032  -21.1188  -48.0191 S.3       23 UNK        -0.2404 
     17 C17         1.5181  -21.4923  -48.0005 C.3       23 UNK        -0.0398 
     18 CA          1.2276  -22.8516  -47.3238 C.3       11 UNK         0.1400 
     19 N           1.6421  -22.8537  -45.9226 N.am      11 UNK        -0.5000 
     20 C           1.9682  -23.9375  -45.2115 C.2       10 UNK         0.5000 
     21 O           1.9643  -25.0803  -45.6742 O.2       10 UNK        -0.5000 
     22 CA          2.3657  -23.6921  -43.7397 C.3       10 UNK         0.1400 
     23 CB          3.1032  -24.8860  -43.0984 C.3       10 UNK        -0.1800 
     24 N           3.1163  -22.4462  -43.5475 N.am      10 UNK        -0.5000 
     25 C           4.3164  -22.1149  -44.0495 C.2       9 UNK         0.5000 
     26 O           5.0090  -22.8755  -44.7268 O.2       9 UNK        -0.5000 
     27 CA          4.8433  -20.6934  -43.7483 C.3       9 UNK         0.1400 
     28 CB          4.8870  -19.8427  -45.0266 C.3       9 UNK        -0.1800 
     29 N           4.0562  -19.9755  -42.7445 N.am      9 UNK        -0.5000 
     30 C           4.1129  -20.1877  -41.4235 C.2       8 UNK         0.5000 
     31 O           4.8987  -20.9702  -40.8883 O.2       8 UNK        -0.5000 
     32 CA          3.0866  -19.4274  -40.5612 C.3       8 UNK         0.1400 
     33 CB          3.6116  -18.0319  -40.1920 C.3       8 UNK        -0.1800 
     34 N           1.7774  -19.3038  -41.2091 N.am      8 UNK        -0.5000 
     35 C           0.9798  -20.3378  -41.5155 C.2       7 UNK         0.5000 
     36 O           1.2486  -21.5094  -41.2517 O.2       7 UNK        -0.5000 
     37 CA         -0.3125  -20.0204  -42.2856 C.3       7 UNK         0.1400 
     38 CB         -1.3986  -19.5089  -41.3273 C.3       7 UNK        -0.1800 
     39 N          -0.1000  -19.0578  -43.3674 N.am      7 UNK        -0.5000 
     40 C           0.6478  -19.2888  -44.4570 C.2       6 UNK         0.5000 
     41 O           1.2115  -20.3582  -44.6805 O.2       6 UNK        -0.5000 
     42 CA          0.8386  -18.1190  -45.4412 C.3       6 UNK         0.1400 
     43 CB         -0.3605  -17.9927  -46.3938 C.3       6 UNK        -0.1800 
     44 N           1.0614  -16.8462  -44.7563 N.am      6 UNK        -0.5000 
     45 C           2.0961  -16.5920  -43.9427 C.2       5 UNK         0.5000 
     46 O           3.0160  -17.3825  -43.7333 O.2       5 UNK        -0.5000 
     47 CA          2.0587  -15.2574  -43.1807 C.3       5 UNK         0.1400 
     48 CB          2.5366  -14.0955  -44.0639 C.3       5 UNK        -0.1800 
     49 N           0.7200  -14.9716  -42.6643 N.am      5 UNK        -0.5000 
     50 C           0.1448  -15.6379  -41.6533 C.2       4 UNK         0.5000 
     51 O           0.7029  -16.5366  -41.0243 O.2       4 UNK        -0.5000 
     52 CA         -1.3082  -15.2597  -41.3092 C.3       4 UNK         0.1400 
     53 CB         -1.3417  -14.0513  -40.3619 C.3       4 UNK        -0.1800 
     54 N          -2.1137  -14.9667  -42.4958 N.am      4 UNK        -0.5000 
     55 C          -2.4669  -15.8768  -43.4146 C.2       3 UNK         0.5000 
     56 O          -2.1832  -17.0702  -43.3372 O.2       3 UNK        -0.5000 
     57 CA         -3.2163  -15.3575  -44.6562 C.3       3 UNK         0.1400 
     58 CB         -4.7304  -15.3316  -44.4018 C.3       3 UNK        -0.1800 
     59 N          -2.7695  -14.0322  -45.0986 N.am      3 UNK        -0.5000 
     60 C          -1.5177  -13.7441  -45.4786 C.2       2 UNK         0.5000 
     61 O          -0.5937  -14.5604  -45.4514 O.2       2 UNK        -0.5000 
     62 CA         -1.2411  -12.2866  -45.8933 C.3       2 UNK         0.1400 
     63 CB         -0.9447  -11.4338  -44.6495 C.3       2 UNK        -0.1800 
     64 N          -0.1050  -12.1855  -46.8104 N.am      2 UNK        -0.5000 
     65 C          -0.0895  -12.6765  -48.0567 C.2       1 UNK         0.5000 
     66 O          -1.0812  -13.1659  -48.6068 O.2       1 UNK        -0.5000 
     67 C          -0.2686  -23.1980  -47.4310 C.2       11 UNK         0.5000 
     68 O          -1.0650  -22.7707  -46.5906 O.2       11 UNK        -0.5000 
     69 N          -0.6298  -23.9281  -48.4959 N.am      12 UNK        -0.5000 
     70 CA         -1.9884  -24.4050  -48.7781 C.3       12 UNK         0.1400 
     71 CB         -1.9575  -25.2936  -50.0306 C.3       12 UNK        -0.1800 
     72 C          -3.0346  -23.2885  -48.9485 C.2       12 UNK         0.5000 
     73 O          -4.2086  -23.5160  -48.6593 O.2       12 UNK        -0.5000 
     74 N          -2.5921  -22.0982  -49.3779 N.am      13 UNK        -0.5000 
     75 CA         -3.4211  -20.9066  -49.5738 C.3       13 UNK         0.1400 
     76 CB         -2.5507  -19.7842  -50.1604 C.3       13 UNK        -0.1800 
     77 C          -4.1420  -20.4279  -48.2973 C.2       13 UNK         0.5000 
     78 O          -5.2447  -19.8907  -48.3908 O.2       13 UNK        -0.5000 
     79 N          -3.5369  -20.6621  -47.1233 N.am      14 UNK        -0.5000 
     80 CA         -4.1371  -20.3443  -45.8264 C.3       14 UNK         0.1400 
     81 CB         -3.0579  -20.3982  -44.7393 C.3       14 UNK        -0.1800 
     82 C          -5.3084  -21.2753  -45.4637 C.2       14 UNK         0.5000 
     83 O          -6.2570  -20.8306  -44.8169 O.2       14 UNK        -0.5000 
     84 N          -5.2237  -22.5433  -45.8867 N.am      15 UNK        -0.5000 
     85 CA         -6.2577  -23.5536  -45.6727 C.3       15 UNK         0.1400 
     86 CB         -5.6117  -24.9483  -45.6746 C.3       15 UNK        -0.1800 
     87 C          -7.3627  -23.4623  -46.7375 C.2       15 UNK         0.5000 
     88 O          -8.5433  -23.5670  -46.4032 O.2       15 UNK        -0.5000 
     89 N          -6.9574  -23.2712  -47.9996 N.am      16 UNK        -0.5000 
     90 CA         -7.8441  -23.2056  -49.1595 C.3       16 UNK         0.1400 
     91 CB         -7.0039  -23.3937  -50.4321 C.3       16 UNK        -0.1800 
     92 C          -8.6391  -21.8928  -49.2584 C.2       16 UNK         0.5000 
     93 O          -9.6910  -21.8821  -49.8975 O.2       16 UNK        -0.5000 
     94 N          -8.0942  -20.8017  -48.6991 N.am      17 UNK        -0.5000 
     95 CA         -8.5323  -19.3986  -48.7847 C.3       17 UNK         0.1400 
     96 CB         -9.9762  -19.2111  -48.2811 C.3       17 UNK        -0.1800 
     97 C          -8.3267  -18.7651  -50.1785 C.2       17 UNK         0.5000 
     98 O          -8.0274  -17.5731  -50.2650 O.2       17 UNK        -0.5000 
     99 N          -8.4546  -19.5724  -51.2378 N.am      18 UNK        -0.5000 
    100 CA        -8.0252  -19.2858  -52.6039 C.3       18 UNK         0.1400 
    101 CB        -8.6487  -20.3442  -53.5298 C.3       18 UNK        -0.1800 
    102 C         -6.4865  -19.2872  -52.7309 C.2       18 UNK         0.5000 
    103 O         -5.7821  -19.6665  -51.7936 O.2       18 UNK        -0.5000 
    104 N         -5.9915  -18.8851  -53.9092 N.am      19 UNK        -0.5000 
    105 CA        -4.5648  -18.7709  -54.2336 C.3       19 UNK         0.1400 
    106 CB        -4.4273  -18.1626  -55.6375 C.3       19 UNK        -0.1800 
    107 C         -3.7694  -20.0898  -54.1385 C.2       19 UNK         0.5000 
    108 O         -2.5672  -20.0428  -53.8752 O.2       19 UNK        -0.5000 
    109 N         -4.4486  -21.2300  -54.3446 N.am      20 UNK        -0.5000 
    110 CA        -3.9358  -22.6006  -54.2416 C.3       20 UNK         0.1400 
    111 CB        -3.7081  -22.9703  -52.7587 C.3       20 UNK        -0.1800 
    112 C         -2.6963  -22.8158  -55.1340 C.2       20 UNK         0.5000 
    113 O         -2.8286  -22.8039  -56.3591 O.2       20 UNK        -0.5000 
    114 N         -1.5156  -22.9531  -54.5144 N.am      21 UNK        -0.5000 
    115 CA        -0.2091  -23.0768  -55.1660 C.3       21 UNK         0.1400 
    116 CB         0.8611  -23.2883  -54.0833 C.3       21 UNK        -0.1800 
    117 C          0.1654  -21.8771  -56.0613 C.2       21 UNK         0.5000 
    118 O          0.9291  -22.0521  -57.0118 O.2       21 UNK        -0.5000 
    119 N         -0.3897  -20.6973  -55.7583 N.am      22 UNK        -0.5000 
    120 CA        -0.2646  -19.4761  -56.5668 C.3       22 UNK         0.1400 
    121 C         -1.3321  -19.3641  -57.6967 C.2       22 UNK         0.5000 
    122 N         -2.2573  -20.3047  -57.8549 N.am      22 UNK        -0.7600 
    123 O         -1.3149  -18.4036  -58.4614 O.2       22 UNK        -0.5000 
    124 C124       -0.2461  -18.2055  -55.6786 C.3       23 UNK        -0.0398 
    125 S125        1.1775  -18.1674  -54.5396 S.3       23 UNK        -0.2404 
    126 C126        0.3809  -18.5766  -52.9560 C.3       23 UNK        -0.0205 
    127 H127        0.7227  -13.5202  -52.6557 H         1 UNK         0.0600 
    128 H128        1.0862  -11.8932  -53.2378 H         1 UNK         0.0600 
    129 H129       -0.5779  -12.3415  -52.8476 H         1 UNK         0.0600 
    130 H130        1.2143  -13.8287  -50.5069 H         1 UNK         0.3000 
    131 H131        1.6430  -11.5952  -48.6759 H         1 UNK         0.0600 
    132 H132        3.2972  -13.3705  -48.6278 H         1 UNK         0.0800 
    133 H133        2.4621  -13.3425  -47.1150 H         1 UNK         0.0800 
    134 H134        3.0387  -15.0735  -50.4700 H         1 UNK         0.0800 
    135 H135        4.0823  -15.8430  -49.3000 H         1 UNK         0.0800 
    136 H136        1.2591  -16.3651  -51.6477 H         1 UNK         0.1150 
    137 H137        1.7342  -20.6221  -51.7580 H         1 UNK         0.1150 
    138 H138        4.0218  -18.2802  -48.9867 H         1 UNK         0.1150 
    139 H139        3.2991  -21.7301  -50.3524 H         1 UNK         0.0800 
    140 H140        4.6947  -20.7616  -49.9461 H         1 UNK         0.0800 
    141 H141        1.1396  -21.4846  -49.0239 H         1 UNK         0.0800 
    142 H142        1.0062  -20.6821  -47.4802 H         1 UNK         0.0800 
    143 H143        1.7954  -23.6211  -47.8520 H         1 UNK         0.0600 
    144 H144        1.6100  -21.9517  -45.4505 H         1 UNK         0.3000 
    145 H145        1.4279  -23.5606  -43.1984 H         1 UNK         0.0600 
    146 H146        3.3553  -24.6794  -42.0582 H         1 UNK         0.0600 
    147 H147        2.4799  -25.7808  -43.1086 H         1 UNK         0.0600 
    148 H148        4.0260  -25.1255  -43.6271 H         1 UNK         0.0600 
    149 H149        2.6287  -21.7376  -43.0147 H         1 UNK         0.3000 
    150 H150        5.8650  -20.7998  -43.3785 H         1 UNK         0.0600 
    151 H151        5.4725  -20.3307  -45.8067 H         1 UNK         0.0600 
    152 H152        5.3423  -18.8704  -44.8380 H         1 UNK         0.0600 
    153 H153        3.8865  -19.6696  -45.4237 H         1 UNK         0.0600 
    154 H154        3.4255  -19.2607  -43.0943 H         1 UNK         0.3000 
    155 H155        2.9481  -19.9928  -39.6374 H         1 UNK         0.0600 
    156 H156        4.5761  -18.0980  -39.6872 H         1 UNK         0.0600 
    157 H157        2.9259  -17.5189  -39.5174 H         1 UNK         0.0600 
    158 H158        3.7442  -17.4049  -41.0739 H         1 UNK         0.0600 
    159 H159        1.4609  -18.3619  -41.4176 H         1 UNK         0.3000 
    160 H160       -0.6687  -20.9499  -42.7349 H         1 UNK         0.0600 
    161 H161       -1.1135  -18.5672  -40.8591 H         1 UNK         0.0600 
    162 H162       -1.5847  -20.2286  -40.5292 H         1 UNK         0.0600 
    163 H163       -2.3435  -19.3496  -41.8450 H         1 UNK         0.0600 
    164 H164       -0.5985  -18.1760  -43.2919 H         1 UNK         0.3000 
    165 H165        1.7253  -18.3337  -46.0415 H         1 UNK         0.0600 
    166 H166       -0.1708  -17.2487  -47.1673 H         1 UNK         0.0600 
    167 H167       -0.5700  -18.9378  -46.8956 H         1 UNK         0.0600 
    168 H168       -1.2647  -17.6950  -45.8646 H         1 UNK         0.0600 
    169 H169        0.3741  -16.1131  -44.9120 H         1 UNK         0.3000 
    170 H170        2.7429  -15.3383  -42.3332 H         1 UNK         0.0600 
    171 H171        3.5378  -14.2873  -44.4517 H         1 UNK         0.0600 
    172 H172        1.8791  -13.9415  -44.9181 H         1 UNK         0.0600 
    173 H173        2.5777  -13.1633  -43.5006 H         1 UNK         0.0600 
    174 H174        0.1698  -14.3010  -43.1797 H         1 UNK         0.3000 
    175 H175       -1.7600  -16.1096  -40.7934 H         1 UNK         0.0600 
    176 H176       -0.7624  -14.2480  -39.4587 H         1 UNK         0.0600 
    177 H177       -0.9261  -13.1584  -40.8307 H         1 UNK         0.0600 
    178 H178       -2.3609  -13.8235  -40.0494 H         1 UNK         0.0600 
    179 H179       -2.3896  -14.0066  -42.6377 H         1 UNK         0.3000 
    180 H180       -3.0230  -16.0579  -45.4711 H         1 UNK         0.0600 
    181 H181       -5.0904  -16.3138  -44.0922 H         1 UNK         0.0600 
    182 H182       -4.9958  -14.6219  -43.6172 H         1 UNK         0.0600 
    183 H183       -5.2776  -15.0568  -45.3037 H         1 UNK         0.0600 
    184 H184       -3.4726  -13.3080  -45.1313 H         1 UNK         0.3000 
    185 H185       -2.1260  -11.8895  -46.3949 H         1 UNK         0.0600 
    186 H186       -1.7808  -11.4540  -43.9493 H         1 UNK         0.0600 
    187 H187       -0.0618  -11.7902  -44.1169 H         1 UNK         0.0600 
    188 H188       -0.7755  -10.3907  -44.9179 H         1 UNK         0.0600 
    189 H189        0.7456  -11.8081  -46.4205 H         1 UNK         0.3000 
    190 H190        0.0853  -24.2352  -49.1396 H         1 UNK         0.3000 
    191 H191       -2.3064  -25.0165  -47.9310 H         1 UNK         0.0600 
    192 H192       -1.5959  -24.7479  -50.9030 H         1 UNK         0.0600 
    193 H193       -2.9534  -25.6705  -50.2687 H         1 UNK         0.0600 
    194 H194       -1.3117  -26.1596  -49.8844 H         1 UNK         0.0600 
    195 H195       -1.6100  -22.0038  -49.5844 H         1 UNK         0.3000 
    196 H196       -4.1907  -21.1616  -50.3037 H         1 UNK         0.0600 
    197 H197       -3.1502  -18.8958  -50.3642 H         1 UNK         0.0600 
    198 H198       -2.0968  -20.0873  -51.1040 H         1 UNK         0.0600 
    199 H199       -1.7500  -19.4939  -49.4788 H         1 UNK         0.0600 
    200 H200       -2.6501  -21.1498  -47.1114 H         1 UNK         0.3000 
    201 H201       -4.5245  -19.3237  -45.8656 H         1 UNK         0.0600 
    202 H202       -3.4817  -20.1795  -43.7590 H         1 UNK         0.0600 
    203 H203       -2.5816  -21.3777  -44.6839 H         1 UNK         0.0600 
    204 H204       -2.2854  -19.6571  -44.9286 H         1 UNK         0.0600 
    205 H205       -4.4342  -22.8142  -46.4565 H         1 UNK         0.3000 
    206 H206       -6.7170  -23.3979  -44.6940 H         1 UNK         0.0600 
    207 H207       -4.8623  -25.0355  -44.8878 H         1 UNK         0.0600 
    208 H208       -6.3587  -25.7235  -45.4993 H         1 UNK         0.0600 
    209 H209       -5.1257  -25.1703  -46.6254 H         1 UNK         0.0600 
    210 H210       -5.9585  -23.2494  -48.1942 H         1 UNK         0.3000 
    211 H211       -8.5604  -24.0272  -49.0945 H         1 UNK         0.0600 
    212 H212       -7.6341  -23.4092  -51.3222 H         1 UNK         0.0600 
    213 H213       -6.4495  -24.3321  -50.4080 H         1 UNK         0.0600 
    214 H214       -6.2855  -22.5820  -50.5525 H         1 UNK         0.0600 
    215 H215       -7.1786  -20.9134  -48.2801 H         1 UNK         0.3000 
    216 H216       -7.8781  -18.8539  -48.1021 H         1 UNK         0.0600 
    217 H217      -10.2243  -18.1516  -48.2097 H         1 UNK         0.0600 
    218 H218      -10.1075  -19.6439  -47.2894 H         1 UNK         0.0600 
    219 H219      -10.7071  -19.6681  -48.9484 H         1 UNK         0.0600 
    220 H220       -8.7486  -20.5228  -51.0494 H         1 UNK         0.3000 
    221 H221       -8.3946  -18.2981  -52.8866 H         1 UNK         0.0600 
    222 H222       -8.2840  -21.3458  -53.2969 H         1 UNK         0.0600 
    223 H223       -9.7351  -20.3557  -53.4383 H         1 UNK         0.0600 
    224 H224       -8.4182  -20.1450  -54.5769 H         1 UNK         0.0600 
    225 H225       -6.6348  -18.5992  -54.6330 H         1 UNK         0.3000 
    226 H226       -4.1209  -18.0778  -53.5160 H         1 UNK         0.0600 
    227 H227       -3.3815  -18.0043  -55.8980 H         1 UNK         0.0600 
    228 H228       -4.8587  -18.8112  -56.4010 H         1 UNK         0.0600 
    229 H229       -4.9223  -17.1934  -55.6996 H         1 UNK         0.0600 
    230 H230       -5.4243  -21.1477  -54.5891 H         1 UNK         0.3000 
    231 H231       -4.7139  -23.2582  -54.6315 H         1 UNK         0.0600 
    232 H232       -4.6342  -22.8788  -52.1938 H         1 UNK         0.0600 
    233 H233       -2.9706  -22.3258  -52.2802 H         1 UNK         0.0600 
    234 H234       -3.3725  -24.0028  -52.6550 H         1 UNK         0.0600 
    235 H235       -1.5076  -22.9102  -53.5066 H         1 UNK         0.3000 
    236 H236       -0.2389  -23.9637  -55.8019 H         1 UNK         0.0600 
    237 H237        0.6556  -24.1810  -53.4922 H         1 UNK         0.0600 
    238 H238        1.8485  -23.4155  -54.5292 H         1 UNK         0.0600 
    239 H239        0.9161  -22.4379  -53.4024 H         1 UNK         0.0600 
    240 H240       -1.0373  -20.6410  -54.9782 H         1 UNK         0.3000 
    241 H241        0.6938  -19.5089  -57.0883 H         1 UNK         0.0600 
    242 H242       -2.2893  -21.1275  -57.2626 H         1 UNK         0.3800 
    243 H243       -2.9260  -20.2101  -58.6023 H         1 UNK         0.3800 
    244 H244       -0.1805  -17.3081  -56.2961 H         1 UNK         0.0800 
    245 H245       -1.1727  -18.1130  -55.1126 H         1 UNK         0.0800 
    246 H246       -0.0538  -19.5753  -53.0142 H         1 UNK         0.0800 
    247 H247       -0.4439  -17.8883  -52.7653 H         1 UNK         0.0800 
@<TRIPOS>BOND
     1    1    2 1    
     2    1  127 1    
     3    1  128 1    
     4    1  129 1    
     5    2    3 2    
     6    2    4 am   BACKBONE|DICT|INTERRES
     7    4    5 1    
     8    4  130 1    
     9    5    6 1    
    10    5   65 1    
    11    5  131 1    
    12    6    7 1    
    13    6  132 1    
    14    6  133 1    
    15    7    8 1    
    16    8    9 1    
    17    8  134 1    
    18    8  135 1    
    19    9   10 ar   
    20    9   14 ar   
    21   10   11 ar   
    22   10  136 1    
    23   11   12 ar   
    24   11  126 1    
    25   12   13 ar   
    26   12  137 1    
    27   13   14 ar   
    28   13   15 1    
    29   14  138 1    
    30   15   16 1    
    31   15  139 1    
    32   15  140 1    
    33   16   17 1    
    34   17   18 1    
    35   17  141 1    
    36   17  142 1    
    37   18   19 1    
    38   18   67 1    
    39   18  143 1    
    40   19   20 am   BACKBONE|DICT|INTERRES
    41   19  144 1    
    42   20   21 2    
    43   20   22 1    
    44   22   23 1    
    45   22   24 1    
    46   22  145 1    
    47   23  146 1    
    48   23  147 1    
    49   23  148 1    
    50   24   25 am   BACKBONE|DICT|INTERRES
    51   24  149 1    
    52   25   26 2    
    53   25   27 1    
    54   27   28 1    
    55   27   29 1    
    56   27  150 1    
    57   28  151 1    
    58   28  152 1    
    59   28  153 1    
    60   29   30 am   BACKBONE|DICT|INTERRES
    61   29  154 1    
    62   30   31 2    
    63   30   32 1    
    64   32   33 1    
    65   32   34 1    
    66   32  155 1    
    67   33  156 1    
    68   33  157 1    
    69   33  158 1    
    70   34   35 am   BACKBONE|DICT|INTERRES
    71   34  159 1    
    72   35   36 2    
    73   35   37 1    
    74   37   38 1    
    75   37   39 1    
    76   37  160 1    
    77   38  161 1    
    78   38  162 1    
    79   38  163 1    
    80   39   40 am   BACKBONE|DICT|INTERRES
    81   39  164 1    
    82   40   41 2    
    83   40   42 1    
    84   42   43 1    
    85   42   44 1    
    86   42  165 1    
    87   43  166 1    
    88   43  167 1    
    89   43  168 1    
    90   44   45 am   BACKBONE|DICT|INTERRES
    91   44  169 1    
    92   45   46 2    
    93   45   47 1    
    94   47   48 1    
    95   47   49 1    
    96   47  170 1    
    97   48  171 1    
    98   48  172 1    
    99   48  173 1    
   100   49   50 am   BACKBONE|DICT|INTERRES
   101   49  174 1    
   102   50   51 2    
   103   50   52 1    
   104   52   53 1    
   105   52   54 1    
   106   52  175 1    
   107   53  176 1    
   108   53  177 1    
   109   53  178 1    
   110   54   55 am   BACKBONE|DICT|INTERRES
   111   54  179 1    
   112   55   56 2    
   113   55   57 1    
   114   57   58 1    
   115   57   59 1    
   116   57  180 1    
   117   58  181 1    
   118   58  182 1    
   119   58  183 1    
   120   59   60 am   BACKBONE|DICT|INTERRES
   121   59  184 1    
   122   60   61 2    
   123   60   62 1    
   124   62   63 1    
   125   62   64 1    
   126   62  185 1    
   127   63  186 1    
   128   63  187 1    
   129   63  188 1    
   130   64   65 am   BACKBONE|DICT|INTERRES
   131   64  189 1    
   132   65   66 2    
   133   67   68 2    
   134   67   69 am   BACKBONE|DICT|INTERRES
   135   69   70 1    
   136   69  190 1    
   137   70   71 1    
   138   70   72 1    
   139   70  191 1    
   140   71  192 1    
   141   71  193 1    
   142   71  194 1    
   143   72   73 2    
   144   72   74 am   BACKBONE|DICT|INTERRES
   145   74   75 1    
   146   74  195 1    
   147   75   76 1    
   148   75   77 1    
   149   75  196 1    
   150   76  197 1    
   151   76  198 1    
   152   76  199 1    
   153   77   78 2    
   154   77   79 am   BACKBONE|DICT|INTERRES
   155   79   80 1    
   156   79  200 1    
   157   80   81 1    
   158   80   82 1    
   159   80  201 1    
   160   81  202 1    
   161   81  203 1    
   162   81  204 1    
   163   82   83 2    
   164   82   84 am   BACKBONE|DICT|INTERRES
   165   84   85 1    
   166   84  205 1    
   167   85   86 1    
   168   85   87 1    
   169   85  206 1    
   170   86  207 1    
   171   86  208 1    
   172   86  209 1    
   173   87   88 2    
   174   87   89 am   BACKBONE|DICT|INTERRES
   175   89   90 1    
   176   89  210 1    
   177   90   91 1    
   178   90   92 1    
   179   90  211 1    
   180   91  212 1    
   181   91  213 1    
   182   91  214 1    
   183   92   93 2    
   184   92   94 am   BACKBONE|DICT|INTERRES
   185   94   95 1    
   186   94  215 1    
   187   95   96 1    
   188   95   97 1    
   189   95  216 1    
   190   96  217 1    
   191   96  218 1    
   192   96  219 1    
   193   97   98 2    
   194   97   99 am   BACKBONE|DICT|INTERRES
   195   99  100 1    
   196   99  220 1    
   197  100  101 1    
   198  100  102 1    
   199  100  221 1    
   200  101  222 1    
   201  101  223 1    
   202  101  224 1    
   203  102  103 2    
   204  102  104 am   BACKBONE|DICT|INTERRES
   205  104  105 1    
   206  104  225 1    
   207  105  106 1    
   208  105  107 1    
   209  105  226 1    
   210  106  227 1    
   211  106  228 1    
   212  106  229 1    
   213  107  108 2    
   214  107  109 am   BACKBONE|DICT|INTERRES
   215  109  110 1    
   216  109  230 1    
   217  110  111 1    
   218  110  112 1    
   219  110  231 1    
   220  111  232 1    
   221  111  233 1    
   222  111  234 1    
   223  112  113 2    
   224  112  114 am   BACKBONE|DICT|INTERRES
   225  114  115 1    
   226  114  235 1    
   227  115  116 1    
   228  115  117 1    
   229  115  236 1    
   230  116  237 1    
   231  116  238 1    
   232  116  239 1    
   233  117  118 2    
   234  117  119 am   BACKBONE|DICT|INTERRES
   235  119  120 1    
   236  119  240 1    
   237  120  121 1    
   238  120  124 1    
   239  120  241 1    
   240  121  122 am   BACKBONE|DICT|INTERRES
   241  121  123 2    
   242  122  242 1    
   243  122  243 1    
   244  124  125 1    
   245  124  244 1    
   246  124  245 1    
   247  125  126 1    
   248  126  246 1    
   249  126  247 1    
@<TRIPOS>SUBSTRUCTURE
     1 UNK         1 GROUP             0       ****    0 ROOT    
