@<TRIPOS>MOLECULE
3R540
247   249    1
SMALL
USER_CHARGES


@<TRIPOS>ATOM
      1 CA         -4.5142  -16.6613  -43.0884 C.3       0 UNK        -0.1800 
      2 C          -3.9516  -15.3528  -43.6218 C.2       0 UNK         0.5000 
      3 O          -4.1013  -14.3101  -42.9841 O.2       0 UNK        -0.5000 
      4 N          -3.2994  -15.4004  -44.7876 N.am      1 UNK        -0.5000 
      5 CA         -2.7199  -14.2507  -45.4847 C.3       1 UNK         0.1400 
      6 C6         -2.8012  -14.4322  -47.0232 C.3       23 UNK        -0.0398 
      7 S7         -4.4085  -13.8736  -47.6790 S.3       23 UNK        -0.2404 
      8 C8         -5.4716  -15.3336  -47.4525 C.3       23 UNK        -0.0205 
      9 C9         -5.2826  -16.3748  -48.5436 C.ar      23 UNK        -0.0193 
     10 C10        -5.7797  -16.1306  -49.8253 C.ar      23 UNK        -0.1150 
     11 C11        -5.6865  -17.1039  -50.8226 C.ar      23 UNK        -0.0193 
     12 C12        -5.1041  -18.3385  -50.5209 C.ar      23 UNK        -0.1150 
     13 C13        -4.5849  -18.5918  -49.2471 C.ar      23 UNK        -0.0193 
     14 C14        -4.6692  -17.5994  -48.2648 C.ar      23 UNK        -0.1150 
     15 C15        -3.9303  -19.9340  -48.9463 C.3       23 UNK        -0.0205 
     16 S16        -4.9922  -21.0246  -47.9492 S.3       23 UNK        -0.2404 
     17 C17        -4.3465  -20.7540  -46.2596 C.3       23 UNK        -0.0398 
     18 CA         -3.2704  -21.7849  -45.8281 C.3       11 UNK         0.1400 
     19 N          -2.5107  -21.3027  -44.6633 N.am      11 UNK        -0.5000 
     20 C          -1.4953  -21.9408  -44.0605 C.2       10 UNK         0.5000 
     21 O          -1.1067  -23.0639  -44.3850 O.2       10 UNK        -0.5000 
     22 CA         -0.8155  -21.1948  -42.8972 C.3       10 UNK         0.1400 
     23 CB          0.3806  -21.9636  -42.3092 C.3       10 UNK        -0.1800 
     24 N          -0.3495  -19.8873  -43.3472 N.am      10 UNK        -0.5000 
     25 C          -0.9444  -18.7189  -43.0822 C.2       9 UNK         0.5000 
     26 O          -1.9704  -18.6089  -42.4129 O.2       9 UNK        -0.5000 
     27 CA         -0.3028  -17.4690  -43.7090 C.3       9 UNK         0.1400 
     28 CB          0.9751  -17.0718  -42.9529 C.3       9 UNK        -0.1800 
     29 N           0.0127  -17.6710  -45.1217 N.am      9 UNK        -0.5000 
     30 C          -0.8843  -17.8815  -46.0949 C.2       8 UNK         0.5000 
     31 O          -2.1027  -17.8265  -45.9227 O.2       8 UNK        -0.5000 
     32 CA         -0.3231  -18.2472  -47.4813 C.3       8 UNK         0.1400 
     33 CB         -0.0263  -16.9970  -48.3203 C.3       8 UNK        -0.1800 
     34 N           0.8885  -19.0578  -47.3613 N.am      8 UNK        -0.5000 
     35 C           0.8851  -20.3819  -47.1513 C.2       7 UNK         0.5000 
     36 O          -0.1384  -21.0613  -47.1428 O.2       7 UNK        -0.5000 
     37 CA          2.2437  -21.0688  -46.9092 C.3       7 UNK         0.1400 
     38 CB          2.7746  -21.6924  -48.2084 C.3       7 UNK        -0.1800 
     39 N           3.2565  -20.1624  -46.3652 N.am      7 UNK        -0.5000 
     40 C           3.2458  -19.6890  -45.1118 C.2       6 UNK         0.5000 
     41 O           2.4028  -20.0061  -44.2740 O.2       6 UNK        -0.5000 
     42 CA          4.3184  -18.6392  -44.7563 C.3       6 UNK         0.1400 
     43 CB          5.5994  -19.3248  -44.2594 C.3       6 UNK        -0.1800 
     44 N           4.6479  -17.7347  -45.8653 N.am      6 UNK        -0.5000 
     45 C           3.7661  -16.9338  -46.4788 C.2       5 UNK         0.5000 
     46 O           2.5710  -16.8998  -46.1838 O.2       5 UNK        -0.5000 
     47 CA          4.2930  -16.1053  -47.6661 C.3       5 UNK         0.1400 
     48 CB          4.4278  -17.0005  -48.9091 C.3       5 UNK        -0.1800 
     49 N           3.4235  -14.9770  -48.0077 N.am      5 UNK        -0.5000 
     50 C           3.2073  -13.9002  -47.2409 C.2       4 UNK         0.5000 
     51 O           3.7653  -13.7210  -46.1553 O.2       4 UNK        -0.5000 
     52 CA          2.2555  -12.8223  -47.8047 C.3       4 UNK         0.1400 
     53 CB          1.1778  -13.3726  -48.7601 C.3       4 UNK        -0.1800 
     54 N           1.5864  -12.1155  -46.7159 N.am      4 UNK        -0.5000 
     55 C           1.9060  -10.8936  -46.2685 C.2       3 UNK         0.5000 
     56 O           2.7945  -10.1964  -46.7611 O.2       3 UNK        -0.5000 
     57 CA          1.0892  -10.3342  -45.0834 C.3       3 UNK         0.1400 
     58 CB          0.0775   -9.2876  -45.5767 C.3       3 UNK        -0.1800 
     59 N           0.3668  -11.3653  -44.3375 N.am      3 UNK        -0.5000 
     60 C           0.9348  -12.2456  -43.5029 C.2       2 UNK         0.5000 
     61 O           2.1234  -12.2121  -43.1842 O.2       2 UNK        -0.5000 
     62 CA          0.0315  -13.3587  -42.9341 C.3       2 UNK         0.1400 
     63 CB         -0.3335  -13.0684  -41.4707 C.3       2 UNK        -0.1800 
     64 N          -1.2037  -13.6022  -43.6870 N.am      2 UNK        -0.5000 
     65 C          -1.2905  -14.0133  -44.9597 C.2       1 UNK         0.5000 
     66 O          -0.3128  -14.2050  -45.6823 O.2       1 UNK        -0.5000 
     67 C          -3.8718  -23.1952  -45.6261 C.2       11 UNK         0.5000 
     68 O          -3.8341  -24.0128  -46.5474 O.2       11 UNK        -0.5000 
     69 N          -4.3725  -23.4679  -44.4121 N.am      12 UNK        -0.5000 
     70 CA         -4.9323  -24.7613  -44.0184 C.3       12 UNK         0.1400 
     71 CB         -5.6606  -24.6121  -42.6743 C.3       12 UNK        -0.1800 
     72 C          -3.8745  -25.8781  -43.9423 C.2       12 UNK         0.5000 
     73 O          -4.1429  -26.9949  -44.3849 O.2       12 UNK        -0.5000 
     74 N          -2.6841  -25.5550  -43.4157 N.am      13 UNK        -0.5000 
     75 CA         -1.5469  -26.4757  -43.3164 C.3       13 UNK         0.1400 
     76 CB         -0.5058  -25.9098  -42.3403 C.3       13 UNK        -0.1800 
     77 C          -0.9076  -26.7515  -44.6885 C.2       13 UNK         0.5000 
     78 O          -0.4794  -27.8758  -44.9496 O.2       13 UNK        -0.5000 
     79 N          -0.9017  -25.7293  -45.5542 N.am      14 UNK        -0.5000 
     80 CA         -0.4948  -25.8087  -46.9570 C.3       14 UNK         0.1400 
     81 CB         -0.2256  -24.3851  -47.4708 C.3       14 UNK        -0.1800 
     82 C          -1.5267  -26.5194  -47.8580 C.2       14 UNK         0.5000 
     83 O          -1.2459  -26.7149  -49.0396 O.2       14 UNK        -0.5000 
     84 N          -2.7074  -26.8576  -47.3145 N.am      15 UNK        -0.5000 
     85 CA         -3.8491  -27.4915  -47.9851 C.3       15 UNK         0.1400 
     86 CB         -3.5157  -28.9525  -48.3507 C.3       15 UNK        -0.1800 
     87 C          -4.3656  -26.6716  -49.1873 C.2       15 UNK         0.5000 
     88 O          -4.7725  -27.2411  -50.2014 O.2       15 UNK        -0.5000 
     89 N          -4.3038  -25.3395  -49.0489 N.am      16 UNK        -0.5000 
     90 CA         -4.6336  -24.3152  -50.0405 C.3       16 UNK         0.1400 
     91 CB         -6.1387  -24.3321  -50.3761 C.3       16 UNK        -0.1800 
     92 C          -3.7423  -24.3209  -51.3015 C.2       16 UNK         0.5000 
     93 O          -4.1079  -23.6884  -52.2917 O.2       16 UNK        -0.5000 
     94 N          -2.5653  -24.9679  -51.2564 N.am      17 UNK        -0.5000 
     95 CA         -1.6034  -25.0012  -52.3682 C.3       17 UNK         0.1400 
     96 CB         -0.4691  -25.9825  -52.0414 C.3       17 UNK        -0.1800 
     97 C          -1.0261  -23.6154  -52.7231 C.2       17 UNK         0.5000 
     98 O          -0.6480  -23.3834  -53.8718 O.2       17 UNK        -0.5000 
     99 N          -1.0092  -22.7068  -51.7384 N.am      18 UNK        -0.5000 
    100 CA        -0.6050  -21.3098  -51.8833 C.3       18 UNK         0.1400 
    101 CB        -0.3463  -20.7215  -50.4906 C.3       18 UNK        -0.1800 
    102 C         -1.6101  -20.4392  -52.6624 C.2       18 UNK         0.5000 
    103 O         -1.2643  -19.3086  -53.0040 O.2       18 UNK        -0.5000 
    104 N         -2.8132  -20.9550  -52.9662 N.am      19 UNK        -0.5000 
    105 CA        -3.8623  -20.2536  -53.7191 C.3       19 UNK         0.1400 
    106 CB        -5.1795  -21.0378  -53.6281 C.3       19 UNK        -0.1800 
    107 C         -3.5084  -19.9317  -55.1866 C.2       19 UNK         0.5000 
    108 O         -4.2378  -19.1818  -55.8353 O.2       19 UNK        -0.5000 
    109 N         -2.3826  -20.4648  -55.6792 N.am      20 UNK        -0.5000 
    110 CA        -1.7479  -20.0543  -56.9307 C.3       20 UNK         0.1400 
    111 CB        -0.6494  -21.0697  -57.2807 C.3       20 UNK        -0.1800 
    112 C         -1.1633  -18.6246  -56.8729 C.2       20 UNK         0.5000 
    113 O         -0.9916  -18.0102  -57.9266 O.2       20 UNK        -0.5000 
    114 N         -0.8650  -18.1267  -55.6634 N.am      21 UNK        -0.5000 
    115 CA        -0.3062  -16.7981  -55.4127 C.3       21 UNK         0.1400 
    116 CB         1.1033  -16.9524  -54.8182 C.3       21 UNK        -0.1800 
    117 C         -1.1966  -15.9643  -54.4748 C.2       21 UNK         0.5000 
    118 O         -1.3795  -14.7734  -54.7324 O.2       21 UNK        -0.5000 
    119 N         -1.7272  -16.5937  -53.4158 N.am      22 UNK        -0.5000 
    120 CA        -2.4830  -15.9730  -52.3105 C.3       22 UNK         0.1400 
    121 C         -1.6258  -14.9931  -51.4475 C.2       22 UNK         0.5000 
    122 N         -2.2220  -14.2907  -50.4934 N.am      22 UNK        -0.7600 
    123 O         -0.4105  -14.8846  -51.5949 O.2       22 UNK        -0.5000 
    124 C124       -3.8424  -15.3628  -52.7689 C.3       23 UNK        -0.0398 
    125 S125       -4.9506  -16.6258  -53.4836 S.3       23 UNK        -0.2404 
    126 C126       -6.2439  -16.8212  -52.2121 C.3       23 UNK        -0.0205 
    127 H127       -4.1235  -16.8588  -42.0903 H         1 UNK         0.0600 
    128 H128       -4.2522  -17.5039  -43.7294 H         1 UNK         0.0600 
    129 H129       -5.6008  -16.6050  -43.0263 H         1 UNK         0.0600 
    130 H130       -3.1180  -16.3021  -45.2203 H         1 UNK         0.3000 
    131 H131       -3.2813  -13.3496  -45.2270 H         1 UNK         0.0600 
    132 H132       -2.0451  -13.8326  -47.5321 H         1 UNK         0.0800 
    133 H133       -2.6179  -15.4654  -47.3167 H         1 UNK         0.0800 
    134 H134       -6.5111  -15.0029  -47.4657 H         1 UNK         0.0800 
    135 H135       -5.3165  -15.7704  -46.4669 H         1 UNK         0.0800 
    136 H136       -6.2537  -15.1827  -50.0392 H         1 UNK         0.1150 
    137 H137       -5.0563  -19.1040  -51.2792 H         1 UNK         0.1150 
    138 H138       -4.2842  -17.7878  -47.2748 H         1 UNK         0.1150 
    139 H139       -2.9824  -19.7827  -48.4357 H         1 UNK         0.0800 
    140 H140       -3.6927  -20.4494  -49.8781 H         1 UNK         0.0800 
    141 H141       -5.1868  -20.7580  -45.5632 H         1 UNK         0.0800 
    142 H142       -3.9333  -19.7479  -46.2083 H         1 UNK         0.0800 
    143 H143       -2.5494  -21.8699  -46.6421 H         1 UNK         0.0600 
    144 H144       -2.7424  -20.3770  -44.3321 H         1 UNK         0.3000 
    145 H145       -1.5580  -21.0842  -42.1045 H         1 UNK         0.0600 
    146 H146        0.8859  -21.3780  -41.5412 H         1 UNK         0.0600 
    147 H147        0.0534  -22.8910  -41.8408 H         1 UNK         0.0600 
    148 H148        1.1170  -22.2150  -43.0738 H         1 UNK         0.0600 
    149 H149        0.5127  -19.8859  -43.8858 H         1 UNK         0.3000 
    150 H150       -1.0140  -16.6463  -43.6359 H         1 UNK         0.0600 
    151 H151        1.6528  -17.9150  -42.8230 H         1 UNK         0.0600 
    152 H152        0.7341  -16.6937  -41.9589 H         1 UNK         0.0600 
    153 H153        1.5247  -16.2929  -43.4813 H         1 UNK         0.0600 
    154 H154        0.9933  -17.6251  -45.3814 H         1 UNK         0.3000 
    155 H155       -1.0781  -18.8229  -48.0129 H         1 UNK         0.0600 
    156 H156        0.6459  -16.3166  -47.8002 H         1 UNK         0.0600 
    157 H157       -0.9411  -16.4495  -48.5436 H         1 UNK         0.0600 
    158 H158        0.4309  -17.2576  -49.2749 H         1 UNK         0.0600 
    159 H159        1.7594  -18.5501  -47.2882 H         1 UNK         0.3000 
    160 H160        2.0795  -21.8729  -46.1882 H         1 UNK         0.0600 
    161 H161        2.9373  -20.9395  -48.9807 H         1 UNK         0.0600 
    162 H162        2.0706  -22.4255  -48.6041 H         1 UNK         0.0600 
    163 H163        3.7180  -22.2120  -48.0401 H         1 UNK         0.0600 
    164 H164        3.9840  -19.8555  -46.9936 H         1 UNK         0.3000 
    165 H165        3.9211  -18.0297  -43.9422 H         1 UNK         0.0600 
    166 H166        6.3305  -18.5932  -43.9147 H         1 UNK         0.0600 
    167 H167        6.0660  -19.9241  -45.0422 H         1 UNK         0.0600 
    168 H168        5.3864  -19.9887  -43.4204 H         1 UNK         0.0600 
    169 H169        5.6116  -17.7270  -46.1675 H         1 UNK         0.3000 
    170 H170        5.2765  -15.7112  -47.4020 H         1 UNK         0.0600 
    171 H171        5.1040  -17.8362  -48.7253 H         1 UNK         0.0600 
    172 H172        3.4656  -17.4169  -49.2115 H         1 UNK         0.0600 
    173 H173        4.8313  -16.4428  -49.7546 H         1 UNK         0.0600 
    174 H174        2.9116  -15.0568  -48.8732 H         1 UNK         0.3000 
    175 H175        2.8772  -12.1311  -48.3767 H         1 UNK         0.0600 
    176 H176        0.5265  -14.0897  -48.2633 H         1 UNK         0.0600 
    177 H177        0.5471  -12.5665  -49.1350 H         1 UNK         0.0600 
    178 H178        1.6128  -13.8593  -49.6335 H         1 UNK         0.0600 
    179 H179        0.8948  -12.6596  -46.2111 H         1 UNK         0.3000 
    180 H180        1.7889   -9.8405  -44.4057 H         1 UNK         0.0600 
    181 H181       -0.6544   -9.7248  -46.2570 H         1 UNK         0.0600 
    182 H182        0.5796   -8.4795  -46.1104 H         1 UNK         0.0600 
    183 H183       -0.4632   -8.8375  -44.7439 H         1 UNK         0.0600 
    184 H184       -0.6199  -11.4559  -44.5271 H         1 UNK         0.3000 
    185 H185        0.6171  -14.2761  -42.9603 H         1 UNK         0.0600 
    186 H186       -0.8834  -13.8999  -41.0290 H         1 UNK         0.0600 
    187 H187        0.5612  -12.9152  -40.8657 H         1 UNK         0.0600 
    188 H188       -0.9486  -12.1722  -41.3810 H         1 UNK         0.0600 
    189 H189       -2.0705  -13.5052  -43.1704 H         1 UNK         0.3000 
    190 H190       -4.3539  -22.7456  -43.7074 H         1 UNK         0.3000 
    191 H191       -5.6674  -25.0533  -44.7717 H         1 UNK         0.0600 
    192 H192       -6.1051  -25.5589  -42.3643 H         1 UNK         0.0600 
    193 H193       -6.4681  -23.8828  -42.7423 H         1 UNK         0.0600 
    194 H194       -4.9841  -24.2918  -41.8809 H         1 UNK         0.0600 
    195 H195       -2.5172  -24.5987  -43.1387 H         1 UNK         0.3000 
    196 H196       -1.9092  -27.4246  -42.9149 H         1 UNK         0.0600 
    197 H197       -0.0368  -25.0091  -42.7350 H         1 UNK         0.0600 
    198 H198       -0.9522  -25.6673  -41.3758 H         1 UNK         0.0600 
    199 H199        0.2883  -26.6351  -42.1593 H         1 UNK         0.0600 
    200 H200       -1.2070  -24.8175  -45.2242 H         1 UNK         0.3000 
    201 H201        0.4358  -26.3763  -47.0163 H         1 UNK         0.0600 
    202 H202       -1.1291  -23.7748  -47.4551 H         1 UNK         0.0600 
    203 H203        0.1452  -24.3967  -48.4964 H         1 UNK         0.0600 
    204 H204        0.5241  -23.8815  -46.8605 H         1 UNK         0.0600 
    205 H205       -2.8564  -26.6221  -46.3427 H         1 UNK         0.3000 
    206 H206       -4.6609  -27.5081  -47.2566 H         1 UNK         0.0600 
    207 H207       -3.1631  -29.5049  -47.4796 H         1 UNK         0.0600 
    208 H208       -4.3965  -29.4725  -48.7288 H         1 UNK         0.0600 
    209 H209       -2.7450  -29.0115  -49.1200 H         1 UNK         0.0600 
    210 H210       -3.9840  -24.9751  -48.1530 H         1 UNK         0.3000 
    211 H211       -4.4226  -23.3658  -49.5507 H         1 UNK         0.0600 
    212 H212       -6.4144  -23.4701  -50.9848 H         1 UNK         0.0600 
    213 H213       -6.7436  -24.2917  -49.4702 H         1 UNK         0.0600 
    214 H214       -6.4207  -25.2271  -50.9310 H         1 UNK         0.0600 
    215 H215       -2.3156  -25.4929  -50.4254 H         1 UNK         0.3000 
    216 H216       -2.1290  -25.3716  -53.2508 H         1 UNK         0.0600 
    217 H217        0.1021  -25.6603  -51.1698 H         1 UNK         0.0600 
    218 H218        0.2273  -26.0675  -52.8765 H         1 UNK         0.0600 
    219 H219       -0.8569  -26.9812  -51.8392 H         1 UNK         0.0600 
    220 H220       -1.3379  -22.9917  -50.8281 H         1 UNK         0.3000 
    221 H221        0.3340  -21.2825  -52.4399 H         1 UNK         0.0600 
    222 H222        0.4591  -21.2581  -49.9925 H         1 UNK         0.0600 
    223 H223       -1.2285  -20.7812  -49.8545 H         1 UNK         0.0600 
    224 H224       -0.0487  -19.6734  -50.5473 H         1 UNK         0.0600 
    225 H225       -3.0316  -21.9040  -52.6838 H         1 UNK         0.3000 
    226 H226       -4.0079  -19.2925  -53.2297 H         1 UNK         0.0600 
    227 H227       -5.1085  -21.9984  -54.1392 H         1 UNK         0.0600 
    228 H228       -5.4593  -21.2266  -52.5916 H         1 UNK         0.0600 
    229 H229       -5.9977  -20.4818  -54.0874 H         1 UNK         0.0600 
    230 H230       -1.8603  -21.1003  -55.0931 H         1 UNK         0.3000 
    231 H231       -2.5005  -20.0740  -57.7217 H         1 UNK         0.0600 
    232 H232        0.1253  -21.1043  -56.5135 H         1 UNK         0.0600 
    233 H233       -0.1664  -20.8139  -58.2247 H         1 UNK         0.0600 
    234 H234       -1.0598  -22.0740  -57.3882 H         1 UNK         0.0600 
    235 H235       -1.0566  -18.6907  -54.8423 H         1 UNK         0.3000 
    236 H236       -0.2163  -16.2396  -56.3466 H         1 UNK         0.0600 
    237 H237        1.7676  -17.4693  -55.5108 H         1 UNK         0.0600 
    238 H238        1.5467  -15.9787  -54.6057 H         1 UNK         0.0600 
    239 H239        1.0870  -17.5169  -53.8848 H         1 UNK         0.0600 
    240 H240       -1.4978  -17.5737  -53.2695 H         1 UNK         0.3000 
    241 H241       -2.7054  -16.7977  -51.6324 H         1 UNK         0.0600 
    242 H242       -1.6594  -13.6572  -49.9509 H         1 UNK         0.3800 
    243 H243       -3.2060  -14.3747  -50.2950 H         1 UNK         0.3800 
    244 H244       -3.6841  -14.5814  -53.5123 H         1 UNK         0.0800 
    245 H245       -4.3624  -14.8752  -51.9454 H         1 UNK         0.0800 
    246 H246       -6.8639  -15.9235  -52.2026 H         1 UNK         0.0800 
    247 H247       -6.9021  -17.6401  -52.5057 H         1 UNK         0.0800 
@<TRIPOS>BOND
     1    1    2 1    
     2    1  127 1    
     3    1  128 1    
     4    1  129 1    
     5    2    3 2    
     6    2    4 am   BACKBONE|DICT|INTERRES
     7    4    5 1    
     8    4  130 1    
     9    5    6 1    
    10    5   65 1    
    11    5  131 1    
    12    6    7 1    
    13    6  132 1    
    14    6  133 1    
    15    7    8 1    
    16    8    9 1    
    17    8  134 1    
    18    8  135 1    
    19    9   10 ar   
    20    9   14 ar   
    21   10   11 ar   
    22   10  136 1    
    23   11   12 ar   
    24   11  126 1    
    25   12   13 ar   
    26   12  137 1    
    27   13   14 ar   
    28   13   15 1    
    29   14  138 1    
    30   15   16 1    
    31   15  139 1    
    32   15  140 1    
    33   16   17 1    
    34   17   18 1    
    35   17  141 1    
    36   17  142 1    
    37   18   19 1    
    38   18   67 1    
    39   18  143 1    
    40   19   20 am   BACKBONE|DICT|INTERRES
    41   19  144 1    
    42   20   21 2    
    43   20   22 1    
    44   22   23 1    
    45   22   24 1    
    46   22  145 1    
    47   23  146 1    
    48   23  147 1    
    49   23  148 1    
    50   24   25 am   BACKBONE|DICT|INTERRES
    51   24  149 1    
    52   25   26 2    
    53   25   27 1    
    54   27   28 1    
    55   27   29 1    
    56   27  150 1    
    57   28  151 1    
    58   28  152 1    
    59   28  153 1    
    60   29   30 am   BACKBONE|DICT|INTERRES
    61   29  154 1    
    62   30   31 2    
    63   30   32 1    
    64   32   33 1    
    65   32   34 1    
    66   32  155 1    
    67   33  156 1    
    68   33  157 1    
    69   33  158 1    
    70   34   35 am   BACKBONE|DICT|INTERRES
    71   34  159 1    
    72   35   36 2    
    73   35   37 1    
    74   37   38 1    
    75   37   39 1    
    76   37  160 1    
    77   38  161 1    
    78   38  162 1    
    79   38  163 1    
    80   39   40 am   BACKBONE|DICT|INTERRES
    81   39  164 1    
    82   40   41 2    
    83   40   42 1    
    84   42   43 1    
    85   42   44 1    
    86   42  165 1    
    87   43  166 1    
    88   43  167 1    
    89   43  168 1    
    90   44   45 am   BACKBONE|DICT|INTERRES
    91   44  169 1    
    92   45   46 2    
    93   45   47 1    
    94   47   48 1    
    95   47   49 1    
    96   47  170 1    
    97   48  171 1    
    98   48  172 1    
    99   48  173 1    
   100   49   50 am   BACKBONE|DICT|INTERRES
   101   49  174 1    
   102   50   51 2    
   103   50   52 1    
   104   52   53 1    
   105   52   54 1    
   106   52  175 1    
   107   53  176 1    
   108   53  177 1    
   109   53  178 1    
   110   54   55 am   BACKBONE|DICT|INTERRES
   111   54  179 1    
   112   55   56 2    
   113   55   57 1    
   114   57   58 1    
   115   57   59 1    
   116   57  180 1    
   117   58  181 1    
   118   58  182 1    
   119   58  183 1    
   120   59   60 am   BACKBONE|DICT|INTERRES
   121   59  184 1    
   122   60   61 2    
   123   60   62 1    
   124   62   63 1    
   125   62   64 1    
   126   62  185 1    
   127   63  186 1    
   128   63  187 1    
   129   63  188 1    
   130   64   65 am   BACKBONE|DICT|INTERRES
   131   64  189 1    
   132   65   66 2    
   133   67   68 2    
   134   67   69 am   BACKBONE|DICT|INTERRES
   135   69   70 1    
   136   69  190 1    
   137   70   71 1    
   138   70   72 1    
   139   70  191 1    
   140   71  192 1    
   141   71  193 1    
   142   71  194 1    
   143   72   73 2    
   144   72   74 am   BACKBONE|DICT|INTERRES
   145   74   75 1    
   146   74  195 1    
   147   75   76 1    
   148   75   77 1    
   149   75  196 1    
   150   76  197 1    
   151   76  198 1    
   152   76  199 1    
   153   77   78 2    
   154   77   79 am   BACKBONE|DICT|INTERRES
   155   79   80 1    
   156   79  200 1    
   157   80   81 1    
   158   80   82 1    
   159   80  201 1    
   160   81  202 1    
   161   81  203 1    
   162   81  204 1    
   163   82   83 2    
   164   82   84 am   BACKBONE|DICT|INTERRES
   165   84   85 1    
   166   84  205 1    
   167   85   86 1    
   168   85   87 1    
   169   85  206 1    
   170   86  207 1    
   171   86  208 1    
   172   86  209 1    
   173   87   88 2    
   174   87   89 am   BACKBONE|DICT|INTERRES
   175   89   90 1    
   176   89  210 1    
   177   90   91 1    
   178   90   92 1    
   179   90  211 1    
   180   91  212 1    
   181   91  213 1    
   182   91  214 1    
   183   92   93 2    
   184   92   94 am   BACKBONE|DICT|INTERRES
   185   94   95 1    
   186   94  215 1    
   187   95   96 1    
   188   95   97 1    
   189   95  216 1    
   190   96  217 1    
   191   96  218 1    
   192   96  219 1    
   193   97   98 2    
   194   97   99 am   BACKBONE|DICT|INTERRES
   195   99  100 1    
   196   99  220 1    
   197  100  101 1    
   198  100  102 1    
   199  100  221 1    
   200  101  222 1    
   201  101  223 1    
   202  101  224 1    
   203  102  103 2    
   204  102  104 am   BACKBONE|DICT|INTERRES
   205  104  105 1    
   206  104  225 1    
   207  105  106 1    
   208  105  107 1    
   209  105  226 1    
   210  106  227 1    
   211  106  228 1    
   212  106  229 1    
   213  107  108 2    
   214  107  109 am   BACKBONE|DICT|INTERRES
   215  109  110 1    
   216  109  230 1    
   217  110  111 1    
   218  110  112 1    
   219  110  231 1    
   220  111  232 1    
   221  111  233 1    
   222  111  234 1    
   223  112  113 2    
   224  112  114 am   BACKBONE|DICT|INTERRES
   225  114  115 1    
   226  114  235 1    
   227  115  116 1    
   228  115  117 1    
   229  115  236 1    
   230  116  237 1    
   231  116  238 1    
   232  116  239 1    
   233  117  118 2    
   234  117  119 am   BACKBONE|DICT|INTERRES
   235  119  120 1    
   236  119  240 1    
   237  120  121 1    
   238  120  124 1    
   239  120  241 1    
   240  121  122 am   BACKBONE|DICT|INTERRES
   241  121  123 2    
   242  122  242 1    
   243  122  243 1    
   244  124  125 1    
   245  124  244 1    
   246  124  245 1    
   247  125  126 1    
   248  126  246 1    
   249  126  247 1    
@<TRIPOS>SUBSTRUCTURE
     1 UNK         1 GROUP             0       ****    0 ROOT    
