@<TRIPOS>MOLECULE
3R540
247   249    1
SMALL
USER_CHARGES


@<TRIPOS>ATOM
      1 CA         -0.2323  -12.3078  -47.1993 C.3       0 UNK        -0.1800 
      2 C           1.0838  -11.7172  -47.6778 C.2       0 UNK         0.5000 
      3 O           1.0806  -10.7441  -48.4328 O.2       0 UNK        -0.5000 
      4 N           2.2103  -12.2887  -47.2361 N.am      1 UNK        -0.5000 
      5 CA          3.5636  -11.8284  -47.5609 C.3       1 UNK         0.1400 
      6 C6          4.5857  -12.9918  -47.5659 C.3       23 UNK        -0.0398 
      7 S7          4.2811  -14.1594  -48.9329 S.3       23 UNK        -0.2404 
      8 C8          3.4466  -15.5064  -48.0423 C.3       23 UNK        -0.0205 
      9 C9          2.8688  -16.5378  -48.9971 C.ar      23 UNK        -0.0193 
     10 C10         1.7715  -16.2110  -49.8001 C.ar      23 UNK        -0.1150 
     11 C11         1.2066  -17.1632  -50.6522 C.ar      23 UNK        -0.0193 
     12 C12         1.7606  -18.4443  -50.7132 C.ar      23 UNK        -0.1150 
     13 C13         2.8487  -18.7875  -49.9062 C.ar      23 UNK        -0.0193 
     14 C14         3.4032  -17.8283  -49.0540 C.ar      23 UNK        -0.1150 
     15 C15         3.4112  -20.2002  -49.9422 C.3       23 UNK        -0.0205 
     16 S16         2.7648  -21.2203  -48.5787 S.3       23 UNK        -0.2404 
     17 C17         0.9872  -21.2645  -48.9830 C.3       23 UNK        -0.0398 
     18 CA          0.2161  -22.3052  -48.1413 C.3       11 UNK         0.1400 
     19 N           0.1407  -21.9420  -46.7219 N.am      11 UNK        -0.5000 
     20 C          -0.3276  -22.7502  -45.7603 C.2       10 UNK         0.5000 
     21 O          -0.7089  -23.9027  -45.9641 O.2       10 UNK        -0.5000 
     22 CA         -0.4396  -22.1631  -44.3426 C.3       10 UNK         0.1400 
     23 CB          0.9322  -22.1206  -43.6532 C.3       10 UNK        -0.1800 
     24 N          -1.0478  -20.8325  -44.3308 N.am      10 UNK        -0.5000 
     25 C          -2.3043  -20.5686  -44.7181 C.2       9 UNK         0.5000 
     26 O          -3.0996  -21.4313  -45.0890 O.2       9 UNK        -0.5000 
     27 CA         -2.7334  -19.0894  -44.7430 C.3       9 UNK         0.1400 
     28 CB         -3.1089  -18.6009  -43.3366 C.3       9 UNK        -0.1800 
     29 N          -1.7117  -18.2121  -45.3148 N.am      9 UNK        -0.5000 
     30 C          -1.2466  -18.3079  -46.5691 C.2       8 UNK         0.5000 
     31 O          -1.6555  -19.1243  -47.3920 O.2       8 UNK        -0.5000 
     32 CA         -0.0881  -17.3745  -46.9490 C.3       8 UNK         0.1400 
     33 CB         -0.6078  -15.9711  -47.2889 C.3       8 UNK        -0.1800 
     34 N           0.9229  -17.2939  -45.8942 N.am      8 UNK        -0.5000 
     35 C           1.6695  -18.3346  -45.4959 C.2       7 UNK         0.5000 
     36 O           1.6020  -19.4577  -45.9925 O.2       7 UNK        -0.5000 
     37 CA          2.5962  -18.0950  -44.2926 C.3       7 UNK         0.1400 
     38 CB          3.8649  -17.3393  -44.7134 C.3       7 UNK        -0.1800 
     39 N           1.9206  -17.3637  -43.2211 N.am      7 UNK        -0.5000 
     40 C           0.8968  -17.8501  -42.5044 C.2       6 UNK         0.5000 
     41 O           0.4493  -18.9880  -42.6374 O.2       6 UNK        -0.5000 
     42 CA          0.2351  -16.8922  -41.4974 C.3       6 UNK         0.1400 
     43 CB          0.9268  -16.9872  -40.1296 C.3       6 UNK        -0.1800 
     44 N           0.2374  -15.4982  -41.9437 N.am      6 UNK        -0.5000 
     45 C          -0.4034  -15.0349  -43.0273 C.2       5 UNK         0.5000 
     46 O          -1.0808  -15.7409  -43.7746 O.2       5 UNK        -0.5000 
     47 CA         -0.2129  -13.5411  -43.3487 C.3       5 UNK         0.1400 
     48 CB         -1.2818  -12.6917  -42.6473 C.3       5 UNK        -0.1800 
     49 N           1.1158  -13.0626  -42.9641 N.am      5 UNK        -0.5000 
     50 C           2.2555  -13.3847  -43.5875 C.2       4 UNK         0.5000 
     51 O           2.3000  -14.0038  -44.6542 O.2       4 UNK        -0.5000 
     52 CA          3.5458  -12.9384  -42.8738 C.3       4 UNK         0.1400 
     53 CB          4.8192  -13.5693  -43.4598 C.3       4 UNK        -0.1800 
     54 N           3.6742  -11.4819  -42.8716 N.am      4 UNK        -0.5000 
     55 C           3.0855  -10.6666  -41.9840 C.2       3 UNK         0.5000 
     56 O           2.3551  -11.0728  -41.0783 O.2       3 UNK        -0.5000 
     57 CA          3.3401   -9.1521  -42.1223 C.3       3 UNK         0.1400 
     58 CB          4.4723   -8.7116  -41.1821 C.3       3 UNK        -0.1800 
     59 N           3.6696   -8.7416  -43.4871 N.am      3 UNK        -0.5000 
     60 C           2.7981   -8.7129  -44.5029 C.2       2 UNK         0.5000 
     61 O           1.6020   -8.9829  -44.3834 O.2       2 UNK        -0.5000 
     62 CA          3.3481   -8.3572  -45.8989 C.3       2 UNK         0.1400 
     63 CB          4.7531   -7.7123  -45.8907 C.3       2 UNK        -0.1800 
     64 N           3.3136   -9.5327  -46.7713 N.am      2 UNK        -0.5000 
     65 C           3.9408  -10.7023  -46.5796 C.2       1 UNK         0.5000 
     66 O           4.7245  -10.9186  -45.6532 O.2       1 UNK        -0.5000 
     67 C          -1.1796  -22.5619  -48.7448 C.2       11 UNK         0.5000 
     68 O          -1.3500  -23.5375  -49.4752 O.2       11 UNK        -0.5000 
     69 N          -2.1602  -21.7117  -48.4116 N.am      12 UNK        -0.5000 
     70 CA         -3.5482  -21.8450  -48.8492 C.3       12 UNK         0.1400 
     71 CB         -4.3339  -20.5778  -48.4804 C.3       12 UNK        -0.1800 
     72 C          -4.2427  -23.1026  -48.2958 C.2       12 UNK         0.5000 
     73 O          -5.0002  -23.7443  -49.0262 O.2       12 UNK        -0.5000 
     74 N          -3.9495  -23.4434  -47.0328 N.am      13 UNK        -0.5000 
     75 CA         -4.3887  -24.6738  -46.3777 C.3       13 UNK         0.1400 
     76 CB         -4.0960  -24.5978  -44.8719 C.3       13 UNK        -0.1800 
     77 C          -3.7441  -25.9226  -47.0031 C.2       13 UNK         0.5000 
     78 O          -4.4523  -26.8898  -47.2845 O.2       13 UNK        -0.5000 
     79 N          -2.4254  -25.8648  -47.2458 N.am      14 UNK        -0.5000 
     80 CA         -1.6454  -26.9212  -47.8971 C.3       14 UNK         0.1400 
     81 CB         -0.1531  -26.5609  -47.8616 C.3       14 UNK        -0.1800 
     82 C          -2.1014  -27.2091  -49.3395 C.2       14 UNK         0.5000 
     83 O          -2.0946  -28.3674  -49.7588 O.2       14 UNK        -0.5000 
     84 N          -2.5499  -26.1676  -50.0526 N.am      15 UNK        -0.5000 
     85 CA         -3.1693  -26.2241  -51.3778 C.3       15 UNK         0.1400 
     86 CB         -3.0877  -24.8261  -52.0137 C.3       15 UNK        -0.1800 
     87 C          -4.6155  -26.7692  -51.3361 C.2       15 UNK         0.5000 
     88 O          -5.5353  -26.1237  -51.8433 O.2       15 UNK        -0.5000 
     89 N          -4.7911  -27.9406  -50.7058 N.am      16 UNK        -0.5000 
     90 CA         -6.0256  -28.7236  -50.5520 C.3       16 UNK         0.1400 
     91 CB         -6.4308  -29.3248  -51.9136 C.3       16 UNK        -0.1800 
     92 C          -7.1932  -27.9610  -49.8855 C.2       16 UNK         0.5000 
     93 O          -8.3541  -28.3089  -50.1076 O.2       16 UNK        -0.5000 
     94 N          -6.8673  -26.9109  -49.1162 N.am      17 UNK        -0.5000 
     95 CA         -7.7687  -25.9002  -48.5500 C.3       17 UNK         0.1400 
     96 CB         -8.6728  -26.5181  -47.4644 C.3       17 UNK        -0.1800 
     97 C          -8.5659  -25.1014  -49.6091 C.2       17 UNK         0.5000 
     98 O          -9.5575  -24.4563  -49.2647 O.2       17 UNK        -0.5000 
     99 N          -8.1208  -25.1419  -50.8728 N.am      18 UNK        -0.5000 
    100 CA        -8.7475  -24.4726  -52.0126 C.3       18 UNK         0.1400 
    101 CB        -8.5950  -25.3723  -53.2504 C.3       18 UNK        -0.1800 
    102 C         -8.1384  -23.0844  -52.2784 C.2       18 UNK         0.5000 
    103 O         -8.6702  -22.3463  -53.1081 O.2       18 UNK        -0.5000 
    104 N         -7.0313  -22.7632  -51.5904 N.am      19 UNK        -0.5000 
    105 CA        -6.2511  -21.5261  -51.6863 C.3       19 UNK         0.1400 
    106 CB        -7.0811  -20.2983  -51.2594 C.3       19 UNK        -0.1800 
    107 C         -5.5467  -21.3299  -53.0436 C.2       19 UNK         0.5000 
    108 O         -5.1747  -20.2051  -53.3819 O.2       19 UNK        -0.5000 
    109 N         -5.3275  -22.4258  -53.7851 N.am      20 UNK        -0.5000 
    110 CA        -4.7437  -22.4334  -55.1318 C.3       20 UNK         0.1400 
    111 CB        -4.8656  -23.8460  -55.7246 C.3       20 UNK        -0.1800 
    112 C         -3.2879  -21.9247  -55.2067 C.2       20 UNK         0.5000 
    113 O         -2.8375  -21.5461  -56.2884 O.2       20 UNK        -0.5000 
    114 N         -2.5888  -21.8988  -54.0631 N.am      21 UNK        -0.5000 
    115 CA        -1.2595  -21.3069  -53.9117 C.3       21 UNK         0.1400 
    116 CB        -0.6520  -21.7612  -52.5751 C.3       21 UNK        -0.1800 
    117 C         -1.2581  -19.7671  -53.9901 C.2       21 UNK         0.5000 
    118 O         -0.2254  -19.1966  -54.3443 O.2       21 UNK        -0.5000 
    119 N         -2.3856  -19.1275  -53.6467 N.am      22 UNK        -0.5000 
    120 CA        -2.5297  -17.6625  -53.5879 C.3       22 UNK         0.1400 
    121 C         -3.6456  -17.1135  -54.5182 C.2       22 UNK         0.5000 
    122 N         -4.6683  -17.8839  -54.8661 N.am      22 UNK        -0.7600 
    123 O         -3.5747  -15.9649  -54.9467 O.2       22 UNK        -0.5000 
    124 C124       -2.7344  -17.1445  -52.1377 C.3       23 UNK        -0.0398 
    125 S125       -1.4832  -17.7215  -50.9380 S.3       23 UNK        -0.2404 
    126 C126       -0.0054  -16.8191  -51.5020 C.3       23 UNK        -0.0205 
    127 H127       -0.7597  -11.5923  -46.5685 H         1 UNK         0.0600 
    128 H128       -0.8679  -12.5538  -48.0499 H         1 UNK         0.0600 
    129 H129       -0.0699  -13.2165  -46.6249 H         1 UNK         0.0600 
    130 H130        2.1592  -13.0343  -46.5509 H         1 UNK         0.3000 
    131 H131        3.5691  -11.3919  -48.5624 H         1 UNK         0.0600 
    132 H132        5.6004  -12.6080  -47.6850 H         1 UNK         0.0800 
    133 H133        4.5712  -13.5309  -46.6194 H         1 UNK         0.0800 
    134 H134        4.1618  -15.9704  -47.3628 H         1 UNK         0.0800 
    135 H135        2.6446  -15.1045  -47.4229 H         1 UNK         0.0800 
    136 H136        1.3521  -15.2160  -49.7496 H         1 UNK         0.1150 
    137 H137        1.3222  -19.1812  -51.3716 H         1 UNK         0.1150 
    138 H138        4.2396  -18.0953  -48.4234 H         1 UNK         0.1150 
    139 H139        3.1856  -20.6801  -50.8958 H         1 UNK         0.0800 
    140 H140        4.4990  -20.1621  -49.8702 H         1 UNK         0.0800 
    141 H141        0.9002  -21.4918  -50.0463 H         1 UNK         0.0800 
    142 H142        0.5624  -20.2693  -48.8396 H         1 UNK         0.0800 
    143 H143        0.7593  -23.2505  -48.2026 H         1 UNK         0.0600 
    144 H144        0.4815  -21.0176  -46.4711 H         1 UNK         0.3000 
    145 H145       -1.0855  -22.8255  -43.7626 H         1 UNK         0.0600 
    146 H146        0.8416  -21.7928  -42.6175 H         1 UNK         0.0600 
    147 H147        1.3945  -23.1084  -43.6425 H         1 UNK         0.0600 
    148 H148        1.6190  -21.4420  -44.1590 H         1 UNK         0.0600 
    149 H149       -0.4669  -20.0715  -43.9918 H         1 UNK         0.3000 
    150 H150       -3.6205  -19.0123  -45.3745 H         1 UNK         0.0600 
    151 H151       -3.9207  -19.1993  -42.9215 H         1 UNK         0.0600 
    152 H152       -3.4438  -17.5635  -43.3544 H         1 UNK         0.0600 
    153 H153       -2.2676  -18.6695  -42.6478 H         1 UNK         0.0600 
    154 H154       -1.3448  -17.4803  -44.7144 H         1 UNK         0.3000 
    155 H155        0.3887  -17.7899  -47.8387 H         1 UNK         0.0600 
    156 H156       -1.3129  -16.0112  -48.1201 H         1 UNK         0.0600 
    157 H157        0.2065  -15.3144  -47.5880 H         1 UNK         0.0600 
    158 H158       -1.1205  -15.5102  -46.4448 H         1 UNK         0.0600 
    159 H159        1.0074  -16.4154  -45.4042 H         1 UNK         0.3000 
    160 H160        2.8953  -19.0707  -43.9036 H         1 UNK         0.0600 
    161 H161        4.5700  -17.2635  -43.8858 H         1 UNK         0.0600 
    162 H162        3.6378  -16.3291  -45.0532 H         1 UNK         0.0600 
    163 H163        4.3744  -17.8555  -45.5283 H         1 UNK         0.0600 
    164 H164        2.2130  -16.4119  -43.0622 H         1 UNK         0.3000 
    165 H165       -0.8044  -17.2029  -41.3768 H         1 UNK         0.0600 
    166 H166        0.4173  -16.3738  -39.3862 H         1 UNK         0.0600 
    167 H167        0.9215  -18.0137  -39.7605 H         1 UNK         0.0600 
    168 H168        1.9666  -16.6615  -40.1794 H         1 UNK         0.0600 
    169 H169        0.7645  -14.8450  -41.3838 H         1 UNK         0.3000 
    170 H170       -0.3323  -13.4157  -44.4238 H         1 UNK         0.0600 
    171 H171       -2.2845  -13.0150  -42.9302 H         1 UNK         0.0600 
    172 H172       -1.2067  -12.7631  -41.5615 H         1 UNK         0.0600 
    173 H173       -1.1901  -11.6405  -42.9216 H         1 UNK         0.0600 
    174 H174        1.1787  -12.4930  -42.1274 H         1 UNK         0.3000 
    175 H175        3.4728  -13.2908  -41.8426 H         1 UNK         0.0600 
    176 H176        5.6896  -13.3271  -42.8501 H         1 UNK         0.0600 
    177 H177        4.7412  -14.6561  -43.4930 H         1 UNK         0.0600 
    178 H178        5.0202  -13.2211  -44.4695 H         1 UNK         0.0600 
    179 H179        4.1989  -11.0791  -43.6410 H         1 UNK         0.3000 
    180 H180        2.4262   -8.6363  -41.8196 H         1 UNK         0.0600 
    181 H181        5.4198   -9.1843  -41.4438 H         1 UNK         0.0600 
    182 H182        4.2473   -8.9772  -40.1483 H         1 UNK         0.0600 
    183 H183        4.6147   -7.6312  -41.2147 H         1 UNK         0.0600 
    184 H184        4.6386   -8.5311  -43.6779 H         1 UNK         0.3000 
    185 H185        2.6551   -7.6307  -46.3257 H         1 UNK         0.0600 
    186 H186        5.0474   -7.4165  -46.8978 H         1 UNK         0.0600 
    187 H187        4.7659   -6.8107  -45.2770 H         1 UNK         0.0600 
    188 H188        5.5230   -8.3840  -45.5104 H         1 UNK         0.0600 
    189 H189        2.6217   -9.5032  -47.5118 H         1 UNK         0.3000 
    190 H190       -1.9386  -20.8893  -47.8534 H         1 UNK         0.3000 
    191 H191       -3.5245  -21.9342  -49.9357 H         1 UNK         0.0600 
    192 H192       -4.2938  -20.3806  -47.4091 H         1 UNK         0.0600 
    193 H193       -5.3854  -20.6666  -48.7539 H         1 UNK         0.0600 
    194 H194       -3.9340  -19.7042  -48.9961 H         1 UNK         0.0600 
    195 H195       -3.3733  -22.8161  -46.4795 H         1 UNK         0.3000 
    196 H196       -5.4694  -24.7551  -46.5011 H         1 UNK         0.0600 
    197 H197       -3.0314  -24.4777  -44.6709 H         1 UNK         0.0600 
    198 H198       -4.4268  -25.5042  -44.3634 H         1 UNK         0.0600 
    199 H199       -4.6179  -23.7582  -44.4125 H         1 UNK         0.0600 
    200 H200       -1.9071  -25.0448  -46.9413 H         1 UNK         0.3000 
    201 H201       -1.7871  -27.8369  -47.3197 H         1 UNK         0.0600 
    202 H202        0.0512  -25.6391  -48.4059 H         1 UNK         0.0600 
    203 H203        0.4502  -27.3494  -48.3130 H         1 UNK         0.0600 
    204 H204        0.1970  -26.4300  -46.8376 H         1 UNK         0.0600 
    205 H205       -2.4609  -25.2432  -49.6439 H         1 UNK         0.3000 
    206 H206       -2.5891  -26.9071  -52.0011 H         1 UNK         0.0600 
    207 H207       -2.0543  -24.4891  -52.0736 H         1 UNK         0.0600 
    208 H208       -3.4840  -24.8344  -53.0276 H         1 UNK         0.0600 
    209 H209       -3.6501  -24.0885  -51.4409 H         1 UNK         0.0600 
    210 H210       -3.9582  -28.3571  -50.2990 H         1 UNK         0.3000 
    211 H211       -5.7820  -29.5484  -49.8811 H         1 UNK         0.0600 
    212 H212       -6.7450  -28.5520  -52.6163 H         1 UNK         0.0600 
    213 H213       -7.2589  -30.0262  -51.8055 H         1 UNK         0.0600 
    214 H214       -5.6034  -29.8722  -52.3652 H         1 UNK         0.0600 
    215 H215       -5.8813  -26.7452  -48.9522 H         1 UNK         0.3000 
    216 H216       -7.1264  -25.1690  -48.0612 H         1 UNK         0.0600 
    217 H217       -8.0836  -27.0585  -46.7234 H         1 UNK         0.0600 
    218 H218       -9.2306  -25.7467  -46.9324 H         1 UNK         0.0600 
    219 H219       -9.3993  -27.2120  -47.8879 H         1 UNK         0.0600 
    220 H220       -7.2730  -25.6642  -51.0780 H         1 UNK         0.3000 
    221 H221       -9.8136  -24.3356  -51.8213 H         1 UNK         0.0600 
    222 H222       -7.5489  -25.5046  -53.5286 H         1 UNK         0.0600 
    223 H223       -9.0213  -26.3601  -53.0742 H         1 UNK         0.0600 
    224 H224       -9.1107  -24.9446  -54.1111 H         1 UNK         0.0600 
    225 H225       -6.6764  -23.4509  -50.9378 H         1 UNK         0.3000 
    226 H226       -5.4502  -21.6374  -50.9629 H         1 UNK         0.0600 
    227 H227       -7.5627  -20.4633  -50.2956 H         1 UNK         0.0600 
    228 H228       -6.4487  -19.4155  -51.1571 H         1 UNK         0.0600 
    229 H229       -7.8570  -20.0590  -51.9868 H         1 UNK         0.0600 
    230 H230       -5.6512  -23.3132  -53.4282 H         1 UNK         0.3000 
    231 H231       -5.3439  -21.7598  -55.7469 H         1 UNK         0.0600 
    232 H232       -5.9032  -24.1806  -55.7379 H         1 UNK         0.0600 
    233 H233       -4.2849  -24.5763  -55.1622 H         1 UNK         0.0600 
    234 H234       -4.5064  -23.8684  -56.7543 H         1 UNK         0.0600 
    235 H235       -3.0339  -22.2399  -53.2256 H         1 UNK         0.3000 
    236 H236       -0.6240  -21.6779  -54.7187 H         1 UNK         0.0600 
    237 H237        0.3308  -21.3132  -52.4238 H         1 UNK         0.0600 
    238 H238       -1.2775  -21.4745  -51.7287 H         1 UNK         0.0600 
    239 H239       -0.5152  -22.8413  -52.5473 H         1 UNK         0.0600 
    240 H240       -3.2116  -19.6643  -53.4128 H         1 UNK         0.3000 
    241 H241       -1.6166  -17.1995  -53.9639 H         1 UNK         0.0600 
    242 H242       -4.8078  -18.7970  -54.4395 H         1 UNK         0.3800 
    243 H243       -5.3761  -17.5120  -55.4787 H         1 UNK         0.3800 
    244 H244       -2.7458  -16.0533  -52.1198 H         1 UNK         0.0800 
    245 H245       -3.7095  -17.4628  -51.7645 H         1 UNK         0.0800 
    246 H246       -0.2052  -15.7468  -51.4775 H         1 UNK         0.0800 
    247 H247        0.2128  -17.0751  -52.5389 H         1 UNK         0.0800 
@<TRIPOS>BOND
     1    1    2 1    
     2    1  127 1    
     3    1  128 1    
     4    1  129 1    
     5    2    3 2    
     6    2    4 am   BACKBONE|DICT|INTERRES
     7    4    5 1    
     8    4  130 1    
     9    5    6 1    
    10    5   65 1    
    11    5  131 1    
    12    6    7 1    
    13    6  132 1    
    14    6  133 1    
    15    7    8 1    
    16    8    9 1    
    17    8  134 1    
    18    8  135 1    
    19    9   10 ar   
    20    9   14 ar   
    21   10   11 ar   
    22   10  136 1    
    23   11   12 ar   
    24   11  126 1    
    25   12   13 ar   
    26   12  137 1    
    27   13   14 ar   
    28   13   15 1    
    29   14  138 1    
    30   15   16 1    
    31   15  139 1    
    32   15  140 1    
    33   16   17 1    
    34   17   18 1    
    35   17  141 1    
    36   17  142 1    
    37   18   19 1    
    38   18   67 1    
    39   18  143 1    
    40   19   20 am   BACKBONE|DICT|INTERRES
    41   19  144 1    
    42   20   21 2    
    43   20   22 1    
    44   22   23 1    
    45   22   24 1    
    46   22  145 1    
    47   23  146 1    
    48   23  147 1    
    49   23  148 1    
    50   24   25 am   BACKBONE|DICT|INTERRES
    51   24  149 1    
    52   25   26 2    
    53   25   27 1    
    54   27   28 1    
    55   27   29 1    
    56   27  150 1    
    57   28  151 1    
    58   28  152 1    
    59   28  153 1    
    60   29   30 am   BACKBONE|DICT|INTERRES
    61   29  154 1    
    62   30   31 2    
    63   30   32 1    
    64   32   33 1    
    65   32   34 1    
    66   32  155 1    
    67   33  156 1    
    68   33  157 1    
    69   33  158 1    
    70   34   35 am   BACKBONE|DICT|INTERRES
    71   34  159 1    
    72   35   36 2    
    73   35   37 1    
    74   37   38 1    
    75   37   39 1    
    76   37  160 1    
    77   38  161 1    
    78   38  162 1    
    79   38  163 1    
    80   39   40 am   BACKBONE|DICT|INTERRES
    81   39  164 1    
    82   40   41 2    
    83   40   42 1    
    84   42   43 1    
    85   42   44 1    
    86   42  165 1    
    87   43  166 1    
    88   43  167 1    
    89   43  168 1    
    90   44   45 am   BACKBONE|DICT|INTERRES
    91   44  169 1    
    92   45   46 2    
    93   45   47 1    
    94   47   48 1    
    95   47   49 1    
    96   47  170 1    
    97   48  171 1    
    98   48  172 1    
    99   48  173 1    
   100   49   50 am   BACKBONE|DICT|INTERRES
   101   49  174 1    
   102   50   51 2    
   103   50   52 1    
   104   52   53 1    
   105   52   54 1    
   106   52  175 1    
   107   53  176 1    
   108   53  177 1    
   109   53  178 1    
   110   54   55 am   BACKBONE|DICT|INTERRES
   111   54  179 1    
   112   55   56 2    
   113   55   57 1    
   114   57   58 1    
   115   57   59 1    
   116   57  180 1    
   117   58  181 1    
   118   58  182 1    
   119   58  183 1    
   120   59   60 am   BACKBONE|DICT|INTERRES
   121   59  184 1    
   122   60   61 2    
   123   60   62 1    
   124   62   63 1    
   125   62   64 1    
   126   62  185 1    
   127   63  186 1    
   128   63  187 1    
   129   63  188 1    
   130   64   65 am   BACKBONE|DICT|INTERRES
   131   64  189 1    
   132   65   66 2    
   133   67   68 2    
   134   67   69 am   BACKBONE|DICT|INTERRES
   135   69   70 1    
   136   69  190 1    
   137   70   71 1    
   138   70   72 1    
   139   70  191 1    
   140   71  192 1    
   141   71  193 1    
   142   71  194 1    
   143   72   73 2    
   144   72   74 am   BACKBONE|DICT|INTERRES
   145   74   75 1    
   146   74  195 1    
   147   75   76 1    
   148   75   77 1    
   149   75  196 1    
   150   76  197 1    
   151   76  198 1    
   152   76  199 1    
   153   77   78 2    
   154   77   79 am   BACKBONE|DICT|INTERRES
   155   79   80 1    
   156   79  200 1    
   157   80   81 1    
   158   80   82 1    
   159   80  201 1    
   160   81  202 1    
   161   81  203 1    
   162   81  204 1    
   163   82   83 2    
   164   82   84 am   BACKBONE|DICT|INTERRES
   165   84   85 1    
   166   84  205 1    
   167   85   86 1    
   168   85   87 1    
   169   85  206 1    
   170   86  207 1    
   171   86  208 1    
   172   86  209 1    
   173   87   88 2    
   174   87   89 am   BACKBONE|DICT|INTERRES
   175   89   90 1    
   176   89  210 1    
   177   90   91 1    
   178   90   92 1    
   179   90  211 1    
   180   91  212 1    
   181   91  213 1    
   182   91  214 1    
   183   92   93 2    
   184   92   94 am   BACKBONE|DICT|INTERRES
   185   94   95 1    
   186   94  215 1    
   187   95   96 1    
   188   95   97 1    
   189   95  216 1    
   190   96  217 1    
   191   96  218 1    
   192   96  219 1    
   193   97   98 2    
   194   97   99 am   BACKBONE|DICT|INTERRES
   195   99  100 1    
   196   99  220 1    
   197  100  101 1    
   198  100  102 1    
   199  100  221 1    
   200  101  222 1    
   201  101  223 1    
   202  101  224 1    
   203  102  103 2    
   204  102  104 am   BACKBONE|DICT|INTERRES
   205  104  105 1    
   206  104  225 1    
   207  105  106 1    
   208  105  107 1    
   209  105  226 1    
   210  106  227 1    
   211  106  228 1    
   212  106  229 1    
   213  107  108 2    
   214  107  109 am   BACKBONE|DICT|INTERRES
   215  109  110 1    
   216  109  230 1    
   217  110  111 1    
   218  110  112 1    
   219  110  231 1    
   220  111  232 1    
   221  111  233 1    
   222  111  234 1    
   223  112  113 2    
   224  112  114 am   BACKBONE|DICT|INTERRES
   225  114  115 1    
   226  114  235 1    
   227  115  116 1    
   228  115  117 1    
   229  115  236 1    
   230  116  237 1    
   231  116  238 1    
   232  116  239 1    
   233  117  118 2    
   234  117  119 am   BACKBONE|DICT|INTERRES
   235  119  120 1    
   236  119  240 1    
   237  120  121 1    
   238  120  124 1    
   239  120  241 1    
   240  121  122 am   BACKBONE|DICT|INTERRES
   241  121  123 2    
   242  122  242 1    
   243  122  243 1    
   244  124  125 1    
   245  124  244 1    
   246  124  245 1    
   247  125  126 1    
   248  126  246 1    
   249  126  247 1    
@<TRIPOS>SUBSTRUCTURE
     1 UNK         1 GROUP             0       ****    0 ROOT    
