@<TRIPOS>MOLECULE
3R540
247   249    1
SMALL
USER_CHARGES


@<TRIPOS>ATOM
      1 CA         -4.5007  -19.7940  -44.8864 C.3       0 UNK        -0.1800 
      2 C          -3.6307  -18.5497  -44.9345 C.2       0 UNK         0.5000 
      3 O          -3.8788  -17.6025  -44.1886 O.2       0 UNK        -0.5000 
      4 N          -2.5773  -18.5604  -45.7629 N.am      1 UNK        -0.5000 
      5 CA         -1.5496  -17.5099  -45.7998 C.3       1 UNK         0.1400 
      6 C6         -0.5906  -17.6404  -47.0041 C.3       23 UNK        -0.0398 
      7 S7         -1.4247  -17.4285  -48.6070 S.3       23 UNK        -0.2404 
      8 C8         -0.0057  -17.2754  -49.7437 C.3       23 UNK        -0.0205 
      9 C9          0.5501  -18.6322  -50.1577 C.ar      23 UNK        -0.0193 
     10 C10         0.1376  -19.2240  -51.3553 C.ar      23 UNK        -0.1150 
     11 C11         0.6339  -20.4740  -51.7361 C.ar      23 UNK        -0.0193 
     12 C12         1.5332  -21.1383  -50.8979 C.ar      23 UNK        -0.1150 
     13 C13         1.9455  -20.5742  -49.6878 C.ar      23 UNK        -0.0193 
     14 C14         1.4728  -19.2998  -49.3461 C.ar      23 UNK        -0.1150 
     15 C15         2.8886  -21.3955  -48.8011 C.3       23 UNK        -0.0205 
     16 S16         3.1439  -20.8185  -47.0837 S.3       23 UNK        -0.2404 
     17 C17         1.4600  -20.8805  -46.3802 C.3       23 UNK        -0.0398 
     18 CA          1.0838  -22.2092  -45.6832 C.3       11 UNK         0.1400 
     19 N           2.0653  -22.5962  -44.6631 N.am      11 UNK        -0.5000 
     20 C           2.3249  -23.8528  -44.2745 C.2       10 UNK         0.5000 
     21 O           1.6773  -24.8235  -44.6688 O.2       10 UNK        -0.5000 
     22 CA          3.4841  -24.0776  -43.2828 C.3       10 UNK         0.1400 
     23 CB          4.7528  -24.5008  -44.0386 C.3       10 UNK        -0.1800 
     24 N           3.7934  -22.9038  -42.4684 N.am      10 UNK        -0.5000 
     25 C           3.0143  -22.4182  -41.4933 C.2       9 UNK         0.5000 
     26 O           1.9731  -22.9593  -41.1210 O.2       9 UNK        -0.5000 
     27 CA          3.4637  -21.1001  -40.8274 C.3       9 UNK         0.1400 
     28 CB          4.1152  -21.3875  -39.4661 C.3       9 UNK        -0.1800 
     29 N           4.3809  -20.2768  -41.6247 N.am      9 UNK        -0.5000 
     30 C           4.1387  -19.7770  -42.8444 C.2       8 UNK         0.5000 
     31 O           3.1274  -20.0289  -43.5030 O.2       8 UNK        -0.5000 
     32 CA          5.2587  -18.9037  -43.4403 C.3       8 UNK         0.1400 
     33 CB          6.3633  -19.7962  -44.0290 C.3       8 UNK        -0.1800 
     34 N           4.7891  -18.0006  -44.4900 N.am      8 UNK        -0.5000 
     35 C           3.9045  -17.0082  -44.3338 C.2       7 UNK         0.5000 
     36 O           3.3980  -16.6951  -43.2522 O.2       7 UNK        -0.5000 
     37 CA          3.5445  -16.2294  -45.6098 C.3       7 UNK         0.1400 
     38 CB          3.1259  -17.1641  -46.7574 C.3       7 UNK        -0.1800 
     39 N           2.4605  -15.2996  -45.3213 N.am      7 UNK        -0.5000 
     40 C           2.2179  -14.1537  -45.9678 C.2       6 UNK         0.5000 
     41 O           2.8904  -13.7498  -46.9170 O.2       6 UNK        -0.5000 
     42 CA          1.0206  -13.3167  -45.4821 C.3       6 UNK         0.1400 
     43 CB         -0.1712  -13.4789  -46.4402 C.3       6 UNK        -0.1800 
     44 N           0.5907  -13.7075  -44.1424 N.am      6 UNK        -0.5000 
     45 C           1.0551  -13.2058  -42.9920 C.2       5 UNK         0.5000 
     46 O           1.8959  -12.3073  -42.9278 O.2       5 UNK        -0.5000 
     47 CA          0.4700  -13.8289  -41.7053 C.3       5 UNK         0.1400 
     48 CB          0.6159  -12.9216  -40.4664 C.3       5 UNK        -0.1800 
     49 N          -0.9183  -14.2725  -41.8803 N.am      5 UNK        -0.5000 
     50 C          -1.9909  -13.5177  -42.1687 C.2       4 UNK         0.5000 
     51 O          -1.9724  -12.2877  -42.2260 O.2       4 UNK        -0.5000 
     52 CA         -3.3057  -14.2601  -42.4867 C.3       4 UNK         0.1400 
     53 CB         -3.5908  -14.2013  -43.9960 C.3       4 UNK        -0.1800 
     54 N          -3.3015  -15.6629  -42.0681 N.am      4 UNK        -0.5000 
     55 C          -3.3677  -16.0844  -40.7982 C.2       3 UNK         0.5000 
     56 O          -3.5073  -15.3339  -39.8321 O.2       3 UNK        -0.5000 
     57 CA         -3.2125  -17.5979  -40.5716 C.3       3 UNK         0.1400 
     58 CB         -4.5622  -18.3160  -40.7232 C.3       3 UNK        -0.1800 
     59 N          -2.2365  -18.2025  -41.4805 N.am      3 UNK        -0.5000 
     60 C          -0.9100  -18.0167  -41.4149 C.2       2 UNK         0.5000 
     61 O          -0.3571  -17.2921  -40.5883 O.2       2 UNK        -0.5000 
     62 CA         -0.0669  -18.7601  -42.4668 C.3       2 UNK         0.1400 
     63 CB          0.0063  -20.2504  -42.1040 C.3       2 UNK        -0.1800 
     64 N          -0.6116  -18.6238  -43.8174 N.am      2 UNK        -0.5000 
     65 C          -0.7485  -17.4658  -44.4811 C.2       1 UNK         0.5000 
     66 O          -0.3172  -16.3870  -44.0752 O.2       1 UNK        -0.5000 
     67 C          -0.3601  -22.1585  -45.1228 C.2       11 UNK         0.5000 
     68 O          -1.0901  -21.1962  -45.3756 O.2       11 UNK        -0.5000 
     69 N          -0.7507  -23.1762  -44.3472 N.am      12 UNK        -0.5000 
     70 CA         -2.0615  -23.2786  -43.7020 C.3       12 UNK         0.1400 
     71 CB         -1.9533  -24.2408  -42.5102 C.3       12 UNK        -0.1800 
     72 C          -3.1759  -23.7261  -44.6660 C.2       12 UNK         0.5000 
     73 O          -4.3366  -23.3785  -44.4509 O.2       12 UNK        -0.5000 
     74 N          -2.8061  -24.4817  -45.7086 N.am      13 UNK        -0.5000 
     75 CA         -3.7165  -24.9819  -46.7438 C.3       13 UNK         0.1400 
     76 CB         -3.1728  -26.3249  -47.2585 C.3       13 UNK        -0.1800 
     77 C          -3.9038  -23.9930  -47.9133 C.2       13 UNK         0.5000 
     78 O          -4.7614  -24.2225  -48.7673 O.2       13 UNK        -0.5000 
     79 N          -3.0835  -22.9364  -47.9519 N.am      14 UNK        -0.5000 
     80 CA         -3.0805  -21.9014  -48.9825 C.3       14 UNK         0.1400 
     81 CB         -1.7028  -21.2248  -48.9575 C.3       14 UNK        -0.1800 
     82 C          -4.2032  -20.8626  -48.7853 C.2       14 UNK         0.5000 
     83 O          -4.9538  -20.9247  -47.8109 O.2       14 UNK        -0.5000 
     84 N          -4.2695  -19.8962  -49.7037 N.am      15 UNK        -0.5000 
     85 CA         -5.0956  -18.6976  -49.6296 C.3       15 UNK         0.1400 
     86 CB         -6.5511  -19.0074  -50.0255 C.3       15 UNK        -0.1800 
     87 C          -4.4657  -17.6362  -50.5432 C.2       15 UNK         0.5000 
     88 O          -3.6083  -17.9701  -51.3666 O.2       15 UNK        -0.5000 
     89 N          -4.8970  -16.3783  -50.3748 N.am      16 UNK        -0.5000 
     90 CA         -4.3436  -15.1954  -51.0450 C.3       16 UNK         0.1400 
     91 CB         -5.0181  -13.9364  -50.4800 C.3       16 UNK        -0.1800 
     92 C          -4.4458  -15.2209  -52.5828 C.2       16 UNK         0.5000 
     93 O          -3.5846  -14.6537  -53.2570 O.2       16 UNK        -0.5000 
     94 N          -5.4576  -15.9183  -53.1173 N.am      17 UNK        -0.5000 
     95 CA         -5.6058  -16.2421  -54.5378 C.3       17 UNK         0.1400 
     96 CB         -7.0894  -16.5333  -54.8273 C.3       17 UNK        -0.1800 
     97 C          -4.6871  -17.4230  -54.9169 C.2       17 UNK         0.5000 
     98 O          -5.1728  -18.4781  -55.3265 O.2       17 UNK        -0.5000 
     99 N          -3.3751  -17.2300  -54.7263 N.am      18 UNK        -0.5000 
    100 CA        -2.3168  -18.2436  -54.7397 C.3       18 UNK         0.1400 
    101 CB        -0.9608  -17.5373  -54.5839 C.3       18 UNK        -0.1800 
    102 C         -2.3044  -19.1624  -55.9735 C.2       18 UNK         0.5000 
    103 O         -2.1221  -20.3713  -55.8289 O.2       18 UNK        -0.5000 
    104 N         -2.5334  -18.5748  -57.1553 N.am      19 UNK        -0.5000 
    105 CA        -2.5766  -19.2736  -58.4414 C.3       19 UNK         0.1400 
    106 CB        -2.6252  -18.2344  -59.5719 C.3       19 UNK        -0.1800 
    107 C         -3.7478  -20.2673  -58.5718 C.2       19 UNK         0.5000 
    108 O         -3.6271  -21.2429  -59.3138 O.2       19 UNK        -0.5000 
    109 N         -4.8486  -20.0086  -57.8542 N.am      20 UNK        -0.5000 
    110 CA        -6.0039  -20.8969  -57.7681 C.3       20 UNK         0.1400 
    111 CB        -7.2886  -20.0582  -57.6694 C.3       20 UNK        -0.1800 
    112 C         -5.8681  -21.8370  -56.5609 C.2       20 UNK         0.5000 
    113 O         -6.0597  -23.0446  -56.7066 O.2       20 UNK        -0.5000 
    114 N         -5.5213  -21.2670  -55.3978 N.am      21 UNK        -0.5000 
    115 CA        -5.4286  -21.9444  -54.1033 C.3       21 UNK         0.1400 
    116 CB        -5.0937  -20.9092  -53.0207 C.3       21 UNK        -0.1800 
    117 C         -4.4100  -23.0952  -54.0732 C.2       21 UNK         0.5000 
    118 O         -4.6985  -24.1433  -53.4941 O.2       21 UNK        -0.5000 
    119 N         -3.2576  -22.8831  -54.7161 N.am      22 UNK        -0.5000 
    120 CA        -2.1845  -23.8758  -54.8688 C.3       22 UNK         0.1400 
    121 C         -2.1923  -24.5646  -56.2662 C.2       22 UNK         0.5000 
    122 N         -3.2344  -24.4219  -57.0779 N.am      22 UNK        -0.7600 
    123 O         -1.2446  -25.2611  -56.6202 O.2       22 UNK        -0.5000 
    124 C124       -0.7997  -23.2743  -54.5169 C.3       23 UNK        -0.0398 
    125 S125       -0.7225  -22.6462  -52.8018 S.3       23 UNK        -0.2404 
    126 C126        0.2165  -21.1094  -53.0536 C.3       23 UNK        -0.0205 
    127 H127       -4.7281  -20.0575  -43.8536 H         1 UNK         0.0600 
    128 H128       -4.0009  -20.6471  -45.3454 H         1 UNK         0.0600 
    129 H129       -5.4398  -19.6176  -45.4103 H         1 UNK         0.0600 
    130 H130       -2.3927  -19.3847  -46.3173 H         1 UNK         0.3000 
    131 H131       -2.0645  -16.5515  -45.8890 H         1 UNK         0.0600 
    132 H132        0.1956  -16.8865  -46.9419 H         1 UNK         0.0800 
    133 H133       -0.1003  -18.6099  -46.9937 H         1 UNK         0.0800 
    134 H134       -0.3358  -16.7292  -50.6287 H         1 UNK         0.0800 
    135 H135        0.7777  -16.6665  -49.2904 H         1 UNK         0.0800 
    136 H136       -0.5785  -18.7140  -51.9828 H         1 UNK         0.1150 
    137 H137        1.9025  -22.1126  -51.1868 H         1 UNK         0.1150 
    138 H138        1.7955  -18.8311  -48.4326 H         1 UNK         0.1150 
    139 H139        2.5266  -22.4238  -48.7558 H         1 UNK         0.0800 
    140 H140        3.8631  -21.4362  -49.2893 H         1 UNK         0.0800 
    141 H141        0.7449  -20.6833  -47.1760 H         1 UNK         0.0800 
    142 H142        1.3779  -20.0527  -45.6737 H         1 UNK         0.0800 
    143 H143        1.0798  -22.9797  -46.4570 H         1 UNK         0.0600 
    144 H144        2.5993  -21.8322  -44.2604 H         1 UNK         0.3000 
    145 H145        3.1940  -24.8918  -42.6154 H         1 UNK         0.0600 
    146 H146        5.5646  -24.7332  -43.3491 H         1 UNK         0.0600 
    147 H147        4.5714  -25.3942  -44.6378 H         1 UNK         0.0600 
    148 H148        5.0984  -23.7170  -44.7143 H         1 UNK         0.0600 
    149 H149        4.6304  -22.3933  -42.7064 H         1 UNK         0.3000 
    150 H150        2.5693  -20.5026  -40.6512 H         1 UNK         0.0600 
    151 H151        5.0416  -21.9528  -39.5756 H         1 UNK         0.0600 
    152 H152        3.4491  -21.9697  -38.8277 H         1 UNK         0.0600 
    153 H153        4.3447  -20.4640  -38.9341 H         1 UNK         0.0600 
    154 H154        5.2537  -20.0392  -41.1756 H         1 UNK         0.3000 
    155 H155        5.6832  -18.2938  -42.6403 H         1 UNK         0.0600 
    156 H156        5.9846  -20.4196  -44.8407 H         1 UNK         0.0600 
    157 H157        6.7812  -20.4613  -43.2723 H         1 UNK         0.0600 
    158 H158        7.1869  -19.1990  -44.4211 H         1 UNK         0.0600 
    159 H159        5.1195  -18.2043  -45.4213 H         1 UNK         0.3000 
    160 H160        4.4301  -15.6644  -45.9077 H         1 UNK         0.0600 
    161 H161        2.3413  -17.8463  -46.4321 H         1 UNK         0.0600 
    162 H162        3.9635  -17.7677  -47.1074 H         1 UNK         0.0600 
    163 H163        2.7572  -16.6057  -47.6177 H         1 UNK         0.0600 
    164 H164        1.8979  -15.5417  -44.5143 H         1 UNK         0.3000 
    165 H165        1.3221  -12.2673  -45.4797 H         1 UNK         0.0600 
    166 H166        0.0971  -13.1791  -47.4540 H         1 UNK         0.0600 
    167 H167       -0.5168  -14.5119  -46.4838 H         1 UNK         0.0600 
    168 H168       -1.0123  -12.8587  -46.1296 H         1 UNK         0.0600 
    169 H169       -0.0322  -14.5084  -44.0874 H         1 UNK         0.3000 
    170 H170        1.0512  -14.7337  -41.5200 H         1 UNK         0.0600 
    171 H171        1.6662  -12.7235  -40.2502 H         1 UNK         0.0600 
    172 H172        0.1253  -11.9582  -40.6067 H         1 UNK         0.0600 
    173 H173        0.1866  -13.3922  -39.5818 H         1 UNK         0.0600 
    174 H174       -1.0485  -15.2753  -41.8749 H         1 UNK         0.3000 
    175 H175       -4.1131  -13.7451  -41.9622 H         1 UNK         0.0600 
    176 H176       -4.5301  -14.6971  -44.2415 H         1 UNK         0.0600 
    177 H177       -3.6674  -13.1694  -44.3410 H         1 UNK         0.0600 
    178 H178       -2.7982  -14.6803  -44.5711 H         1 UNK         0.0600 
    179 H179       -3.2710  -16.3585  -42.8083 H         1 UNK         0.3000 
    180 H180       -2.8616  -17.7469  -39.5481 H         1 UNK         0.0600 
    181 H181       -4.9656  -18.2122  -41.7311 H         1 UNK         0.0600 
    182 H182       -5.3002  -17.9071  -40.0319 H         1 UNK         0.0600 
    183 H183       -4.4697  -19.3804  -40.5067 H         1 UNK         0.0600 
    184 H184       -2.6087  -18.7765  -42.2218 H         1 UNK         0.3000 
    185 H185        0.9429  -18.3435  -42.4569 H         1 UNK         0.0600 
    186 H186        0.3259  -20.3902  -41.0715 H         1 UNK         0.0600 
    187 H187       -0.9620  -20.7392  -42.2056 H         1 UNK         0.0600 
    188 H188        0.7145  -20.7777  -42.7400 H         1 UNK         0.0600 
    189 H189       -0.9734  -19.4664  -44.2505 H         1 UNK         0.3000 
    190 H190       -0.0920  -23.9312  -44.1894 H         1 UNK         0.3000 
    191 H191       -2.3429  -22.2960  -43.3187 H         1 UNK         0.0600 
    192 H192       -1.2138  -23.8905  -41.7892 H         1 UNK         0.0600 
    193 H193       -2.9059  -24.3226  -41.9852 H         1 UNK         0.0600 
    194 H194       -1.6641  -25.2436  -42.8271 H         1 UNK         0.0600 
    195 H195       -1.8324  -24.7324  -45.8005 H         1 UNK         0.3000 
    196 H196       -4.7013  -25.1608  -46.3069 H         1 UNK         0.0600 
    197 H197       -3.8396  -26.7577  -48.0055 H         1 UNK         0.0600 
    198 H198       -3.0817  -27.0496  -46.4492 H         1 UNK         0.0600 
    199 H199       -2.1915  -26.2116  -47.7209 H         1 UNK         0.0600 
    200 H200       -2.4607  -22.7944  -47.1720 H         1 UNK         0.3000 
    201 H201       -3.2210  -22.3717  -49.9584 H         1 UNK         0.0600 
    202 H202       -1.6151  -20.5040  -49.7674 H         1 UNK         0.0600 
    203 H203       -1.5328  -20.6872  -48.0251 H         1 UNK         0.0600 
    204 H204       -0.8976  -21.9486  -49.0854 H         1 UNK         0.0600 
    205 H205       -3.5923  -19.8594  -50.4568 H         1 UNK         0.3000 
    206 H206       -5.0686  -18.3176  -48.6059 H         1 UNK         0.0600 
    207 H207       -6.9839  -19.7718  -49.3803 H         1 UNK         0.0600 
    208 H208       -7.1792  -18.1206  -49.9366 H         1 UNK         0.0600 
    209 H209       -6.6270  -19.3583  -51.0529 H         1 UNK         0.0600 
    210 H210       -5.6099  -16.1995  -49.6826 H         1 UNK         0.3000 
    211 H211       -3.2810  -15.1519  -50.7963 H         1 UNK         0.0600 
    212 H212       -6.0934  -13.9401  -50.6623 H         1 UNK         0.0600 
    213 H213       -4.6103  -13.0347  -50.9392 H         1 UNK         0.0600 
    214 H214       -4.8585  -13.8513  -49.4049 H         1 UNK         0.0600 
    215 H215       -6.0942  -16.3800  -52.4849 H         1 UNK         0.3000 
    216 H216       -5.3072  -15.3818  -55.1403 H         1 UNK         0.0600 
    217 H217       -7.2447  -16.7575  -55.8835 H         1 UNK         0.0600 
    218 H218       -7.7144  -15.6742  -54.5834 H         1 UNK         0.0600 
    219 H219       -7.4531  -17.3867  -54.2534 H         1 UNK         0.0600 
    220 H220       -3.1066  -16.3222  -54.3630 H         1 UNK         0.3000 
    221 H221       -2.4718  -18.8766  -53.8643 H         1 UNK         0.0600 
    222 H222       -0.7787  -16.8353  -55.3985 H         1 UNK         0.0600 
    223 H223       -0.9129  -16.9797  -53.6482 H         1 UNK         0.0600 
    224 H224       -0.1370  -18.2516  -54.5798 H         1 UNK         0.0600 
    225 H225       -2.6929  -17.5782  -57.1717 H         1 UNK         0.3000 
    226 H226       -1.6516  -19.8453  -58.5417 H         1 UNK         0.0600 
    227 H227       -2.6304  -18.7197  -60.5489 H         1 UNK         0.0600 
    228 H228       -3.5198  -17.6136  -59.5090 H         1 UNK         0.0600 
    229 H229       -1.7560  -17.5771  -59.5421 H         1 UNK         0.0600 
    230 H230       -4.8416  -19.2189  -57.2191 H         1 UNK         0.3000 
    231 H231       -6.0748  -21.5097  -58.6694 H         1 UNK         0.0600 
    232 H232       -7.2914  -19.4158  -56.7880 H         1 UNK         0.0600 
    233 H233       -8.1685  -20.6999  -57.6102 H         1 UNK         0.0600 
    234 H234       -7.4091  -19.4213  -58.5458 H         1 UNK         0.0600 
    235 H235       -5.3783  -20.2591  -55.3810 H         1 UNK         0.3000 
    236 H236       -6.4132  -22.3625  -53.8849 H         1 UNK         0.0600 
    237 H237       -5.1435  -21.3566  -52.0276 H         1 UNK         0.0600 
    238 H238       -4.0916  -20.4993  -53.1489 H         1 UNK         0.0600 
    239 H239       -5.7962  -20.0772  -53.0456 H         1 UNK         0.0600 
    240 H240       -3.0900  -21.9863  -55.1621 H         1 UNK         0.3000 
    241 H241       -2.3517  -24.6923  -54.1644 H         1 UNK         0.0600 
    242 H242       -4.0486  -23.8935  -56.7934 H         1 UNK         0.3800 
    243 H243       -3.2247  -24.8761  -57.9773 H         1 UNK         0.3800 
    244 H244       -0.5507  -22.4758  -55.2174 H         1 UNK         0.0800 
    245 H245       -0.0154  -24.0257  -54.6212 H         1 UNK         0.0800 
    246 H246        1.1105  -21.3205  -53.6420 H         1 UNK         0.0800 
    247 H247       -0.3907  -20.4223  -53.6416 H         1 UNK         0.0800 
@<TRIPOS>BOND
     1    1    2 1    
     2    1  127 1    
     3    1  128 1    
     4    1  129 1    
     5    2    3 2    
     6    2    4 am   BACKBONE|DICT|INTERRES
     7    4    5 1    
     8    4  130 1    
     9    5    6 1    
    10    5   65 1    
    11    5  131 1    
    12    6    7 1    
    13    6  132 1    
    14    6  133 1    
    15    7    8 1    
    16    8    9 1    
    17    8  134 1    
    18    8  135 1    
    19    9   10 ar   
    20    9   14 ar   
    21   10   11 ar   
    22   10  136 1    
    23   11   12 ar   
    24   11  126 1    
    25   12   13 ar   
    26   12  137 1    
    27   13   14 ar   
    28   13   15 1    
    29   14  138 1    
    30   15   16 1    
    31   15  139 1    
    32   15  140 1    
    33   16   17 1    
    34   17   18 1    
    35   17  141 1    
    36   17  142 1    
    37   18   19 1    
    38   18   67 1    
    39   18  143 1    
    40   19   20 am   BACKBONE|DICT|INTERRES
    41   19  144 1    
    42   20   21 2    
    43   20   22 1    
    44   22   23 1    
    45   22   24 1    
    46   22  145 1    
    47   23  146 1    
    48   23  147 1    
    49   23  148 1    
    50   24   25 am   BACKBONE|DICT|INTERRES
    51   24  149 1    
    52   25   26 2    
    53   25   27 1    
    54   27   28 1    
    55   27   29 1    
    56   27  150 1    
    57   28  151 1    
    58   28  152 1    
    59   28  153 1    
    60   29   30 am   BACKBONE|DICT|INTERRES
    61   29  154 1    
    62   30   31 2    
    63   30   32 1    
    64   32   33 1    
    65   32   34 1    
    66   32  155 1    
    67   33  156 1    
    68   33  157 1    
    69   33  158 1    
    70   34   35 am   BACKBONE|DICT|INTERRES
    71   34  159 1    
    72   35   36 2    
    73   35   37 1    
    74   37   38 1    
    75   37   39 1    
    76   37  160 1    
    77   38  161 1    
    78   38  162 1    
    79   38  163 1    
    80   39   40 am   BACKBONE|DICT|INTERRES
    81   39  164 1    
    82   40   41 2    
    83   40   42 1    
    84   42   43 1    
    85   42   44 1    
    86   42  165 1    
    87   43  166 1    
    88   43  167 1    
    89   43  168 1    
    90   44   45 am   BACKBONE|DICT|INTERRES
    91   44  169 1    
    92   45   46 2    
    93   45   47 1    
    94   47   48 1    
    95   47   49 1    
    96   47  170 1    
    97   48  171 1    
    98   48  172 1    
    99   48  173 1    
   100   49   50 am   BACKBONE|DICT|INTERRES
   101   49  174 1    
   102   50   51 2    
   103   50   52 1    
   104   52   53 1    
   105   52   54 1    
   106   52  175 1    
   107   53  176 1    
   108   53  177 1    
   109   53  178 1    
   110   54   55 am   BACKBONE|DICT|INTERRES
   111   54  179 1    
   112   55   56 2    
   113   55   57 1    
   114   57   58 1    
   115   57   59 1    
   116   57  180 1    
   117   58  181 1    
   118   58  182 1    
   119   58  183 1    
   120   59   60 am   BACKBONE|DICT|INTERRES
   121   59  184 1    
   122   60   61 2    
   123   60   62 1    
   124   62   63 1    
   125   62   64 1    
   126   62  185 1    
   127   63  186 1    
   128   63  187 1    
   129   63  188 1    
   130   64   65 am   BACKBONE|DICT|INTERRES
   131   64  189 1    
   132   65   66 2    
   133   67   68 2    
   134   67   69 am   BACKBONE|DICT|INTERRES
   135   69   70 1    
   136   69  190 1    
   137   70   71 1    
   138   70   72 1    
   139   70  191 1    
   140   71  192 1    
   141   71  193 1    
   142   71  194 1    
   143   72   73 2    
   144   72   74 am   BACKBONE|DICT|INTERRES
   145   74   75 1    
   146   74  195 1    
   147   75   76 1    
   148   75   77 1    
   149   75  196 1    
   150   76  197 1    
   151   76  198 1    
   152   76  199 1    
   153   77   78 2    
   154   77   79 am   BACKBONE|DICT|INTERRES
   155   79   80 1    
   156   79  200 1    
   157   80   81 1    
   158   80   82 1    
   159   80  201 1    
   160   81  202 1    
   161   81  203 1    
   162   81  204 1    
   163   82   83 2    
   164   82   84 am   BACKBONE|DICT|INTERRES
   165   84   85 1    
   166   84  205 1    
   167   85   86 1    
   168   85   87 1    
   169   85  206 1    
   170   86  207 1    
   171   86  208 1    
   172   86  209 1    
   173   87   88 2    
   174   87   89 am   BACKBONE|DICT|INTERRES
   175   89   90 1    
   176   89  210 1    
   177   90   91 1    
   178   90   92 1    
   179   90  211 1    
   180   91  212 1    
   181   91  213 1    
   182   91  214 1    
   183   92   93 2    
   184   92   94 am   BACKBONE|DICT|INTERRES
   185   94   95 1    
   186   94  215 1    
   187   95   96 1    
   188   95   97 1    
   189   95  216 1    
   190   96  217 1    
   191   96  218 1    
   192   96  219 1    
   193   97   98 2    
   194   97   99 am   BACKBONE|DICT|INTERRES
   195   99  100 1    
   196   99  220 1    
   197  100  101 1    
   198  100  102 1    
   199  100  221 1    
   200  101  222 1    
   201  101  223 1    
   202  101  224 1    
   203  102  103 2    
   204  102  104 am   BACKBONE|DICT|INTERRES
   205  104  105 1    
   206  104  225 1    
   207  105  106 1    
   208  105  107 1    
   209  105  226 1    
   210  106  227 1    
   211  106  228 1    
   212  106  229 1    
   213  107  108 2    
   214  107  109 am   BACKBONE|DICT|INTERRES
   215  109  110 1    
   216  109  230 1    
   217  110  111 1    
   218  110  112 1    
   219  110  231 1    
   220  111  232 1    
   221  111  233 1    
   222  111  234 1    
   223  112  113 2    
   224  112  114 am   BACKBONE|DICT|INTERRES
   225  114  115 1    
   226  114  235 1    
   227  115  116 1    
   228  115  117 1    
   229  115  236 1    
   230  116  237 1    
   231  116  238 1    
   232  116  239 1    
   233  117  118 2    
   234  117  119 am   BACKBONE|DICT|INTERRES
   235  119  120 1    
   236  119  240 1    
   237  120  121 1    
   238  120  124 1    
   239  120  241 1    
   240  121  122 am   BACKBONE|DICT|INTERRES
   241  121  123 2    
   242  122  242 1    
   243  122  243 1    
   244  124  125 1    
   245  124  244 1    
   246  124  245 1    
   247  125  126 1    
   248  126  246 1    
   249  126  247 1    
@<TRIPOS>SUBSTRUCTURE
     1 UNK         1 GROUP             0       ****    0 ROOT    
