@<TRIPOS>MOLECULE
3R540
247   249    1
SMALL
USER_CHARGES


@<TRIPOS>ATOM
      1 CA          5.8737  -12.7565  -50.0359 C.3       0 UNK        -0.1800 
      2 C           5.5597  -13.6403  -48.8312 C.2       0 UNK         0.5000 
      3 O           6.4166  -14.4140  -48.4105 O.2       0 UNK        -0.5000 
      4 N           4.3612  -13.5598  -48.2388 N.am      1 UNK        -0.5000 
      5 CA          3.2097  -12.7446  -48.6503 C.3       1 UNK         0.1400 
      6 C6          2.2481  -12.4356  -47.4708 C.3       23 UNK        -0.0398 
      7 S7          1.9309  -13.8493  -46.3587 S.3       23 UNK        -0.2404 
      8 C8          0.1587  -13.6743  -45.9790 C.3       23 UNK        -0.0205 
      9 C9         -0.7492  -14.2987  -47.0305 C.ar      23 UNK        -0.0193 
     10 C10        -1.7829  -13.5507  -47.5978 C.ar      23 UNK        -0.1150 
     11 C11        -2.6788  -14.1426  -48.4916 C.ar      23 UNK        -0.0193 
     12 C12        -2.5189  -15.4878  -48.8354 C.ar      23 UNK        -0.1150 
     13 C13        -1.4770  -16.2491  -48.2995 C.ar      23 UNK        -0.0193 
     14 C14        -0.6004  -15.6428  -47.3873 C.ar      23 UNK        -0.1150 
     15 C15        -1.3570  -17.7121  -48.7387 C.3       23 UNK        -0.0205 
     16 S16         0.2156  -18.5414  -48.3148 S.3       23 UNK        -0.2404 
     17 C17        -0.1024  -18.9599  -46.5629 C.3       23 UNK        -0.0398 
     18 CA         -0.2867  -20.4645  -46.2275 C.3       11 UNK         0.1400 
     19 N          -0.8829  -20.6255  -44.9024 N.am      11 UNK        -0.5000 
     20 C          -1.0393  -21.7766  -44.2387 C.2       10 UNK         0.5000 
     21 O          -0.6207  -22.8623  -44.6352 O.2       10 UNK        -0.5000 
     22 CA         -1.8513  -21.7030  -42.9353 C.3       10 UNK         0.1400 
     23 CB         -0.9702  -21.2469  -41.7622 C.3       10 UNK        -0.1800 
     24 N          -3.0029  -20.8082  -43.0628 N.am      10 UNK        -0.5000 
     25 C          -4.0921  -21.0745  -43.7962 C.2       9 UNK         0.5000 
     26 O          -4.2516  -22.1204  -44.4254 O.2       9 UNK        -0.5000 
     27 CA         -5.1718  -19.9775  -43.8577 C.3       9 UNK         0.1400 
     28 CB         -6.0762  -20.0350  -42.6179 C.3       9 UNK        -0.1800 
     29 N          -4.6151  -18.6293  -43.9900 N.am      9 UNK        -0.5000 
     30 C          -3.9888  -18.1817  -45.0861 C.2       8 UNK         0.5000 
     31 O          -3.8153  -18.8584  -46.0990 O.2       8 UNK        -0.5000 
     32 CA         -3.4220  -16.7504  -45.0308 C.3       8 UNK         0.1400 
     33 CB         -4.5272  -15.7141  -45.2788 C.3       8 UNK        -0.1800 
     34 N          -2.6894  -16.3943  -43.8099 N.am      8 UNK        -0.5000 
     35 C          -1.7254  -17.1230  -43.2322 C.2       7 UNK         0.5000 
     36 O          -1.4853  -18.2968  -43.5155 O.2       7 UNK        -0.5000 
     37 CA         -0.8811  -16.4263  -42.1478 C.3       7 UNK         0.1400 
     38 CB         -1.5333  -16.6094  -40.7692 C.3       7 UNK        -0.1800 
     39 N           0.4905  -16.9455  -42.0961 N.am      7 UNK        -0.5000 
     40 C           1.3444  -16.9658  -43.1300 C.2       6 UNK         0.5000 
     41 O           1.0962  -16.4736  -44.2315 O.2       6 UNK        -0.5000 
     42 CA          2.6746  -17.7091  -42.9014 C.3       6 UNK         0.1400 
     43 CB          2.4435  -19.2305  -42.9197 C.3       6 UNK        -0.1800 
     44 N           3.6691  -17.3868  -43.9241 N.am      6 UNK        -0.5000 
     45 C           4.2798  -16.2036  -44.0800 C.2       5 UNK         0.5000 
     46 O           4.1534  -15.2643  -43.2927 O.2       5 UNK        -0.5000 
     47 CA          5.2100  -16.0498  -45.3033 C.3       5 UNK         0.1400 
     48 CB          6.6577  -15.7841  -44.8592 C.3       5 UNK        -0.1800 
     49 N           5.1981  -17.2339  -46.1683 N.am      5 UNK        -0.5000 
     50 C           4.3809  -17.4141  -47.2123 C.2       4 UNK         0.5000 
     51 O           3.6002  -16.5587  -47.6402 O.2       4 UNK        -0.5000 
     52 CA          4.4389  -18.8019  -47.8688 C.3       4 UNK         0.1400 
     53 CB          3.8586  -19.8878  -46.9435 C.3       4 UNK        -0.1800 
     54 N           3.6679  -18.7625  -49.1012 N.am      4 UNK        -0.5000 
     55 C           3.9418  -19.4260  -50.2275 C.2       3 UNK         0.5000 
     56 O           4.8582  -20.2417  -50.3372 O.2       3 UNK        -0.5000 
     57 CA          3.0492  -19.1170  -51.4468 C.3       3 UNK         0.1400 
     58 CB          1.9855  -20.2107  -51.6252 C.3       3 UNK        -0.1800 
     59 N           2.3797  -17.8145  -51.3697 N.am      3 UNK        -0.5000 
     60 C           2.9959  -16.6260  -51.4318 C.2       2 UNK         0.5000 
     61 O           4.2095  -16.4959  -51.5999 O.2       2 UNK        -0.5000 
     62 CA          2.1301  -15.3689  -51.2583 C.3       2 UNK         0.1400 
     63 CB          0.6160  -15.6382  -51.1537 C.3       2 UNK        -0.1800 
     64 N           2.6060  -14.6587  -50.0767 N.am      2 UNK        -0.5000 
     65 C           2.4707  -13.3453  -49.8642 C.2       1 UNK         0.5000 
     66 O           1.8422  -12.5946  -50.6118 O.2       1 UNK        -0.5000 
     67 C          -1.0759  -21.2647  -47.2872 C.2       11 UNK         0.5000 
     68 O          -0.4700  -22.0383  -48.0279 O.2       11 UNK        -0.5000 
     69 N          -2.4088  -21.1131  -47.3072 N.am      12 UNK        -0.5000 
     70 CA         -3.3033  -21.8538  -48.1984 C.3       12 UNK         0.1400 
     71 CB         -4.7331  -21.3149  -48.0617 C.3       12 UNK        -0.1800 
     72 C          -3.2647  -23.3748  -47.9626 C.2       12 UNK         0.5000 
     73 O          -3.2534  -24.1354  -48.9310 O.2       12 UNK        -0.5000 
     74 N          -3.2020  -23.7921  -46.6896 N.am      13 UNK        -0.5000 
     75 CA         -3.0402  -25.1896  -46.2872 C.3       13 UNK         0.1400 
     76 CB         -3.2409  -25.3254  -44.7706 C.3       13 UNK        -0.1800 
     77 C          -1.6847  -25.7764  -46.7225 C.2       13 UNK         0.5000 
     78 O          -1.6562  -26.8710  -47.2852 O.2       13 UNK        -0.5000 
     79 N          -0.5949  -25.0256  -46.5042 N.am      14 UNK        -0.5000 
     80 CA          0.7653  -25.3765  -46.9261 C.3       14 UNK         0.1400 
     81 CB          1.7631  -24.3639  -46.3430 C.3       14 UNK        -0.1800 
     82 C           0.9157  -25.4680  -48.4565 C.2       14 UNK         0.5000 
     83 O           1.6238  -26.3468  -48.9490 O.2       14 UNK        -0.5000 
     84 N           0.2103  -24.5881  -49.1782 N.am      15 UNK        -0.5000 
     85 CA          0.0990  -24.5819  -50.6364 C.3       15 UNK         0.1400 
     86 CB         -0.3919  -23.1956  -51.0850 C.3       15 UNK        -0.1800 
     87 C          -0.8317  -25.6797  -51.1918 C.2       15 UNK         0.5000 
     88 O          -0.9330  -25.8042  -52.4112 O.2       15 UNK        -0.5000 
     89 N          -1.5264  -26.4246  -50.3174 N.am      16 UNK        -0.5000 
     90 CA         -2.5212  -27.4574  -50.6306 C.3       16 UNK         0.1400 
     91 CB         -1.8450  -28.6897  -51.2663 C.3       16 UNK        -0.1800 
     92 C          -3.6976  -26.9089  -51.4673 C.2       16 UNK         0.5000 
     93 O          -4.1559  -27.5637  -52.4050 O.2       16 UNK        -0.5000 
     94 N          -4.1374  -25.6922  -51.1156 N.am      17 UNK        -0.5000 
     95 CA         -5.1887  -24.8909  -51.7472 C.3       17 UNK         0.1400 
     96 CB         -6.5507  -25.6145  -51.7011 C.3       17 UNK        -0.1800 
     97 C          -4.8401  -24.3665  -53.1576 C.2       17 UNK         0.5000 
     98 O          -5.7306  -23.8574  -53.8404 O.2       17 UNK        -0.5000 
     99 N          -3.5630  -24.4444  -53.5698 N.am      18 UNK        -0.5000 
    100 CA        -3.0677  -23.8221  -54.8048 C.3       18 UNK         0.1400 
    101 CB        -1.6874  -24.3904  -55.1637 C.3       18 UNK        -0.1800 
    102 C         -3.0080  -22.2850  -54.6993 C.2       18 UNK         0.5000 
    103 O         -3.1480  -21.5993  -55.7127 O.2       18 UNK        -0.5000 
    104 N         -2.8383  -21.7823  -53.4706 N.am      19 UNK        -0.5000 
    105 CA        -3.0512  -20.3924  -53.0897 C.3       19 UNK         0.1400 
    106 CB        -1.8518  -19.8993  -52.2645 C.3       19 UNK        -0.1800 
    107 C         -4.3366  -20.3434  -52.2535 C.2       19 UNK         0.5000 
    108 O         -4.5436  -21.2205  -51.4108 O.2       19 UNK        -0.5000 
    109 N         -5.1709  -19.3291  -52.4968 N.am      20 UNK        -0.5000 
    110 CA        -6.3888  -19.0738  -51.7324 C.3       20 UNK         0.1400 
    111 CB        -7.4022  -18.3517  -52.6339 C.3       20 UNK        -0.1800 
    112 C         -6.0683  -18.2191  -50.4969 C.2       20 UNK         0.5000 
    113 O         -5.2003  -17.3452  -50.5660 O.2       20 UNK        -0.5000 
    114 N         -6.7979  -18.4583  -49.4024 N.am      21 UNK        -0.5000 
    115 CA        -6.7273  -17.6482  -48.1911 C.3       21 UNK         0.1400 
    116 CB        -7.2258  -18.4727  -46.9933 C.3       21 UNK        -0.1800 
    117 C         -7.5707  -16.3746  -48.3718 C.2       21 UNK         0.5000 
    118 O         -8.7708  -16.4738  -48.6361 O.2       21 UNK        -0.5000 
    119 N         -6.9339  -15.2101  -48.2221 N.am      22 UNK        -0.5000 
    120 CA        -7.5717  -13.8828  -48.2673 C.3       22 UNK         0.1400 
    121 C         -8.3238  -13.4723  -46.9646 C.2       22 UNK         0.5000 
    122 N         -8.2456  -14.2300  -45.8770 N.am      22 UNK        -0.7600 
    123 O         -9.0084  -12.4528  -46.9462 O.2       22 UNK        -0.5000 
    124 C124       -6.5755  -12.7866  -48.7333 C.3       23 UNK        -0.0398 
    125 S125       -5.0000  -12.7961  -47.8040 S.3       23 UNK        -0.2404 
    126 C126       -3.8211  -13.3338  -49.0861 C.3       23 UNK        -0.0205 
    127 H127        5.2008  -12.9726  -50.8653 H         1 UNK         0.0600 
    128 H128        5.7908  -11.7011  -49.7771 H         1 UNK         0.0600 
    129 H129        6.8922  -12.9329  -50.3826 H         1 UNK         0.0600 
    130 H130        4.1565  -14.1982  -47.4816 H         1 UNK         0.3000 
    131 H131        3.5895  -11.7787  -48.9872 H         1 UNK         0.0600 
    132 H132        1.3026  -12.0268  -47.8328 H         1 UNK         0.0800 
    133 H133        2.6863  -11.6476  -46.8572 H         1 UNK         0.0800 
    134 H134       -0.0384  -14.1695  -45.0277 H         1 UNK         0.0800 
    135 H135       -0.0770  -12.6202  -45.8256 H         1 UNK         0.0800 
    136 H136       -1.9138  -12.5136  -47.3226 H         1 UNK         0.1150 
    137 H137       -3.2071  -15.9475  -49.5309 H         1 UNK         0.1150 
    138 H138        0.2035  -16.2037  -46.9338 H         1 UNK         0.1150 
    139 H139       -2.1931  -18.2794  -48.3271 H         1 UNK         0.0800 
    140 H140       -1.4698  -17.7594  -49.8222 H         1 UNK         0.0800 
    141 H141        0.7196  -18.5571  -45.9707 H         1 UNK         0.0800 
    142 H142       -0.9810  -18.4037  -46.2359 H         1 UNK         0.0800 
    143 H143        0.7087  -20.9109  -46.1844 H         1 UNK         0.0600 
    144 H144       -1.2279  -19.7759  -44.4572 H         1 UNK         0.3000 
    145 H145       -2.2189  -22.7069  -42.7132 H         1 UNK         0.0600 
    146 H146       -1.5231  -21.2706  -40.8232 H         1 UNK         0.0600 
    147 H147       -0.1050  -21.9009  -41.6471 H         1 UNK         0.0600 
    148 H148       -0.5977  -20.2325  -41.9045 H         1 UNK         0.0600 
    149 H149       -2.9035  -19.8864  -42.6611 H         1 UNK         0.3000 
    150 H150       -5.7908  -20.1774  -44.7343 H         1 UNK         0.0600 
    151 H151       -6.5181  -21.0258  -42.5032 H         1 UNK         0.0600 
    152 H152       -6.8969  -19.3217  -42.6961 H         1 UNK         0.0600 
    153 H153       -5.5238  -19.8137  -41.7039 H         1 UNK         0.0600 
    154 H154       -4.6940  -18.0166  -43.1918 H         1 UNK         0.3000 
    155 H155       -2.7081  -16.6701  -45.8490 H         1 UNK         0.0600 
    156 H156       -4.1096  -14.7132  -45.3907 H         1 UNK         0.0600 
    157 H157       -5.2500  -15.6892  -44.4628 H         1 UNK         0.0600 
    158 H158       -5.0702  -15.9365  -46.1954 H         1 UNK         0.0600 
    159 H159       -2.8326  -15.4513  -43.4794 H         1 UNK         0.3000 
    160 H160       -0.8258  -15.3607  -42.3790 H         1 UNK         0.0600 
    161 H161       -0.9724  -16.0871  -39.9940 H         1 UNK         0.0600 
    162 H162       -1.5925  -17.6625  -40.4900 H         1 UNK         0.0600 
    163 H163       -2.5481  -16.2097  -40.7585 H         1 UNK         0.0600 
    164 H164        0.7596  -17.3995  -41.2363 H         1 UNK         0.3000 
    165 H165        3.0738  -17.4186  -41.9275 H         1 UNK         0.0600 
    166 H166        3.3763  -19.7751  -42.7728 H         1 UNK         0.0600 
    167 H167        1.7655  -19.5351  -42.1222 H         1 UNK         0.0600 
    168 H168        2.0062  -19.5608  -43.8632 H         1 UNK         0.0600 
    169 H169        3.8097  -18.0794  -44.6414 H         1 UNK         0.3000 
    170 H170        4.8642  -15.1796  -45.8632 H         1 UNK         0.0600 
    171 H171        6.7211  -14.8854  -44.2444 H         1 UNK         0.0600 
    172 H172        7.0591  -16.6124  -44.2742 H         1 UNK         0.0600 
    173 H173        7.3095  -15.6316  -45.7199 H         1 UNK         0.0600 
    174 H174        5.8264  -17.9794  -45.9039 H         1 UNK         0.3000 
    175 H175        5.4837  -19.0266  -48.0933 H         1 UNK         0.0600 
    176 H176        2.8340  -19.6580  -46.6524 H         1 UNK         0.0600 
    177 H177        3.8531  -20.8617  -47.4334 H         1 UNK         0.0600 
    178 H178        4.4468  -19.9906  -46.0313 H         1 UNK         0.0600 
    179 H179        2.9255  -18.0747  -49.1026 H         1 UNK         0.3000 
    180 H180        3.6924  -19.1176  -52.3292 H         1 UNK         0.0600 
    181 H181        1.2661  -20.2075  -50.8053 H         1 UNK         0.0600 
    182 H182        2.4406  -21.2014  -51.6594 H         1 UNK         0.0600 
    183 H183        1.4380  -20.0761  -52.5574 H         1 UNK         0.0600 
    184 H184        1.3830  -17.8323  -51.2107 H         1 UNK         0.3000 
    185 H185        2.3084  -14.7494  -52.1396 H         1 UNK         0.0600 
    186 H186        0.2402  -16.1663  -52.0307 H         1 UNK         0.0600 
    187 H187        0.3908  -16.2343  -50.2739 H         1 UNK         0.0600 
    188 H188        0.0505  -14.7098  -51.0725 H         1 UNK         0.0600 
    189 H189        3.1467  -15.2055  -49.4147 H         1 UNK         0.3000 
    190 H190       -2.8450  -20.4299  -46.6944 H         1 UNK         0.3000 
    191 H191       -2.9703  -21.6719  -49.2219 H         1 UNK         0.0600 
    192 H192       -5.4164  -21.8439  -48.7272 H         1 UNK         0.0600 
    193 H193       -4.7750  -20.2591  -48.3281 H         1 UNK         0.0600 
    194 H194       -5.1096  -21.4219  -47.0441 H         1 UNK         0.0600 
    195 H195       -3.2704  -23.1071  -45.9446 H         1 UNK         0.3000 
    196 H196       -3.8238  -25.7680  -46.7810 H         1 UNK         0.0600 
    197 H197       -3.1519  -26.3662  -44.4571 H         1 UNK         0.0600 
    198 H198       -4.2307  -24.9794  -44.4722 H         1 UNK         0.0600 
    199 H199       -2.5039  -24.7502  -44.2107 H         1 UNK         0.0600 
    200 H200       -0.6961  -24.1501  -45.9957 H         1 UNK         0.3000 
    201 H201        0.9973  -26.3598  -46.5121 H         1 UNK         0.0600 
    202 H202        1.7219  -24.3529  -45.2537 H         1 UNK         0.0600 
    203 H203        1.5618  -23.3516  -46.6948 H         1 UNK         0.0600 
    204 H204        2.7859  -24.6136  -46.6276 H         1 UNK         0.0600 
    205 H205       -0.2792  -23.8439  -48.6877 H         1 UNK         0.3000 
    206 H206        1.0914  -24.7476  -51.0603 H         1 UNK         0.0600 
    207 H207        0.2537  -22.4077  -50.6996 H         1 UNK         0.0600 
    208 H208       -0.3941  -23.1081  -52.1718 H         1 UNK         0.0600 
    209 H209       -1.4047  -22.9960  -50.7339 H         1 UNK         0.0600 
    210 H210       -1.3974  -26.2404  -49.3299 H         1 UNK         0.3000 
    211 H211       -2.9473  -27.7704  -49.6766 H         1 UNK         0.0600 
    212 H212       -1.4380  -28.4661  -52.2528 H         1 UNK         0.0600 
    213 H213       -2.5560  -29.5082  -51.3838 H         1 UNK         0.0600 
    214 H214       -1.0299  -29.0560  -50.6422 H         1 UNK         0.0600 
    215 H215       -3.6837  -25.2340  -50.3256 H         1 UNK         0.3000 
    216 H216       -5.2790  -23.9996  -51.1244 H         1 UNK         0.0600 
    217 H217       -6.5776  -26.4749  -52.3700 H         1 UNK         0.0600 
    218 H218       -7.3587  -24.9461  -52.0005 H         1 UNK         0.0600 
    219 H219       -6.7783  -25.9631  -50.6938 H         1 UNK         0.0600 
    220 H220       -2.8800  -24.9195  -52.9921 H         1 UNK         0.3000 
    221 H221       -3.7558  -24.0751  -55.6142 H         1 UNK         0.0600 
    222 H222       -0.9290  -24.0987  -54.4370 H         1 UNK         0.0600 
    223 H223       -1.7068  -25.4793  -55.2131 H         1 UNK         0.0600 
    224 H224       -1.3599  -24.0256  -56.1380 H         1 UNK         0.0600 
    225 H225       -2.8133  -22.4339  -52.7001 H         1 UNK         0.3000 
    226 H226       -3.1611  -19.7569  -53.9710 H         1 UNK         0.0600 
    227 H227       -0.9279  -19.9798  -52.8358 H         1 UNK         0.0600 
    228 H228       -1.9751  -18.8512  -51.9903 H         1 UNK         0.0600 
    229 H229       -1.7274  -20.4680  -51.3418 H         1 UNK         0.0600 
    230 H230       -4.9082  -18.6195  -53.1652 H         1 UNK         0.3000 
    231 H231       -6.8271  -20.0213  -51.4103 H         1 UNK         0.0600 
    232 H232       -7.0200  -17.3914  -52.9829 H         1 UNK         0.0600 
    233 H233       -8.3330  -18.1588  -52.0988 H         1 UNK         0.0600 
    234 H234       -7.6494  -18.9528  -53.5091 H         1 UNK         0.0600 
    235 H235       -7.5276  -19.1553  -49.4336 H         1 UNK         0.3000 
    236 H236       -5.6853  -17.3791  -48.0038 H         1 UNK         0.0600 
    237 H237       -6.6309  -19.3756  -46.8642 H         1 UNK         0.0600 
    238 H238       -7.1511  -17.9011  -46.0676 H         1 UNK         0.0600 
    239 H239       -8.2674  -18.7737  -47.1118 H         1 UNK         0.0600 
    240 H240       -5.9428  -15.2002  -48.0304 H         1 UNK         0.3000 
    241 H241       -8.3523  -13.9275  -49.0294 H         1 UNK         0.0600 
    242 H242       -7.6951  -15.0713  -45.8747 H         1 UNK         0.3800 
    243 H243       -8.7442  -13.9531  -45.0459 H         1 UNK         0.3800 
    244 H244       -6.3728  -12.9173  -49.7966 H         1 UNK         0.0800 
    245 H245       -7.0188  -11.7924  -48.6541 H         1 UNK         0.0800 
    246 H246       -3.4210  -12.4579  -49.5985 H         1 UNK         0.0800 
    247 H247       -4.3360  -13.9266  -49.8437 H         1 UNK         0.0800 
@<TRIPOS>BOND
     1    1    2 1    
     2    1  127 1    
     3    1  128 1    
     4    1  129 1    
     5    2    3 2    
     6    2    4 am   BACKBONE|DICT|INTERRES
     7    4    5 1    
     8    4  130 1    
     9    5    6 1    
    10    5   65 1    
    11    5  131 1    
    12    6    7 1    
    13    6  132 1    
    14    6  133 1    
    15    7    8 1    
    16    8    9 1    
    17    8  134 1    
    18    8  135 1    
    19    9   10 ar   
    20    9   14 ar   
    21   10   11 ar   
    22   10  136 1    
    23   11   12 ar   
    24   11  126 1    
    25   12   13 ar   
    26   12  137 1    
    27   13   14 ar   
    28   13   15 1    
    29   14  138 1    
    30   15   16 1    
    31   15  139 1    
    32   15  140 1    
    33   16   17 1    
    34   17   18 1    
    35   17  141 1    
    36   17  142 1    
    37   18   19 1    
    38   18   67 1    
    39   18  143 1    
    40   19   20 am   BACKBONE|DICT|INTERRES
    41   19  144 1    
    42   20   21 2    
    43   20   22 1    
    44   22   23 1    
    45   22   24 1    
    46   22  145 1    
    47   23  146 1    
    48   23  147 1    
    49   23  148 1    
    50   24   25 am   BACKBONE|DICT|INTERRES
    51   24  149 1    
    52   25   26 2    
    53   25   27 1    
    54   27   28 1    
    55   27   29 1    
    56   27  150 1    
    57   28  151 1    
    58   28  152 1    
    59   28  153 1    
    60   29   30 am   BACKBONE|DICT|INTERRES
    61   29  154 1    
    62   30   31 2    
    63   30   32 1    
    64   32   33 1    
    65   32   34 1    
    66   32  155 1    
    67   33  156 1    
    68   33  157 1    
    69   33  158 1    
    70   34   35 am   BACKBONE|DICT|INTERRES
    71   34  159 1    
    72   35   36 2    
    73   35   37 1    
    74   37   38 1    
    75   37   39 1    
    76   37  160 1    
    77   38  161 1    
    78   38  162 1    
    79   38  163 1    
    80   39   40 am   BACKBONE|DICT|INTERRES
    81   39  164 1    
    82   40   41 2    
    83   40   42 1    
    84   42   43 1    
    85   42   44 1    
    86   42  165 1    
    87   43  166 1    
    88   43  167 1    
    89   43  168 1    
    90   44   45 am   BACKBONE|DICT|INTERRES
    91   44  169 1    
    92   45   46 2    
    93   45   47 1    
    94   47   48 1    
    95   47   49 1    
    96   47  170 1    
    97   48  171 1    
    98   48  172 1    
    99   48  173 1    
   100   49   50 am   BACKBONE|DICT|INTERRES
   101   49  174 1    
   102   50   51 2    
   103   50   52 1    
   104   52   53 1    
   105   52   54 1    
   106   52  175 1    
   107   53  176 1    
   108   53  177 1    
   109   53  178 1    
   110   54   55 am   BACKBONE|DICT|INTERRES
   111   54  179 1    
   112   55   56 2    
   113   55   57 1    
   114   57   58 1    
   115   57   59 1    
   116   57  180 1    
   117   58  181 1    
   118   58  182 1    
   119   58  183 1    
   120   59   60 am   BACKBONE|DICT|INTERRES
   121   59  184 1    
   122   60   61 2    
   123   60   62 1    
   124   62   63 1    
   125   62   64 1    
   126   62  185 1    
   127   63  186 1    
   128   63  187 1    
   129   63  188 1    
   130   64   65 am   BACKBONE|DICT|INTERRES
   131   64  189 1    
   132   65   66 2    
   133   67   68 2    
   134   67   69 am   BACKBONE|DICT|INTERRES
   135   69   70 1    
   136   69  190 1    
   137   70   71 1    
   138   70   72 1    
   139   70  191 1    
   140   71  192 1    
   141   71  193 1    
   142   71  194 1    
   143   72   73 2    
   144   72   74 am   BACKBONE|DICT|INTERRES
   145   74   75 1    
   146   74  195 1    
   147   75   76 1    
   148   75   77 1    
   149   75  196 1    
   150   76  197 1    
   151   76  198 1    
   152   76  199 1    
   153   77   78 2    
   154   77   79 am   BACKBONE|DICT|INTERRES
   155   79   80 1    
   156   79  200 1    
   157   80   81 1    
   158   80   82 1    
   159   80  201 1    
   160   81  202 1    
   161   81  203 1    
   162   81  204 1    
   163   82   83 2    
   164   82   84 am   BACKBONE|DICT|INTERRES
   165   84   85 1    
   166   84  205 1    
   167   85   86 1    
   168   85   87 1    
   169   85  206 1    
   170   86  207 1    
   171   86  208 1    
   172   86  209 1    
   173   87   88 2    
   174   87   89 am   BACKBONE|DICT|INTERRES
   175   89   90 1    
   176   89  210 1    
   177   90   91 1    
   178   90   92 1    
   179   90  211 1    
   180   91  212 1    
   181   91  213 1    
   182   91  214 1    
   183   92   93 2    
   184   92   94 am   BACKBONE|DICT|INTERRES
   185   94   95 1    
   186   94  215 1    
   187   95   96 1    
   188   95   97 1    
   189   95  216 1    
   190   96  217 1    
   191   96  218 1    
   192   96  219 1    
   193   97   98 2    
   194   97   99 am   BACKBONE|DICT|INTERRES
   195   99  100 1    
   196   99  220 1    
   197  100  101 1    
   198  100  102 1    
   199  100  221 1    
   200  101  222 1    
   201  101  223 1    
   202  101  224 1    
   203  102  103 2    
   204  102  104 am   BACKBONE|DICT|INTERRES
   205  104  105 1    
   206  104  225 1    
   207  105  106 1    
   208  105  107 1    
   209  105  226 1    
   210  106  227 1    
   211  106  228 1    
   212  106  229 1    
   213  107  108 2    
   214  107  109 am   BACKBONE|DICT|INTERRES
   215  109  110 1    
   216  109  230 1    
   217  110  111 1    
   218  110  112 1    
   219  110  231 1    
   220  111  232 1    
   221  111  233 1    
   222  111  234 1    
   223  112  113 2    
   224  112  114 am   BACKBONE|DICT|INTERRES
   225  114  115 1    
   226  114  235 1    
   227  115  116 1    
   228  115  117 1    
   229  115  236 1    
   230  116  237 1    
   231  116  238 1    
   232  116  239 1    
   233  117  118 2    
   234  117  119 am   BACKBONE|DICT|INTERRES
   235  119  120 1    
   236  119  240 1    
   237  120  121 1    
   238  120  124 1    
   239  120  241 1    
   240  121  122 am   BACKBONE|DICT|INTERRES
   241  121  123 2    
   242  122  242 1    
   243  122  243 1    
   244  124  125 1    
   245  124  244 1    
   246  124  245 1    
   247  125  126 1    
   248  126  246 1    
   249  126  247 1    
@<TRIPOS>SUBSTRUCTURE
     1 UNK         1 GROUP             0       ****    0 ROOT    
