@<TRIPOS>MOLECULE
3R540
247   249    1
SMALL
USER_CHARGES


@<TRIPOS>ATOM
      1 CA          0.2799  -13.2838  -51.9604 C.3       0 UNK        -0.1800 
      2 C           1.1387  -13.3288  -50.7038 C.2       0 UNK         0.5000 
      3 O           2.3603  -13.2055  -50.7910 O.2       0 UNK        -0.5000 
      4 N           0.5040  -13.5011  -49.5374 N.am      1 UNK        -0.5000 
      5 CA          1.1712  -13.6127  -48.2322 C.3       1 UNK         0.1400 
      6 C6          0.3116  -14.3917  -47.2050 C.3       23 UNK        -0.0398 
      7 S7          0.0757  -16.1244  -47.7105 S.3       23 UNK        -0.2404 
      8 C8         -1.6451  -16.1240  -48.2981 C.3       23 UNK        -0.0205 
      9 C9         -1.7824  -17.0634  -49.4816 C.ar      23 UNK        -0.0193 
     10 C10        -1.6869  -16.5678  -50.7844 C.ar      23 UNK        -0.1150 
     11 C11        -1.7512  -17.4342  -51.8775 C.ar      23 UNK        -0.0193 
     12 C12        -1.9045  -18.8067  -51.6601 C.ar      23 UNK        -0.1150 
     13 C13        -2.0049  -19.3129  -50.3604 C.ar      23 UNK        -0.0193 
     14 C14        -1.9611  -18.4333  -49.2752 C.ar      23 UNK        -0.1150 
     15 C15        -2.1343  -20.8104  -50.1339 C.3       23 UNK        -0.0205 
     16 S16        -0.5110  -21.5675  -49.8075 S.3       23 UNK        -0.2404 
     17 C17        -0.3259  -21.3121  -48.0113 C.3       23 UNK        -0.0398 
     18 CA          0.0055  -22.6216  -47.2551 C.3       11 UNK         0.1400 
     19 N           0.7331  -22.3472  -46.0131 N.am      11 UNK        -0.5000 
     20 C           1.3419  -23.2748  -45.2623 C.2       10 UNK         0.5000 
     21 O           1.3926  -24.4675  -45.5596 O.2       10 UNK        -0.5000 
     22 CA          1.9559  -22.7981  -43.9330 C.3       10 UNK         0.1400 
     23 CB          3.3427  -22.1786  -44.1600 C.3       10 UNK        -0.1800 
     24 N           1.0954  -21.8490  -43.2233 N.am      10 UNK        -0.5000 
     25 C          -0.1196  -22.1513  -42.7429 C.2       9 UNK         0.5000 
     26 O          -0.6156  -23.2744  -42.8076 O.2       9 UNK        -0.5000 
     27 CA         -0.9424  -21.0069  -42.1277 C.3       9 UNK         0.1400 
     28 CB         -0.5096  -20.7458  -40.6777 C.3       9 UNK        -0.1800 
     29 N          -0.8619  -19.7689  -42.9019 N.am      9 UNK        -0.5000 
     30 C          -1.2886  -19.6239  -44.1650 C.2       8 UNK         0.5000 
     31 O          -1.8350  -20.5177  -44.8119 O.2       8 UNK        -0.5000 
     32 CA         -0.9958  -18.2719  -44.8404 C.3       8 UNK         0.1400 
     33 CB         -1.9915  -17.1925  -44.3921 C.3       8 UNK        -0.1800 
     34 N           0.3704  -17.8151  -44.5898 N.am      8 UNK        -0.5000 
     35 C           1.4684  -18.4631  -45.0048 C.2       7 UNK         0.5000 
     36 O           1.4454  -19.4995  -45.6691 O.2       7 UNK        -0.5000 
     37 CA          2.8172  -17.8861  -44.5471 C.3       7 UNK         0.1400 
     38 CB          3.2465  -16.7129  -45.4405 C.3       7 UNK        -0.1800 
     39 N           2.7722  -17.4582  -43.1485 N.am      7 UNK        -0.5000 
     40 C           2.6875  -18.3018  -42.1094 C.2       6 UNK         0.5000 
     41 O           2.6749  -19.5272  -42.2238 O.2       6 UNK        -0.5000 
     42 CA          2.5548  -17.6711  -40.7111 C.3       6 UNK         0.1400 
     43 CB          3.9352  -17.2919  -40.1548 C.3       6 UNK        -0.1800 
     44 N           1.6867  -16.4929  -40.6998 N.am      6 UNK        -0.5000 
     45 C           0.3720  -16.5154  -40.9611 C.2       5 UNK         0.5000 
     46 O          -0.2566  -17.5417  -41.2125 O.2       5 UNK        -0.5000 
     47 CA         -0.3561  -15.1595  -40.9904 C.3       5 UNK         0.1400 
     48 CB         -0.8933  -14.8057  -39.5960 C.3       5 UNK        -0.1800 
     49 N           0.4756  -14.0589  -41.4833 N.am      5 UNK        -0.5000 
     50 C           1.0113  -13.9960  -42.7086 C.2       4 UNK         0.5000 
     51 O           0.8800  -14.8803  -43.5588 O.2       4 UNK        -0.5000 
     52 CA          1.8199  -12.7283  -43.0351 C.3       4 UNK         0.1400 
     53 CB          3.1531  -13.0759  -43.7165 C.3       4 UNK        -0.1800 
     54 N           1.0353  -11.8360  -43.8889 N.am      4 UNK        -0.5000 
     55 C           0.0086  -11.0915  -43.4478 C.2       3 UNK         0.5000 
     56 O          -0.2997  -11.0223  -42.2564 O.2       3 UNK        -0.5000 
     57 CA         -0.8469  -10.3273  -44.4840 C.3       3 UNK         0.1400 
     58 CB         -1.2802   -8.9337  -43.9809 C.3       3 UNK        -0.1800 
     59 N          -0.2671  -10.2526  -45.8297 N.am      3 UNK        -0.5000 
     60 C           0.8153   -9.5681  -46.2299 C.2       2 UNK         0.5000 
     61 O           1.4932   -8.8521  -45.4913 O.2       2 UNK        -0.5000 
     62 CA          1.2057   -9.7589  -47.7145 C.3       2 UNK         0.1400 
     63 CB          2.6368   -9.2749  -48.0288 C.3       2 UNK        -0.1800 
     64 N           1.0136  -11.1426  -48.1772 N.am      2 UNK        -0.5000 
     65 C           1.5750  -12.2433  -47.6499 C.2       1 UNK         0.5000 
     66 O           2.3575  -12.2130  -46.7020 O.2       1 UNK        -0.5000 
     67 C          -1.2459  -23.4969  -47.0073 C.2       11 UNK         0.5000 
     68 O          -1.4885  -24.4481  -47.7527 O.2       11 UNK        -0.5000 
     69 N          -1.9864  -23.2012  -45.9288 N.am      12 UNK        -0.5000 
     70 CA         -3.1274  -23.9928  -45.4676 C.3       12 UNK         0.1400 
     71 CB         -3.8672  -23.2371  -44.3540 C.3       12 UNK        -0.1800 
     72 C          -2.7215  -25.4050  -45.0039 C.2       12 UNK         0.5000 
     73 O          -3.3863  -26.3738  -45.3702 O.2       12 UNK        -0.5000 
     74 N          -1.6160  -25.5094  -44.2517 N.am      13 UNK        -0.5000 
     75 CA         -1.0288  -26.7720  -43.7899 C.3       13 UNK         0.1400 
     76 CB          0.0981  -26.4806  -42.7879 C.3       13 UNK        -0.1800 
     77 C          -0.5166  -27.6633  -44.9382 C.2       13 UNK         0.5000 
     78 O          -0.5796  -28.8882  -44.8298 O.2       13 UNK        -0.5000 
     79 N          -0.0654  -27.0370  -46.0336 N.am      14 UNK        -0.5000 
     80 CA          0.3058  -27.6900  -47.2912 C.3       14 UNK         0.1400 
     81 CB          1.1951  -26.7354  -48.1052 C.3       14 UNK        -0.1800 
     82 C          -0.9065  -28.1641  -48.1253 C.2       14 UNK         0.5000 
     83 O          -0.7035  -28.8008  -49.1600 O.2       14 UNK        -0.5000 
     84 N          -2.1315  -27.8570  -47.6697 N.am      15 UNK        -0.5000 
     85 CA         -3.4264  -28.2094  -48.2592 C.3       15 UNK         0.1400 
     86 CB         -3.6258  -29.7396  -48.2961 C.3       15 UNK        -0.1800 
     87 C          -3.6880  -27.5264  -49.6163 C.2       15 UNK         0.5000 
     88 O          -4.3800  -28.0896  -50.4675 O.2       15 UNK        -0.5000 
     89 N          -3.1468  -26.3141  -49.7913 N.am      16 UNK        -0.5000 
     90 CA         -3.4120  -25.4535  -50.9418 C.3       16 UNK         0.1400 
     91 CB         -2.2784  -24.4267  -51.0491 C.3       16 UNK        -0.1800 
     92 C          -4.7780  -24.7479  -50.8201 C.2       16 UNK         0.5000 
     93 O          -5.4073  -24.7739  -49.7580 O.2       16 UNK        -0.5000 
     94 N          -5.2057  -24.1174  -51.9203 N.am      17 UNK        -0.5000 
     95 CA         -6.4257  -23.3138  -52.0061 C.3       17 UNK         0.1400 
     96 CB         -6.6704  -22.9557  -53.4808 C.3       17 UNK        -0.1800 
     97 C          -6.3622  -22.0348  -51.1464 C.2       17 UNK         0.5000 
     98 O          -5.2739  -21.5457  -50.8321 O.2       17 UNK        -0.5000 
     99 N          -7.5411  -21.4985  -50.8071 N.am      18 UNK        -0.5000 
    100 CA        -7.7161  -20.2273  -50.1053 C.3       18 UNK         0.1400 
    101 CB        -9.1359  -20.1773  -49.5133 C.3       18 UNK        -0.1800 
    102 C         -7.4328  -19.0483  -51.0569 C.2       18 UNK         0.5000 
    103 O         -8.3625  -18.4933  -51.6465 O.2       18 UNK        -0.5000 
    104 N         -6.1404  -18.7365  -51.2169 N.am      19 UNK        -0.5000 
    105 CA        -5.5606  -17.8203  -52.2018 C.3       19 UNK         0.1400 
    106 CB        -6.0770  -16.3763  -52.0160 C.3       19 UNK        -0.1800 
    107 C         -5.7087  -18.3654  -53.6393 C.2       19 UNK         0.5000 
    108 O         -5.8232  -19.5796  -53.8197 O.2       19 UNK        -0.5000 
    109 N         -5.6459  -17.4758  -54.6414 N.am      20 UNK        -0.5000 
    110 CA        -5.7805  -17.7032  -56.0919 C.3       20 UNK         0.1400 
    111 CB        -7.1598  -18.2967  -56.4363 C.3       20 UNK        -0.1800 
    112 C         -4.6504  -18.5265  -56.7481 C.2       20 UNK         0.5000 
    113 O         -4.2652  -18.2236  -57.8786 O.2       20 UNK        -0.5000 
    114 N         -4.1091  -19.5183  -56.0290 N.am      21 UNK        -0.5000 
    115 CA        -3.0392  -20.4326  -56.4465 C.3       21 UNK         0.1400 
    116 CB        -2.8080  -21.4573  -55.3241 C.3       21 UNK        -0.1800 
    117 C         -1.7124  -19.7427  -56.8280 C.2       21 UNK         0.5000 
    118 O         -0.9059  -20.3323  -57.5483 O.2       21 UNK        -0.5000 
    119 N         -1.5228  -18.5063  -56.3543 N.am      22 UNK        -0.5000 
    120 CA        -0.4116  -17.6123  -56.7114 C.3       22 UNK         0.1400 
    121 C         -0.5056  -17.0263  -58.1526 C.2       22 UNK         0.5000 
    122 N         -1.6334  -17.1268  -58.8487 N.am      22 UNK        -0.7600 
    123 O          0.4694  -16.4712  -58.6516 O.2       22 UNK        -0.5000 
    124 C124       -0.2415  -16.4708  -55.6747 C.3       23 UNK        -0.0398 
    125 S125        0.0114  -17.0792  -53.9720 S.3       23 UNK        -0.2404 
    126 C126       -1.6643  -16.8883  -53.2918 C.3       23 UNK        -0.0205 
    127 H127       -0.7839  -13.2500  -51.7247 H         1 UNK         0.0600 
    128 H128        0.4659  -14.1667  -52.5722 H         1 UNK         0.0600 
    129 H129        0.5229  -12.4008  -52.5513 H         1 UNK         0.0600 
    130 H130       -0.5001  -13.5985  -49.5291 H         1 UNK         0.3000 
    131 H131        2.1015  -14.1689  -48.3699 H         1 UNK         0.0600 
    132 H132        0.8016  -14.4133  -46.2302 H         1 UNK         0.0800 
    133 H133       -0.6523  -13.9072  -47.0425 H         1 UNK         0.0800 
    134 H134       -2.3069  -16.4323  -47.4877 H         1 UNK         0.0800 
    135 H135       -1.9558  -15.1193  -48.5862 H         1 UNK         0.0800 
    136 H136       -1.5481  -15.5092  -50.9475 H         1 UNK         0.1150 
    137 H137       -1.9359  -19.4815  -52.5037 H         1 UNK         0.1150 
    138 H138       -2.0305  -18.8138  -48.2671 H         1 UNK         0.1150 
    139 H139       -2.8286  -21.0204  -49.3189 H         1 UNK         0.0800 
    140 H140       -2.5631  -21.2803  -51.0203 H         1 UNK         0.0800 
    141 H141        0.4864  -20.5940  -47.8937 H         1 UNK         0.0800 
    142 H142       -1.2072  -20.8316  -47.5855 H         1 UNK         0.0800 
    143 H143        0.6850  -23.2074  -47.8784 H         1 UNK         0.0600 
    144 H144        0.7793  -21.3766  -45.7173 H         1 UNK         0.3000 
    145 H145        2.0808  -23.6745  -43.2940 H         1 UNK         0.0600 
    146 H146        3.8167  -21.9179  -43.2137 H         1 UNK         0.0600 
    147 H147        4.0036  -22.8787  -44.6725 H         1 UNK         0.0600 
    148 H148        3.2880  -21.2747  -44.7664 H         1 UNK         0.0600 
    149 H149        1.4626  -20.9129  -43.0865 H         1 UNK         0.3000 
    150 H150       -1.9880  -21.3206  -42.1166 H         1 UNK         0.0600 
    151 H151       -0.5714  -21.6567  -40.0810 H         1 UNK         0.0600 
    152 H152       -1.1508  -20.0027  -40.2034 H         1 UNK         0.0600 
    153 H153        0.5178  -20.3852  -40.6228 H         1 UNK         0.0600 
    154 H154       -0.4664  -18.9638  -42.4228 H         1 UNK         0.3000 
    155 H155       -1.1066  -18.4092  -45.9178 H         1 UNK         0.0600 
    156 H156       -1.9436  -17.0191  -43.3172 H         1 UNK         0.0600 
    157 H157       -3.0145  -17.4838  -44.6328 H         1 UNK         0.0600 
    158 H158       -1.7951  -16.2439  -44.8924 H         1 UNK         0.0600 
    159 H159        0.4822  -16.9520  -44.0708 H         1 UNK         0.3000 
    160 H160        3.5680  -18.6736  -44.6400 H         1 UNK         0.0600 
    161 H161        2.5278  -15.8953  -45.4062 H         1 UNK         0.0600 
    162 H162        3.3288  -17.0279  -46.4815 H         1 UNK         0.0600 
    163 H163        4.2178  -16.3199  -45.1400 H         1 UNK         0.0600 
    164 H164        2.7119  -16.4650  -42.9782 H         1 UNK         0.3000 
    165 H165        2.1146  -18.4203  -40.0496 H         1 UNK         0.0600 
    166 H166        4.4169  -16.5218  -40.7587 H         1 UNK         0.0600 
    167 H167        3.8599  -16.9197  -39.1329 H         1 UNK         0.0600 
    168 H168        4.5990  -18.1574  -40.1360 H         1 UNK         0.0600 
    169 H169        2.1219  -15.6042  -40.5019 H         1 UNK         0.3000 
    170 H170       -1.2065  -15.2592  -41.6679 H         1 UNK         0.0600 
    171 H171       -1.5364  -15.5991  -39.2126 H         1 UNK         0.0600 
    172 H172       -0.0856  -14.6611  -38.8774 H         1 UNK         0.0600 
    173 H173       -1.4877  -13.8921  -39.6225 H         1 UNK         0.0600 
    174 H174        0.5926  -13.2703  -40.8627 H         1 UNK         0.3000 
    175 H175        2.0564  -12.2061  -42.1054 H         1 UNK         0.0600 
    176 H176        3.7143  -12.1759  -43.9680 H         1 UNK         0.0600 
    177 H177        3.7799  -13.6788  -43.0586 H         1 UNK         0.0600 
    178 H178        3.0068  -13.6445  -44.6344 H         1 UNK         0.0600 
    179 H179        1.2601  -11.8464  -44.8762 H         1 UNK         0.3000 
    180 H180       -1.7556  -10.9205  -44.5956 H         1 UNK         0.0600 
    181 H181       -1.8899   -8.4175  -44.7225 H         1 UNK         0.0600 
    182 H182       -1.8784   -9.0139  -43.0725 H         1 UNK         0.0600 
    183 H183       -0.4240   -8.3001  -43.7486 H         1 UNK         0.0600 
    184 H184       -0.7376  -10.8109  -46.5277 H         1 UNK         0.3000 
    185 H185        0.5159   -9.1409  -48.2910 H         1 UNK         0.0600 
    186 H186        2.8767   -9.4140  -49.0829 H         1 UNK         0.0600 
    187 H187        2.7476   -8.2124  -47.8091 H         1 UNK         0.0600 
    188 H188        3.3844   -9.8094  -47.4419 H         1 UNK         0.0600 
    189 H189        0.3831  -11.2650  -48.9570 H         1 UNK         0.3000 
    190 H190       -1.7560  -22.3741  -45.3852 H         1 UNK         0.3000 
    191 H191       -3.8132  -24.1062  -46.3101 H         1 UNK         0.0600 
    192 H192       -4.7454  -23.7926  -44.0229 H         1 UNK         0.0600 
    193 H193       -4.2098  -22.2619  -44.7007 H         1 UNK         0.0600 
    194 H194       -3.2326  -23.0769  -43.4827 H         1 UNK         0.0600 
    195 H195       -1.1573  -24.6575  -43.9365 H         1 UNK         0.3000 
    196 H196       -1.8103  -27.3280  -43.2681 H         1 UNK         0.0600 
    197 H197        0.5335  -27.4059  -42.4087 H         1 UNK         0.0600 
    198 H198       -0.2726  -25.9205  -41.9293 H         1 UNK         0.0600 
    199 H199        0.9015  -25.9023  -43.2441 H         1 UNK         0.0600 
    200 H200        0.0187  -26.0269  -46.0094 H         1 UNK         0.3000 
    201 H201        0.8963  -28.5770  -47.0535 H         1 UNK         0.0600 
    202 H202        2.0724  -26.4305  -47.5345 H         1 UNK         0.0600 
    203 H203        0.6579  -25.8343  -48.3995 H         1 UNK         0.0600 
    204 H204        1.5531  -27.2144  -49.0173 H         1 UNK         0.0600 
    205 H205       -2.1946  -27.3105  -46.8186 H         1 UNK         0.3000 
    206 H206       -4.1791  -27.8055  -47.5811 H         1 UNK         0.0600 
    207 H207       -3.4372  -30.1850  -47.3193 H         1 UNK         0.0600 
    208 H208       -4.6492  -29.9933  -48.5744 H         1 UNK         0.0600 
    209 H209       -2.9645  -30.2192  -49.0181 H         1 UNK         0.0600 
    210 H210       -2.6159  -25.8992  -49.0343 H         1 UNK         0.3000 
    211 H211       -3.4159  -26.0628  -51.8481 H         1 UNK         0.0600 
    212 H212       -2.2913  -23.7556  -50.1922 H         1 UNK         0.0600 
    213 H213       -2.3734  -23.8155  -51.9472 H         1 UNK         0.0600 
    214 H214       -1.3016  -24.9095  -51.0837 H         1 UNK         0.0600 
    215 H215       -4.6169  -24.1161  -52.7396 H         1 UNK         0.3000 
    216 H216       -7.2581  -23.9251  -51.6511 H         1 UNK         0.0600 
    217 H217       -7.5851  -22.3734  -53.5998 H         1 UNK         0.0600 
    218 H218       -6.7743  -23.8506  -54.0946 H         1 UNK         0.0600 
    219 H219       -5.8528  -22.3605  -53.8887 H         1 UNK         0.0600 
    220 H220       -8.3876  -21.9423  -51.1322 H         1 UNK         0.3000 
    221 H221       -7.0074  -20.1770  -49.2756 H         1 UNK         0.0600 
    222 H222       -9.9018  -20.2700  -50.2844 H         1 UNK         0.0600 
    223 H223       -9.2894  -20.9797  -48.7915 H         1 UNK         0.0600 
    224 H224       -9.3068  -19.2347  -48.9918 H         1 UNK         0.0600 
    225 H225       -5.4743  -19.3593  -50.7751 H         1 UNK         0.3000 
    226 H226       -4.4934  -17.8102  -51.9922 H         1 UNK         0.0600 
    227 H227       -6.0341  -16.0776  -50.9685 H         1 UNK         0.0600 
    228 H228       -5.4678  -15.6634  -52.5722 H         1 UNK         0.0600 
    229 H229       -7.1079  -16.2633  -52.3529 H         1 UNK         0.0600 
    230 H230       -5.5209  -16.5069  -54.3838 H         1 UNK         0.3000 
    231 H231       -5.7344  -16.7117  -56.5451 H         1 UNK         0.0600 
    232 H232       -7.2993  -18.3543  -57.5166 H         1 UNK         0.0600 
    233 H233       -7.9650  -17.6799  -56.0373 H         1 UNK         0.0600 
    234 H234       -7.2817  -19.3051  -56.0399 H         1 UNK         0.0600 
    235 H235       -4.5459  -19.7097  -55.1303 H         1 UNK         0.3000 
    236 H236       -3.3909  -20.9650  -57.3322 H         1 UNK         0.0600 
    237 H237       -2.4981  -20.9742  -54.3969 H         1 UNK         0.0600 
    238 H238       -3.7137  -22.0274  -55.1182 H         1 UNK         0.0600 
    239 H239       -2.0312  -22.1724  -55.5982 H         1 UNK         0.0600 
    240 H240       -2.2495  -18.1089  -55.7819 H         1 UNK         0.3000 
    241 H241        0.5018  -18.2098  -56.6912 H         1 UNK         0.0600 
    242 H242       -2.4571  -17.5742  -58.4600 H         1 UNK         0.3800 
    243 H243       -1.6722  -16.7450  -59.7805 H         1 UNK         0.3800 
    244 H244        0.6262  -15.8592  -55.9285 H         1 UNK         0.0800 
    245 H245       -1.0995  -15.7967  -55.6996 H         1 UNK         0.0800 
    246 H246       -1.9433  -15.8334  -53.3097 H         1 UNK         0.0800 
    247 H247       -2.3851  -17.4093  -53.9217 H         1 UNK         0.0800 
@<TRIPOS>BOND
     1    1    2 1    
     2    1  127 1    
     3    1  128 1    
     4    1  129 1    
     5    2    3 2    
     6    2    4 am   BACKBONE|DICT|INTERRES
     7    4    5 1    
     8    4  130 1    
     9    5    6 1    
    10    5   65 1    
    11    5  131 1    
    12    6    7 1    
    13    6  132 1    
    14    6  133 1    
    15    7    8 1    
    16    8    9 1    
    17    8  134 1    
    18    8  135 1    
    19    9   10 ar   
    20    9   14 ar   
    21   10   11 ar   
    22   10  136 1    
    23   11   12 ar   
    24   11  126 1    
    25   12   13 ar   
    26   12  137 1    
    27   13   14 ar   
    28   13   15 1    
    29   14  138 1    
    30   15   16 1    
    31   15  139 1    
    32   15  140 1    
    33   16   17 1    
    34   17   18 1    
    35   17  141 1    
    36   17  142 1    
    37   18   19 1    
    38   18   67 1    
    39   18  143 1    
    40   19   20 am   BACKBONE|DICT|INTERRES
    41   19  144 1    
    42   20   21 2    
    43   20   22 1    
    44   22   23 1    
    45   22   24 1    
    46   22  145 1    
    47   23  146 1    
    48   23  147 1    
    49   23  148 1    
    50   24   25 am   BACKBONE|DICT|INTERRES
    51   24  149 1    
    52   25   26 2    
    53   25   27 1    
    54   27   28 1    
    55   27   29 1    
    56   27  150 1    
    57   28  151 1    
    58   28  152 1    
    59   28  153 1    
    60   29   30 am   BACKBONE|DICT|INTERRES
    61   29  154 1    
    62   30   31 2    
    63   30   32 1    
    64   32   33 1    
    65   32   34 1    
    66   32  155 1    
    67   33  156 1    
    68   33  157 1    
    69   33  158 1    
    70   34   35 am   BACKBONE|DICT|INTERRES
    71   34  159 1    
    72   35   36 2    
    73   35   37 1    
    74   37   38 1    
    75   37   39 1    
    76   37  160 1    
    77   38  161 1    
    78   38  162 1    
    79   38  163 1    
    80   39   40 am   BACKBONE|DICT|INTERRES
    81   39  164 1    
    82   40   41 2    
    83   40   42 1    
    84   42   43 1    
    85   42   44 1    
    86   42  165 1    
    87   43  166 1    
    88   43  167 1    
    89   43  168 1    
    90   44   45 am   BACKBONE|DICT|INTERRES
    91   44  169 1    
    92   45   46 2    
    93   45   47 1    
    94   47   48 1    
    95   47   49 1    
    96   47  170 1    
    97   48  171 1    
    98   48  172 1    
    99   48  173 1    
   100   49   50 am   BACKBONE|DICT|INTERRES
   101   49  174 1    
   102   50   51 2    
   103   50   52 1    
   104   52   53 1    
   105   52   54 1    
   106   52  175 1    
   107   53  176 1    
   108   53  177 1    
   109   53  178 1    
   110   54   55 am   BACKBONE|DICT|INTERRES
   111   54  179 1    
   112   55   56 2    
   113   55   57 1    
   114   57   58 1    
   115   57   59 1    
   116   57  180 1    
   117   58  181 1    
   118   58  182 1    
   119   58  183 1    
   120   59   60 am   BACKBONE|DICT|INTERRES
   121   59  184 1    
   122   60   61 2    
   123   60   62 1    
   124   62   63 1    
   125   62   64 1    
   126   62  185 1    
   127   63  186 1    
   128   63  187 1    
   129   63  188 1    
   130   64   65 am   BACKBONE|DICT|INTERRES
   131   64  189 1    
   132   65   66 2    
   133   67   68 2    
   134   67   69 am   BACKBONE|DICT|INTERRES
   135   69   70 1    
   136   69  190 1    
   137   70   71 1    
   138   70   72 1    
   139   70  191 1    
   140   71  192 1    
   141   71  193 1    
   142   71  194 1    
   143   72   73 2    
   144   72   74 am   BACKBONE|DICT|INTERRES
   145   74   75 1    
   146   74  195 1    
   147   75   76 1    
   148   75   77 1    
   149   75  196 1    
   150   76  197 1    
   151   76  198 1    
   152   76  199 1    
   153   77   78 2    
   154   77   79 am   BACKBONE|DICT|INTERRES
   155   79   80 1    
   156   79  200 1    
   157   80   81 1    
   158   80   82 1    
   159   80  201 1    
   160   81  202 1    
   161   81  203 1    
   162   81  204 1    
   163   82   83 2    
   164   82   84 am   BACKBONE|DICT|INTERRES
   165   84   85 1    
   166   84  205 1    
   167   85   86 1    
   168   85   87 1    
   169   85  206 1    
   170   86  207 1    
   171   86  208 1    
   172   86  209 1    
   173   87   88 2    
   174   87   89 am   BACKBONE|DICT|INTERRES
   175   89   90 1    
   176   89  210 1    
   177   90   91 1    
   178   90   92 1    
   179   90  211 1    
   180   91  212 1    
   181   91  213 1    
   182   91  214 1    
   183   92   93 2    
   184   92   94 am   BACKBONE|DICT|INTERRES
   185   94   95 1    
   186   94  215 1    
   187   95   96 1    
   188   95   97 1    
   189   95  216 1    
   190   96  217 1    
   191   96  218 1    
   192   96  219 1    
   193   97   98 2    
   194   97   99 am   BACKBONE|DICT|INTERRES
   195   99  100 1    
   196   99  220 1    
   197  100  101 1    
   198  100  102 1    
   199  100  221 1    
   200  101  222 1    
   201  101  223 1    
   202  101  224 1    
   203  102  103 2    
   204  102  104 am   BACKBONE|DICT|INTERRES
   205  104  105 1    
   206  104  225 1    
   207  105  106 1    
   208  105  107 1    
   209  105  226 1    
   210  106  227 1    
   211  106  228 1    
   212  106  229 1    
   213  107  108 2    
   214  107  109 am   BACKBONE|DICT|INTERRES
   215  109  110 1    
   216  109  230 1    
   217  110  111 1    
   218  110  112 1    
   219  110  231 1    
   220  111  232 1    
   221  111  233 1    
   222  111  234 1    
   223  112  113 2    
   224  112  114 am   BACKBONE|DICT|INTERRES
   225  114  115 1    
   226  114  235 1    
   227  115  116 1    
   228  115  117 1    
   229  115  236 1    
   230  116  237 1    
   231  116  238 1    
   232  116  239 1    
   233  117  118 2    
   234  117  119 am   BACKBONE|DICT|INTERRES
   235  119  120 1    
   236  119  240 1    
   237  120  121 1    
   238  120  124 1    
   239  120  241 1    
   240  121  122 am   BACKBONE|DICT|INTERRES
   241  121  123 2    
   242  122  242 1    
   243  122  243 1    
   244  124  125 1    
   245  124  244 1    
   246  124  245 1    
   247  125  126 1    
   248  126  246 1    
   249  126  247 1    
@<TRIPOS>SUBSTRUCTURE
     1 UNK         1 GROUP             0       ****    0 ROOT    
