@<TRIPOS>MOLECULE
3R540
247   249    1
SMALL
USER_CHARGES


@<TRIPOS>ATOM
      1 CA          5.8821  -12.2304  -46.0680 C.3       0 UNK        -0.1800 
      2 C           4.3698  -12.0846  -46.1248 C.2       0 UNK         0.5000 
      3 O           3.7540  -11.7182  -45.1231 O.2       0 UNK        -0.5000 
      4 N           3.7628  -12.3696  -47.2847 N.am      1 UNK        -0.5000 
      5 CA          2.3220  -12.2176  -47.5335 C.3       1 UNK         0.1400 
      6 C6          1.8785  -12.8835  -48.8584 C.3       23 UNK        -0.0398 
      7 S7          1.8172  -14.7009  -48.7207 S.3       23 UNK        -0.2404 
      8 C8          0.0627  -15.0077  -49.1427 C.3       23 UNK        -0.0205 
      9 C9         -0.4039  -16.4610  -49.0343 C.ar      23 UNK        -0.0193 
     10 C10        -1.7741  -16.7162  -48.8985 C.ar      23 UNK        -0.1150 
     11 C11        -2.2622  -18.0253  -48.8235 C.ar      23 UNK        -0.0193 
     12 C12        -1.3565  -19.0890  -48.8711 C.ar      23 UNK        -0.1150 
     13 C13         0.0112  -18.8554  -49.0127 C.ar      23 UNK        -0.0193 
     14 C14         0.4832  -17.5437  -49.0963 C.ar      23 UNK        -0.1150 
     15 C15         0.9688  -20.0294  -49.0893 C.3       23 UNK        -0.0205 
     16 S16         1.4895  -20.5526  -47.4290 S.3       23 UNK        -0.2404 
     17 C17         2.1756  -22.2007  -47.8031 C.3       23 UNK        -0.0398 
     18 CA          1.3055  -23.3941  -47.3370 C.3       11 UNK         0.1400 
     19 N           1.2295  -23.5242  -45.8783 N.am      11 UNK        -0.5000 
     20 C           0.9317  -24.6806  -45.2675 C.2       10 UNK         0.5000 
     21 O           0.6773  -25.7214  -45.8744 O.2       10 UNK        -0.5000 
     22 CA          0.8792  -24.6822  -43.7292 C.3       10 UNK         0.1400 
     23 CB          2.2860  -24.8742  -43.1436 C.3       10 UNK        -0.1800 
     24 N           0.2687  -23.4900  -43.1388 N.am      10 UNK        -0.5000 
     25 C          -0.9721  -23.0488  -43.3837 C.2       9 UNK         0.5000 
     26 O          -1.7220  -23.5561  -44.2202 O.2       9 UNK        -0.5000 
     27 CA         -1.4783  -21.8445  -42.5618 C.3       9 UNK         0.1400 
     28 CB         -0.5035  -21.3557  -41.4654 C.3       9 UNK        -0.1800 
     29 N          -1.8847  -20.7392  -43.4326 N.am      9 UNK        -0.5000 
     30 C          -1.1075  -20.0632  -44.2908 C.2       8 UNK         0.5000 
     31 O           0.0987  -20.2729  -44.4244 O.2       8 UNK        -0.5000 
     32 CA         -1.8098  -19.0219  -45.1899 C.3       8 UNK         0.1400 
     33 CB         -3.1748  -18.5369  -44.6521 C.3       8 UNK        -0.1800 
     34 N          -0.9696  -17.8788  -45.5442 N.am      8 UNK        -0.5000 
     35 C          -0.4059  -16.9959  -44.7122 C.2       7 UNK         0.5000 
     36 O          -0.4876  -17.0358  -43.4821 O.2       7 UNK        -0.5000 
     37 CA          0.3138  -15.8193  -45.3913 C.3       7 UNK         0.1400 
     38 CB         -0.5844  -14.5717  -45.3996 C.3       7 UNK        -0.1800 
     39 N           1.5803  -15.4977  -44.7433 N.am      7 UNK        -0.5000 
     40 C           2.6805  -16.2585  -44.8157 C.2       6 UNK         0.5000 
     41 O           2.7385  -17.3103  -45.4523 O.2       6 UNK        -0.5000 
     42 CA          3.9389  -15.7553  -44.0839 C.3       6 UNK         0.1400 
     43 CB          5.1206  -15.6339  -45.0607 C.3       6 UNK        -0.1800 
     44 N           3.7232  -14.4574  -43.4360 N.am      6 UNK        -0.5000 
     45 C           3.5407  -14.2824  -42.1206 C.2       5 UNK         0.5000 
     46 O           3.5305  -15.1975  -41.2971 O.2       5 UNK        -0.5000 
     47 CA          3.3214  -12.8374  -41.6497 C.3       5 UNK         0.1400 
     48 CB          4.6665  -12.1077  -41.5068 C.3       5 UNK        -0.1800 
     49 N           2.4795  -12.0922  -42.5816 N.am      5 UNK        -0.5000 
     50 C           1.1448  -12.0039  -42.5185 C.2       4 UNK         0.5000 
     51 O           0.4630  -12.6044  -41.6870 O.2       4 UNK        -0.5000 
     52 CA          0.4671  -11.0871  -43.5630 C.3       4 UNK         0.1400 
     53 CB         -0.8869  -10.5249  -43.0849 C.3       4 UNK        -0.1800 
     54 N           1.3474  -10.0124  -44.0374 N.am      4 UNK        -0.5000 
     55 C           1.9133   -9.0295  -43.3177 C.2       3 UNK         0.5000 
     56 O           1.6548   -8.8085  -42.1342 O.2       3 UNK        -0.5000 
     57 CA          2.9906   -8.1785  -44.0210 C.3       3 UNK         0.1400 
     58 CB          4.3697   -8.4486  -43.3959 C.3       3 UNK        -0.1800 
     59 N           3.0778   -8.4623  -45.4542 N.am      3 UNK        -0.5000 
     60 C           2.3958   -7.8176  -46.4098 C.2       2 UNK         0.5000 
     61 O           1.6634   -6.8508  -46.1980 O.2       2 UNK        -0.5000 
     62 CA          2.5381   -8.3678  -47.8434 C.3       2 UNK         0.1400 
     63 CB          3.6828   -7.6571  -48.5813 C.3       2 UNK        -0.1800 
     64 N           2.7661   -9.8163  -47.8860 N.am      2 UNK        -0.5000 
     65 C           1.8757  -10.7413  -47.4968 C.2       1 UNK         0.5000 
     66 O           0.7528  -10.4675  -47.0752 O.2       1 UNK        -0.5000 
     67 C          -0.0906  -23.4319  -47.9955 C.2       11 UNK         0.5000 
     68 O          -0.2251  -24.0021  -49.0773 O.2       11 UNK        -0.5000 
     69 N          -1.1118  -22.8841  -47.3158 N.am      12 UNK        -0.5000 
     70 CA         -2.5113  -22.9835  -47.7350 C.3       12 UNK         0.1400 
     71 CB         -3.3977  -22.0134  -46.9407 C.3       12 UNK        -0.1800 
     72 C          -3.0394  -24.4184  -47.6083 C.2       12 UNK         0.5000 
     73 O          -3.7258  -24.8840  -48.5151 O.2       12 UNK        -0.5000 
     74 N          -2.6800  -25.1037  -46.5137 N.am      13 UNK        -0.5000 
     75 CA         -3.0075  -26.5090  -46.2725 C.3       13 UNK         0.1400 
     76 CB         -2.5742  -26.9072  -44.8537 C.3       13 UNK        -0.1800 
     77 C          -2.3912  -27.4463  -47.3277 C.2       13 UNK         0.5000 
     78 O          -3.0944  -28.3107  -47.8510 O.2       13 UNK        -0.5000 
     79 N          -1.1121  -27.2219  -47.6633 N.am      14 UNK        -0.5000 
     80 CA         -0.3864  -27.9395  -48.7154 C.3       14 UNK         0.1400 
     81 CB          1.0968  -27.5426  -48.6717 C.3       14 UNK        -0.1800 
     82 C          -0.9690  -27.7024  -50.1229 C.2       14 UNK         0.5000 
     83 O          -1.0288  -28.6357  -50.9236 O.2       14 UNK        -0.5000 
     84 N          -1.4130  -26.4667  -50.3860 N.am      15 UNK        -0.5000 
     85 CA         -2.0713  -26.0507  -51.6259 C.3       15 UNK         0.1400 
     86 CB         -1.9506  -24.5237  -51.7392 C.3       15 UNK        -0.1800 
     87 C          -3.5538  -26.4683  -51.7191 C.2       15 UNK         0.5000 
     88 O          -4.1676  -26.2607  -52.7682 O.2       15 UNK        -0.5000 
     89 N          -4.1167  -26.9865  -50.6154 N.am      16 UNK        -0.5000 
     90 CA         -5.5352  -27.2944  -50.3962 C.3       16 UNK         0.1400 
     91 CB         -5.9602  -28.5115  -51.2426 C.3       16 UNK        -0.1800 
     92 C          -6.4427  -26.0628  -50.6132 C.2       16 UNK         0.5000 
     93 O          -7.5425  -26.1894  -51.1551 O.2       16 UNK        -0.5000 
     94 N          -5.9248  -24.8829  -50.2378 N.am      17 UNK        -0.5000 
     95 CA         -6.4086  -23.5172  -50.4712 C.3       17 UNK         0.1400 
     96 CB         -7.7624  -23.2762  -49.7782 C.3       17 UNK        -0.1800 
     97 C          -6.4640  -23.1032  -51.9562 C.2       17 UNK         0.5000 
     98 O          -6.0206  -22.0055  -52.2947 O.2       17 UNK        -0.5000 
     99 N          -7.0092  -23.9793  -52.8068 N.am      18 UNK        -0.5000 
    100 CA        -7.3160  -23.7606  -54.2169 C.3       18 UNK         0.1400 
    101 CB        -8.0381  -24.9984  -54.7699 C.3       18 UNK        -0.1800 
    102 C         -6.1008  -23.4104  -55.0898 C.2       18 UNK         0.5000 
    103 O         -6.1928  -22.4775  -55.8879 O.2       18 UNK        -0.5000 
    104 N         -4.9823  -24.1334  -54.9243 N.am      19 UNK        -0.5000 
    105 CA        -3.7794  -23.9408  -55.7455 C.3       19 UNK         0.1400 
    106 CB        -2.8644  -25.1698  -55.6324 C.3       19 UNK        -0.1800 
    107 C         -3.0138  -22.6428  -55.4184 C.2       19 UNK         0.5000 
    108 O         -2.2752  -22.1460  -56.2693 O.2       19 UNK        -0.5000 
    109 N         -3.2211  -22.1092  -54.2081 N.am      20 UNK        -0.5000 
    110 CA        -2.6855  -20.8271  -53.7482 C.3       20 UNK         0.1400 
    111 CB        -2.2559  -20.9794  -52.2800 C.3       20 UNK        -0.1800 
    112 C         -3.6983  -19.6753  -53.9253 C.2       20 UNK         0.5000 
    113 O         -3.3356  -18.5196  -53.7038 O.2       20 UNK        -0.5000 
    114 N         -4.9358  -20.0065  -54.3289 N.am      21 UNK        -0.5000 
    115 CA        -6.0921  -19.1253  -54.5193 C.3       21 UNK         0.1400 
    116 CB        -5.8598  -18.1698  -55.7082 C.3       21 UNK        -0.1800 
    117 C         -6.5214  -18.3978  -53.2263 C.2       21 UNK         0.5000 
    118 O         -6.9157  -17.2305  -53.2743 O.2       21 UNK        -0.5000 
    119 N         -6.4268  -19.0988  -52.0904 N.am      22 UNK        -0.5000 
    120 CA        -6.7859  -18.5888  -50.7593 C.3       22 UNK         0.1400 
    121 C         -8.3227  -18.4695  -50.5695 C.2       22 UNK         0.5000 
    122 N         -8.7898  -17.4474  -49.8655 N.am      22 UNK        -0.7600 
    123 O         -9.0927  -19.3173  -51.0160 O.2       22 UNK        -0.5000 
    124 C124       -6.1661  -19.4407  -49.6231 C.3       23 UNK        -0.0398 
    125 S125       -4.3585  -19.6039  -49.7773 S.3       23 UNK        -0.2404 
    126 C126       -3.7610  -18.2781  -48.6786 C.3       23 UNK        -0.0205 
    127 H127        6.3505  -11.2465  -46.0549 H         1 UNK         0.0600 
    128 H128        6.1758  -12.7578  -45.1608 H         1 UNK         0.0600 
    129 H129        6.2668  -12.7845  -46.9243 H         1 UNK         0.0600 
    130 H130        4.3128  -12.6964  -48.0667 H         1 UNK         0.3000 
    131 H131        1.8000  -12.7112  -46.7119 H         1 UNK         0.0600 
    132 H132        2.5518  -12.6130  -49.6733 H         1 UNK         0.0800 
    133 H133        0.8915  -12.5281  -49.1614 H         1 UNK         0.0800 
    134 H134       -0.1158  -14.6679  -50.1637 H         1 UNK         0.0800 
    135 H135       -0.5570  -14.3867  -48.4940 H         1 UNK         0.0800 
    136 H136       -2.4674  -15.8874  -48.8605 H         1 UNK         0.1150 
    137 H137       -1.7137  -20.1068  -48.8118 H         1 UNK         0.1150 
    138 H138        1.5440  -17.3779  -49.2146 H         1 UNK         0.1150 
    139 H139        0.4834  -20.8589  -49.6065 H         1 UNK         0.0800 
    140 H140        1.8478  -19.7679  -49.6803 H         1 UNK         0.0800 
    141 H141        2.3686  -22.2805  -48.8743 H         1 UNK         0.0800 
    142 H142        3.1571  -22.2649  -47.3318 H         1 UNK         0.0800 
    143 H143        1.8238  -24.2847  -47.7003 H         1 UNK         0.0600 
    144 H144        1.3901  -22.6905  -45.3293 H         1 UNK         0.3000 
    145 H145        0.2704  -25.5372  -43.4285 H         1 UNK         0.0600 
    146 H146        2.2504  -24.9921  -42.0604 H         1 UNK         0.0600 
    147 H147        2.7602  -25.7685  -43.5505 H         1 UNK         0.0600 
    148 H148        2.9350  -24.0269  -43.3687 H         1 UNK         0.0600 
    149 H149        0.8229  -22.9933  -42.4568 H         1 UNK         0.3000 
    150 H150       -2.3845  -22.1873  -42.0607 H         1 UNK         0.0600 
    151 H151       -0.2817  -22.1505  -40.7521 H         1 UNK         0.0600 
    152 H152       -0.9410  -20.5339  -40.8984 H         1 UNK         0.0600 
    153 H153        0.4424  -21.0012  -41.8760 H         1 UNK         0.0600 
    154 H154       -2.8698  -20.5174  -43.4133 H         1 UNK         0.3000 
    155 H155       -1.9890  -19.5322  -46.1322 H         1 UNK         0.0600 
    156 H156       -3.6007  -17.7695  -45.2985 H         1 UNK         0.0600 
    157 H157       -3.0871  -18.1113  -43.6517 H         1 UNK         0.0600 
    158 H158       -3.9000  -19.3502  -44.6096 H         1 UNK         0.0600 
    159 H159       -0.7911  -17.7774  -46.5343 H         1 UNK         0.3000 
    160 H160        0.5304  -16.0945  -46.4235 H         1 UNK         0.0600 
    161 H161       -0.7960  -14.2210  -44.3886 H         1 UNK         0.0600 
    162 H162       -1.5406  -14.7852  -45.8793 H         1 UNK         0.0600 
    163 H163       -0.1253  -13.7537  -45.9521 H         1 UNK         0.0600 
    164 H164        1.5982  -14.6871  -44.1449 H         1 UNK         0.3000 
    165 H165        4.1993  -16.5106  -43.3398 H         1 UNK         0.0600 
    166 H166        4.8767  -14.9983  -45.9116 H         1 UNK         0.0600 
    167 H167        6.0030  -15.2243  -44.5689 H         1 UNK         0.0600 
    168 H168        5.3980  -16.6110  -45.4581 H         1 UNK         0.0600 
    169 H169        3.7096  -13.6430  -44.0366 H         1 UNK         0.3000 
    170 H170        2.8446  -12.8670  -40.6676 H         1 UNK         0.0600 
    171 H171        5.3222  -12.6294  -40.8086 H         1 UNK         0.0600 
    172 H172        5.1913  -12.0349  -42.4605 H         1 UNK         0.0600 
    173 H173        4.5250  -11.0958  -41.1264 H         1 UNK         0.0600 
    174 H174        2.9537  -11.6269  -43.3495 H         1 UNK         0.3000 
    175 H175        0.2712  -11.7166  -44.4316 H         1 UNK         0.0600 
    176 H176       -0.7843   -9.9411  -42.1700 H         1 UNK         0.0600 
    177 H177       -1.3366   -9.8848  -43.8439 H         1 UNK         0.0600 
    178 H178       -1.5940  -11.3297  -42.8809 H         1 UNK         0.0600 
    179 H179        1.6099  -10.0793  -45.0111 H         1 UNK         0.3000 
    180 H180        2.7404   -7.1275  -43.8624 H         1 UNK         0.0600 
    181 H181        4.6670   -9.4918  -43.5110 H         1 UNK         0.0600 
    182 H182        4.3686   -8.2242  -42.3284 H         1 UNK         0.0600 
    183 H183        5.1390   -7.8280  -43.8557 H         1 UNK         0.0600 
    184 H184        3.6470   -9.2540  -45.7179 H         1 UNK         0.3000 
    185 H185        1.6061   -8.1564  -48.3720 H         1 UNK         0.0600 
    186 H186        3.5314   -6.5768  -48.5885 H         1 UNK         0.0600 
    187 H187        4.6474   -7.8502  -48.1103 H         1 UNK         0.0600 
    188 H188        3.7444   -7.9818  -49.6201 H         1 UNK         0.0600 
    189 H189        3.6701  -10.1243  -48.2140 H         1 UNK         0.3000 
    190 H190       -0.9273  -22.4855  -46.4066 H         1 UNK         0.3000 
    191 H191       -2.5747  -22.7025  -48.7885 H         1 UNK         0.0600 
    192 H192       -4.4544  -22.1937  -47.1442 H         1 UNK         0.0600 
    193 H193       -3.2021  -20.9843  -47.2281 H         1 UNK         0.0600 
    194 H194       -3.2512  -22.1066  -45.8650 H         1 UNK         0.0600 
    195 H195       -2.1593  -24.6221  -45.7862 H         1 UNK         0.3000 
    196 H196       -4.0931  -26.6089  -46.3343 H         1 UNK         0.0600 
    197 H197       -2.8564  -27.9378  -44.6354 H         1 UNK         0.0600 
    198 H198       -3.0488  -26.2733  -44.1044 H         1 UNK         0.0600 
    199 H199       -1.4955  -26.8283  -44.7221 H         1 UNK         0.0600 
    200 H200       -0.5865  -26.5243  -47.1443 H         1 UNK         0.3000 
    201 H201       -0.4598  -29.0078  -48.5018 H         1 UNK         0.0600 
    202 H202        1.5386  -27.7744  -47.7025 H         1 UNK         0.0600 
    203 H203        1.2326  -26.4763  -48.8549 H         1 UNK         0.0600 
    204 H204        1.6687  -28.0820  -49.4277 H         1 UNK         0.0600 
    205 H205       -1.2704  -25.7410  -49.6925 H         1 UNK         0.3000 
    206 H206       -1.5503  -26.5022  -52.4724 H         1 UNK         0.0600 
    207 H207       -0.9069  -24.2112  -51.7718 H         1 UNK         0.0600 
    208 H208       -2.4256  -24.1552  -52.6450 H         1 UNK         0.0600 
    209 H209       -2.4265  -24.0193  -50.8982 H         1 UNK         0.0600 
    210 H210       -3.5278  -27.0816  -49.7981 H         1 UNK         0.3000 
    211 H211       -5.6321  -27.5664  -49.3443 H         1 UNK         0.0600 
    212 H212       -5.9384  -28.2898  -52.3101 H         1 UNK         0.0600 
    213 H213       -6.9743  -28.8261  -50.9940 H         1 UNK         0.0600 
    214 H214       -5.3039  -29.3631  -51.0634 H         1 UNK         0.0600 
    215 H215       -5.0262  -24.9258  -49.7582 H         1 UNK         0.3000 
    216 H216       -5.6754  -22.8629  -49.9964 H         1 UNK         0.0600 
    217 H217       -8.5440  -23.9283  -50.1682 H         1 UNK         0.0600 
    218 H218       -8.1013  -22.2499  -49.9233 H         1 UNK         0.0600 
    219 H219       -7.6887  -23.4468  -48.7042 H         1 UNK         0.0600 
    220 H220       -7.3211  -24.8613  -52.4075 H         1 UNK         0.3000 
    221 H221       -8.0064  -22.9162  -54.2672 H         1 UNK         0.0600 
    222 H222       -7.4180  -25.8926  -54.6930 H         1 UNK         0.0600 
    223 H223       -8.9654  -25.1877  -54.2288 H         1 UNK         0.0600 
    224 H224       -8.2970  -24.8654  -55.8213 H         1 UNK         0.0600 
    225 H225       -4.9557  -24.8733  -54.2300 H         1 UNK         0.3000 
    226 H226       -4.0959  -23.8683  -56.7884 H         1 UNK         0.0600 
    227 H227       -3.3983  -26.0846  -55.8902 H         1 UNK         0.0600 
    228 H228       -2.0167  -25.0859  -56.3135 H         1 UNK         0.0600 
    229 H229       -2.4616  -25.2901  -54.6289 H         1 UNK         0.0600 
    230 H230       -3.8667  -22.5737  -53.5849 H         1 UNK         0.3000 
    231 H231       -1.7997  -20.5598  -54.3278 H         1 UNK         0.0600 
    232 H232       -3.0621  -21.3840  -51.6682 H         1 UNK         0.0600 
    233 H233       -1.4022  -21.6506  -52.1899 H         1 UNK         0.0600 
    234 H234       -1.9585  -20.0225  -51.8485 H         1 UNK         0.0600 
    235 H235       -5.1248  -20.9871  -54.4858 H         1 UNK         0.3000 
    236 H236       -6.9246  -19.7790  -54.7835 H         1 UNK         0.0600 
    237 H237       -5.5782  -18.7205  -56.6058 H         1 UNK         0.0600 
    238 H238       -6.7659  -17.6104  -55.9433 H         1 UNK         0.0600 
    239 H239       -5.0732  -17.4447  -55.4981 H         1 UNK         0.0600 
    240 H240       -6.1290  -20.0689  -52.1369 H         1 UNK         0.3000 
    241 H241       -6.3640  -17.5848  -50.6784 H         1 UNK         0.0600 
    242 H242       -8.1794  -16.7402  -49.4856 H         1 UNK         0.3800 
    243 H243       -9.7848  -17.3672  -49.7226 H         1 UNK         0.3800 
    244 H244       -6.4036  -19.0165  -48.6460 H         1 UNK         0.0800 
    245 H245       -6.5900  -20.4447  -49.6286 H         1 UNK         0.0800 
    246 H246       -3.9827  -18.5416  -47.6445 H         1 UNK         0.0800 
    247 H247       -4.3186  -17.3665  -48.8986 H         1 UNK         0.0800 
@<TRIPOS>BOND
     1    1    2 1    
     2    1  127 1    
     3    1  128 1    
     4    1  129 1    
     5    2    3 2    
     6    2    4 am   BACKBONE|DICT|INTERRES
     7    4    5 1    
     8    4  130 1    
     9    5    6 1    
    10    5   65 1    
    11    5  131 1    
    12    6    7 1    
    13    6  132 1    
    14    6  133 1    
    15    7    8 1    
    16    8    9 1    
    17    8  134 1    
    18    8  135 1    
    19    9   10 ar   
    20    9   14 ar   
    21   10   11 ar   
    22   10  136 1    
    23   11   12 ar   
    24   11  126 1    
    25   12   13 ar   
    26   12  137 1    
    27   13   14 ar   
    28   13   15 1    
    29   14  138 1    
    30   15   16 1    
    31   15  139 1    
    32   15  140 1    
    33   16   17 1    
    34   17   18 1    
    35   17  141 1    
    36   17  142 1    
    37   18   19 1    
    38   18   67 1    
    39   18  143 1    
    40   19   20 am   BACKBONE|DICT|INTERRES
    41   19  144 1    
    42   20   21 2    
    43   20   22 1    
    44   22   23 1    
    45   22   24 1    
    46   22  145 1    
    47   23  146 1    
    48   23  147 1    
    49   23  148 1    
    50   24   25 am   BACKBONE|DICT|INTERRES
    51   24  149 1    
    52   25   26 2    
    53   25   27 1    
    54   27   28 1    
    55   27   29 1    
    56   27  150 1    
    57   28  151 1    
    58   28  152 1    
    59   28  153 1    
    60   29   30 am   BACKBONE|DICT|INTERRES
    61   29  154 1    
    62   30   31 2    
    63   30   32 1    
    64   32   33 1    
    65   32   34 1    
    66   32  155 1    
    67   33  156 1    
    68   33  157 1    
    69   33  158 1    
    70   34   35 am   BACKBONE|DICT|INTERRES
    71   34  159 1    
    72   35   36 2    
    73   35   37 1    
    74   37   38 1    
    75   37   39 1    
    76   37  160 1    
    77   38  161 1    
    78   38  162 1    
    79   38  163 1    
    80   39   40 am   BACKBONE|DICT|INTERRES
    81   39  164 1    
    82   40   41 2    
    83   40   42 1    
    84   42   43 1    
    85   42   44 1    
    86   42  165 1    
    87   43  166 1    
    88   43  167 1    
    89   43  168 1    
    90   44   45 am   BACKBONE|DICT|INTERRES
    91   44  169 1    
    92   45   46 2    
    93   45   47 1    
    94   47   48 1    
    95   47   49 1    
    96   47  170 1    
    97   48  171 1    
    98   48  172 1    
    99   48  173 1    
   100   49   50 am   BACKBONE|DICT|INTERRES
   101   49  174 1    
   102   50   51 2    
   103   50   52 1    
   104   52   53 1    
   105   52   54 1    
   106   52  175 1    
   107   53  176 1    
   108   53  177 1    
   109   53  178 1    
   110   54   55 am   BACKBONE|DICT|INTERRES
   111   54  179 1    
   112   55   56 2    
   113   55   57 1    
   114   57   58 1    
   115   57   59 1    
   116   57  180 1    
   117   58  181 1    
   118   58  182 1    
   119   58  183 1    
   120   59   60 am   BACKBONE|DICT|INTERRES
   121   59  184 1    
   122   60   61 2    
   123   60   62 1    
   124   62   63 1    
   125   62   64 1    
   126   62  185 1    
   127   63  186 1    
   128   63  187 1    
   129   63  188 1    
   130   64   65 am   BACKBONE|DICT|INTERRES
   131   64  189 1    
   132   65   66 2    
   133   67   68 2    
   134   67   69 am   BACKBONE|DICT|INTERRES
   135   69   70 1    
   136   69  190 1    
   137   70   71 1    
   138   70   72 1    
   139   70  191 1    
   140   71  192 1    
   141   71  193 1    
   142   71  194 1    
   143   72   73 2    
   144   72   74 am   BACKBONE|DICT|INTERRES
   145   74   75 1    
   146   74  195 1    
   147   75   76 1    
   148   75   77 1    
   149   75  196 1    
   150   76  197 1    
   151   76  198 1    
   152   76  199 1    
   153   77   78 2    
   154   77   79 am   BACKBONE|DICT|INTERRES
   155   79   80 1    
   156   79  200 1    
   157   80   81 1    
   158   80   82 1    
   159   80  201 1    
   160   81  202 1    
   161   81  203 1    
   162   81  204 1    
   163   82   83 2    
   164   82   84 am   BACKBONE|DICT|INTERRES
   165   84   85 1    
   166   84  205 1    
   167   85   86 1    
   168   85   87 1    
   169   85  206 1    
   170   86  207 1    
   171   86  208 1    
   172   86  209 1    
   173   87   88 2    
   174   87   89 am   BACKBONE|DICT|INTERRES
   175   89   90 1    
   176   89  210 1    
   177   90   91 1    
   178   90   92 1    
   179   90  211 1    
   180   91  212 1    
   181   91  213 1    
   182   91  214 1    
   183   92   93 2    
   184   92   94 am   BACKBONE|DICT|INTERRES
   185   94   95 1    
   186   94  215 1    
   187   95   96 1    
   188   95   97 1    
   189   95  216 1    
   190   96  217 1    
   191   96  218 1    
   192   96  219 1    
   193   97   98 2    
   194   97   99 am   BACKBONE|DICT|INTERRES
   195   99  100 1    
   196   99  220 1    
   197  100  101 1    
   198  100  102 1    
   199  100  221 1    
   200  101  222 1    
   201  101  223 1    
   202  101  224 1    
   203  102  103 2    
   204  102  104 am   BACKBONE|DICT|INTERRES
   205  104  105 1    
   206  104  225 1    
   207  105  106 1    
   208  105  107 1    
   209  105  226 1    
   210  106  227 1    
   211  106  228 1    
   212  106  229 1    
   213  107  108 2    
   214  107  109 am   BACKBONE|DICT|INTERRES
   215  109  110 1    
   216  109  230 1    
   217  110  111 1    
   218  110  112 1    
   219  110  231 1    
   220  111  232 1    
   221  111  233 1    
   222  111  234 1    
   223  112  113 2    
   224  112  114 am   BACKBONE|DICT|INTERRES
   225  114  115 1    
   226  114  235 1    
   227  115  116 1    
   228  115  117 1    
   229  115  236 1    
   230  116  237 1    
   231  116  238 1    
   232  116  239 1    
   233  117  118 2    
   234  117  119 am   BACKBONE|DICT|INTERRES
   235  119  120 1    
   236  119  240 1    
   237  120  121 1    
   238  120  124 1    
   239  120  241 1    
   240  121  122 am   BACKBONE|DICT|INTERRES
   241  121  123 2    
   242  122  242 1    
   243  122  243 1    
   244  124  125 1    
   245  124  244 1    
   246  124  245 1    
   247  125  126 1    
   248  126  246 1    
   249  126  247 1    
@<TRIPOS>SUBSTRUCTURE
     1 UNK         1 GROUP             0       ****    0 ROOT    
