@<TRIPOS>MOLECULE
3R540
247   249    1
SMALL
USER_CHARGES


@<TRIPOS>ATOM
      1 CA         -5.5176  -13.6222  -49.2271 C.3       0 UNK        -0.1800 
      2 C          -4.1850  -13.0818  -48.7284 C.2       0 UNK         0.5000 
      3 O          -4.1337  -11.9862  -48.1704 O.2       0 UNK        -0.5000 
      4 N          -3.1076  -13.8515  -48.9225 N.am      1 UNK        -0.5000 
      5 CA         -1.7258  -13.4958  -48.5672 C.3       1 UNK         0.1400 
      6 C6         -0.6823  -14.3951  -49.2825 C.3       23 UNK        -0.0398 
      7 S7         -0.9474  -14.5933  -51.0789 S.3       23 UNK        -0.2404 
      8 C8         -1.2074  -16.3932  -51.2160 C.3       23 UNK        -0.0205 
      9 C9         -2.6482  -16.7913  -50.9279 C.ar      23 UNK        -0.0193 
     10 C10        -3.5309  -17.0224  -51.9869 C.ar      23 UNK        -0.1150 
     11 C11        -4.8484  -17.4186  -51.7410 C.ar      23 UNK        -0.0193 
     12 C12        -5.2959  -17.5353  -50.4235 C.ar      23 UNK        -0.1150 
     13 C13        -4.4281  -17.2968  -49.3555 C.ar      23 UNK        -0.0193 
     14 C14        -3.0988  -16.9485  -49.6128 C.ar      23 UNK        -0.1150 
     15 C15        -4.9452  -17.3924  -47.9297 C.3       23 UNK        -0.0205 
     16 S16        -5.0057  -19.1104  -47.3383 S.3       23 UNK        -0.2404 
     17 C17        -3.2811  -19.3853  -46.8067 C.3       23 UNK        -0.0398 
     18 CA         -2.7328  -20.7943  -47.1468 C.3       11 UNK         0.1400 
     19 N          -1.3128  -20.8915  -46.8287 N.am      11 UNK        -0.5000 
     20 C          -0.4891  -21.8777  -47.2022 C.2       10 UNK         0.5000 
     21 O          -0.8188  -22.8137  -47.9308 O.2       10 UNK        -0.5000 
     22 CA          0.9412  -21.8139  -46.6311 C.3       10 UNK         0.1400 
     23 CB          1.8172  -20.8657  -47.4619 C.3       10 UNK        -0.1800 
     24 N           0.9698  -21.4102  -45.2221 N.am      10 UNK        -0.5000 
     25 C           0.3902  -22.0986  -44.2272 C.2       9 UNK         0.5000 
     26 O          -0.1881  -23.1730  -44.3884 O.2       9 UNK        -0.5000 
     27 CA          0.4143  -21.4620  -42.8257 C.3       9 UNK         0.1400 
     28 CB          1.7723  -21.6812  -42.1435 C.3       9 UNK        -0.1800 
     29 N           0.0944  -20.0345  -42.8525 N.am      9 UNK        -0.5000 
     30 C          -1.0933  -19.5319  -43.2186 C.2       8 UNK         0.5000 
     31 O          -2.0669  -20.2236  -43.5140 O.2       8 UNK        -0.5000 
     32 CA         -1.1998  -18.0017  -43.3339 C.3       8 UNK         0.1400 
     33 CB         -1.4392  -17.3558  -41.9619 C.3       8 UNK        -0.1800 
     34 N          -0.0217  -17.4091  -43.9650 N.am      8 UNK        -0.5000 
     35 C           0.3609  -17.6418  -45.2284 C.2       7 UNK         0.5000 
     36 O          -0.2880  -18.3213  -46.0217 O.2       7 UNK        -0.5000 
     37 CA          1.7163  -17.0606  -45.6636 C.3       7 UNK         0.1400 
     38 CB          1.5700  -15.6104  -46.1369 C.3       7 UNK        -0.1800 
     39 N           2.7085  -17.1270  -44.5932 N.am      7 UNK        -0.5000 
     40 C           3.2726  -18.2622  -44.1597 C.2       6 UNK         0.5000 
     41 O           3.0398  -19.3697  -44.6436 O.2       6 UNK        -0.5000 
     42 CA          4.2197  -18.1376  -42.9528 C.3       6 UNK         0.1400 
     43 CB          5.6277  -17.7263  -43.4077 C.3       6 UNK        -0.1800 
     44 N           3.7296  -17.1802  -41.9588 N.am      6 UNK        -0.5000 
     45 C           2.6266  -17.3629  -41.2194 C.2       5 UNK         0.5000 
     46 O           1.9293  -18.3754  -41.2753 O.2       5 UNK        -0.5000 
     47 CA          2.2083  -16.2015  -40.2985 C.3       5 UNK         0.1400 
     48 CB          2.9323  -16.2970  -38.9474 C.3       5 UNK        -0.1800 
     49 N           2.4408  -14.8768  -40.8837 N.am      5 UNK        -0.5000 
     50 C           1.8382  -14.4183  -41.9882 C.2       4 UNK         0.5000 
     51 O           1.0588  -15.0881  -42.6703 O.2       4 UNK        -0.5000 
     52 CA          2.2062  -12.9963  -42.4350 C.3       4 UNK         0.1400 
     53 CB          3.3820  -13.0429  -43.4232 C.3       4 UNK        -0.1800 
     54 N           1.0573  -12.3877  -43.0996 N.am      4 UNK        -0.5000 
     55 C           0.2221  -11.4989  -42.5459 C.2       3 UNK         0.5000 
     56 O           0.3884  -11.0002  -41.4321 O.2       3 UNK        -0.5000 
     57 CA         -1.0199  -11.1119  -43.3732 C.3       3 UNK         0.1400 
     58 CB         -0.7294   -9.8770  -44.2395 C.3       3 UNK        -0.1800 
     59 N          -1.4597  -12.2065  -44.2379 N.am      3 UNK        -0.5000 
     60 C          -2.1153  -13.2960  -43.8258 C.2       2 UNK         0.5000 
     61 O          -2.5534  -13.4138  -42.6804 O.2       2 UNK        -0.5000 
     62 CA         -2.2908  -14.4556  -44.8388 C.3       2 UNK         0.1400 
     63 CB         -3.5035  -15.3428  -44.5000 C.3       2 UNK        -0.1800 
     64 N          -2.3813  -14.0956  -46.2607 N.am      2 UNK        -0.5000 
     65 C          -1.4521  -13.5295  -47.0451 C.2       1 UNK         0.5000 
     66 O          -0.3883  -13.0789  -46.6205 O.2       1 UNK        -0.5000 
     67 C          -3.5376  -21.9266  -46.4721 C.2       11 UNK         0.5000 
     68 O          -4.0712  -22.7881  -47.1708 O.2       11 UNK        -0.5000 
     69 N          -3.6380  -21.8899  -45.1381 N.am      12 UNK        -0.5000 
     70 CA         -4.5740  -22.7082  -44.3735 C.3       12 UNK         0.1400 
     71 CB         -4.9176  -21.9941  -43.0553 C.3       12 UNK        -0.1800 
     72 C          -4.0540  -24.1295  -44.1186 C.2       12 UNK         0.5000 
     73 O          -4.6903  -25.0940  -44.5440 O.2       12 UNK        -0.5000 
     74 N          -2.9262  -24.2360  -43.4045 N.am      13 UNK        -0.5000 
     75 CA         -2.3899  -25.5018  -42.8989 C.3       13 UNK         0.1400 
     76 CB         -1.3169  -25.2224  -41.8343 C.3       13 UNK        -0.1800 
     77 C          -1.8437  -26.4131  -44.0100 C.2       13 UNK         0.5000 
     78 O          -2.0951  -27.6186  -43.9869 O.2       13 UNK        -0.5000 
     79 N          -1.1256  -25.8178  -44.9692 N.am      14 UNK        -0.5000 
     80 CA         -0.5415  -26.5149  -46.1161 C.3       14 UNK         0.1400 
     81 CB          0.7601  -25.8076  -46.5124 C.3       14 UNK        -0.1800 
     82 C          -1.5078  -26.6312  -47.3149 C.2       14 UNK         0.5000 
     83 O          -1.1494  -27.2751  -48.3011 O.2       14 UNK        -0.5000 
     84 N          -2.7068  -26.0375  -47.2019 N.am      15 UNK        -0.5000 
     85 CA         -3.8206  -26.0720  -48.1552 C.3       15 UNK         0.1400 
     86 CB         -4.3910  -27.5013  -48.2716 C.3       15 UNK        -0.1800 
     87 C          -3.4599  -25.4525  -49.5214 C.2       15 UNK         0.5000 
     88 O          -3.3876  -26.1589  -50.5293 O.2       15 UNK        -0.5000 
     89 N          -3.2525  -24.1292  -49.5119 N.am      16 UNK        -0.5000 
     90 CA         -2.9441  -23.2589  -50.6524 C.3       16 UNK         0.1400 
     91 CB         -4.1575  -23.1643  -51.6018 C.3       16 UNK        -0.1800 
     92 C          -1.6336  -23.6412  -51.3724 C.2       16 UNK         0.5000 
     93 O          -1.5742  -23.6443  -52.6043 O.2       16 UNK        -0.5000 
     94 N          -0.5989  -23.9577  -50.5840 N.am      17 UNK        -0.5000 
     95 CA          0.7273  -24.3457  -51.0571 C.3       17 UNK         0.1400 
     96 CB          1.5440  -24.8995  -49.8816 C.3       17 UNK        -0.1800 
     97 C           1.4427  -23.1612  -51.7274 C.2       17 UNK         0.5000 
     98 O           1.8122  -22.2075  -51.0402 O.2       17 UNK        -0.5000 
     99 N           1.5918  -23.2402  -53.0580 N.am      18 UNK        -0.5000 
    100 CA         2.1773  -22.2244  -53.9429 C.3       18 UNK         0.1400 
    101 CB         3.6918  -22.0820  -53.6820 C.3       18 UNK        -0.1800 
    102 C          1.4282  -20.8730  -53.8995 C.2       18 UNK         0.5000 
    103 O          2.0481  -19.8178  -54.0434 O.2       18 UNK        -0.5000 
    104 N          0.1038  -20.9319  -53.6937 N.am      19 UNK        -0.5000 
    105 CA        -0.7748  -19.7690  -53.5584 C.3       19 UNK         0.1400 
    106 CB        -2.1512  -20.2398  -53.0744 C.3       19 UNK        -0.1800 
    107 C         -0.9104  -18.9364  -54.8464 C.2       19 UNK         0.5000 
    108 O         -1.0637  -17.7179  -54.7589 O.2       19 UNK        -0.5000 
    109 N         -0.8520  -19.6083  -56.0069 N.am      20 UNK        -0.5000 
    110 CA        -0.8795  -19.0955  -57.3862 C.3       20 UNK         0.1400 
    111 CB         0.3235  -18.1730  -57.6588 C.3       20 UNK        -0.1800 
    112 C         -2.2012  -18.4222  -57.8109 C.2       20 UNK         0.5000 
    113 O         -2.7139  -18.7212  -58.8898 O.2       20 UNK        -0.5000 
    114 N         -2.7396  -17.5445  -56.9578 N.am      21 UNK        -0.5000 
    115 CA        -4.0214  -16.8570  -57.1252 C.3       21 UNK         0.1400 
    116 CB        -4.0433  -15.6328  -56.1960 C.3       21 UNK        -0.1800 
    117 C         -5.2386  -17.7669  -56.8592 C.2       21 UNK         0.5000 
    118 O         -6.3603  -17.3958  -57.2072 O.2       21 UNK        -0.5000 
    119 N         -5.0024  -18.9327  -56.2518 N.am      22 UNK        -0.5000 
    120 CA        -5.9876  -19.9752  -55.9574 C.3       22 UNK         0.1400 
    121 C         -5.3142  -21.3763  -55.9217 C.2       22 UNK         0.5000 
    122 N         -6.0919  -22.4459  -55.8223 N.am      22 UNK        -0.7600 
    123 O         -4.0930  -21.5083  -55.9932 O.2       22 UNK        -0.5000 
    124 C124       -6.8345  -19.6512  -54.6948 C.3       23 UNK        -0.0398 
    125 S125       -5.8627  -19.5461  -53.1514 S.3       23 UNK        -0.2404 
    126 C126       -5.7828  -17.7474  -52.8929 C.3       23 UNK        -0.0205 
    127 H127       -5.3857  -14.4974  -49.8637 H         1 UNK         0.0600 
    128 H128       -6.0392  -12.8608  -49.8070 H         1 UNK         0.0600 
    129 H129       -6.1486  -13.9035  -48.3842 H         1 UNK         0.0600 
    130 H130       -3.2120  -14.7231  -49.4247 H         1 UNK         0.3000 
    131 H131       -1.5585  -12.4679  -48.8956 H         1 UNK         0.0600 
    132 H132        0.3164  -13.9740  -49.1520 H         1 UNK         0.0800 
    133 H133       -0.6419  -15.3806  -48.8184 H         1 UNK         0.0800 
    134 H134       -0.5255  -16.9314  -50.5560 H         1 UNK         0.0800 
    135 H135       -0.9370  -16.6953  -52.2284 H         1 UNK         0.0800 
    136 H136       -3.1821  -16.9219  -53.0051 H         1 UNK         0.1150 
    137 H137       -6.3180  -17.8291  -50.2290 H         1 UNK         0.1150 
    138 H138       -2.4215  -16.7876  -48.7873 H         1 UNK         0.1150 
    139 H139       -4.3383  -16.7863  -47.2574 H         1 UNK         0.0800 
    140 H140       -5.9516  -16.9734  -47.8845 H         1 UNK         0.0800 
    141 H141       -3.2173  -19.1852  -45.7370 H         1 UNK         0.0800 
    142 H142       -2.6477  -18.6375  -47.2831 H         1 UNK         0.0800 
    143 H143       -2.8272  -20.9263  -48.2263 H         1 UNK         0.0600 
    144 H144       -0.9257  -20.1289  -46.2809 H         1 UNK         0.3000 
    145 H145        1.3799  -22.8093  -46.6953 H         1 UNK         0.0600 
    146 H146        2.8432  -20.8513  -47.0942 H         1 UNK         0.0600 
    147 H147        1.8500  -21.1824  -48.5048 H         1 UNK         0.0600 
    148 H148        1.4394  -19.8440  -47.4430 H         1 UNK         0.0600 
    149 H149        1.4781  -20.5599  -45.0001 H         1 UNK         0.3000 
    150 H150       -0.3475  -21.9615  -42.2236 H         1 UNK         0.0600 
    151 H151        2.0143  -22.7434  -42.0894 H         1 UNK         0.0600 
    152 H152        1.7665  -21.2960  -41.1237 H         1 UNK         0.0600 
    153 H153        2.5808  -21.1866  -42.6817 H         1 UNK         0.0600 
    154 H154        0.8278  -19.3955  -42.5612 H         1 UNK         0.3000 
    155 H155       -2.0599  -17.7816  -43.9672 H         1 UNK         0.0600 
    156 H156       -2.3704  -17.7144  -41.5218 H         1 UNK         0.0600 
    157 H157       -1.5117  -16.2708  -42.0408 H         1 UNK         0.0600 
    158 H158       -0.6373  -17.5852  -41.2612 H         1 UNK         0.0600 
    159 H159        0.5326  -16.7756  -43.3958 H         1 UNK         0.3000 
    160 H160        2.0807  -17.6538  -46.5047 H         1 UNK         0.0600 
    161 H161        1.1832  -14.9625  -45.3506 H         1 UNK         0.0600 
    162 H162        0.8827  -15.5518  -46.9794 H         1 UNK         0.0600 
    163 H163        2.5244  -15.2026  -46.4698 H         1 UNK         0.0600 
    164 H164        2.9159  -16.2667  -44.1094 H         1 UNK         0.3000 
    165 H165        4.2863  -19.1193  -42.4786 H         1 UNK         0.0600 
    166 H166        6.3230  -17.7074  -42.5682 H         1 UNK         0.0600 
    167 H167        6.0226  -18.4324  -44.1394 H         1 UNK         0.0600 
    168 H168        5.6315  -16.7381  -43.8695 H         1 UNK         0.0600 
    169 H169        4.2490  -16.3218  -41.8499 H         1 UNK         0.3000 
    170 H170        1.1364  -16.2985  -40.1152 H         1 UNK         0.0600 
    171 H171        2.7595  -17.2674  -38.4798 H         1 UNK         0.0600 
    172 H172        4.0103  -16.1726  -39.0570 H         1 UNK         0.0600 
    173 H173        2.5747  -15.5360  -38.2535 H         1 UNK         0.0600 
    174 H174        3.0801  -14.2730  -40.3869 H         1 UNK         0.3000 
    175 H175        2.5018  -12.4104  -41.5622 H         1 UNK         0.0600 
    176 H176        3.1428  -13.6272  -44.3125 H         1 UNK         0.0600 
    177 H177        3.6589  -12.0401  -43.7492 H         1 UNK         0.0600 
    178 H178        4.2647  -13.4890  -42.9634 H         1 UNK         0.0600 
    179 H179        0.8029  -12.7873  -43.9915 H         1 UNK         0.3000 
    180 H180       -1.8250  -10.8629  -42.6786 H         1 UNK         0.0600 
    181 H181        0.0619  -10.0712  -44.9649 H         1 UNK         0.0600 
    182 H182       -0.4128   -9.0339  -43.6241 H         1 UNK         0.0600 
    183 H183       -1.6176   -9.5636  -44.7883 H         1 UNK         0.0600 
    184 H184       -1.0887  -12.2242  -45.1845 H         1 UNK         0.3000 
    185 H185       -1.3960  -15.0691  -44.7271 H         1 UNK         0.0600 
    186 H186       -3.4743  -15.6913  -43.4673 H         1 UNK         0.0600 
    187 H187       -4.4418  -14.8041  -44.6360 H         1 UNK         0.0600 
    188 H188       -3.5304  -16.2309  -45.1300 H         1 UNK         0.0600 
    189 H189       -3.2376  -14.3693  -46.7181 H         1 UNK         0.3000 
    190 H190       -3.1016  -21.2031  -44.6103 H         1 UNK         0.3000 
    191 H191       -5.5023  -22.7965  -44.9429 H         1 UNK         0.0600 
    192 H192       -5.3764  -21.0235  -43.2445 H         1 UNK         0.0600 
    193 H193       -5.6259  -22.5790  -42.4672 H         1 UNK         0.0600 
    194 H194       -4.0352  -21.8280  -42.4366 H         1 UNK         0.0600 
    195 H195       -2.4223  -23.3959  -43.1601 H         1 UNK         0.3000 
    196 H196       -3.2079  -26.0364  -42.4110 H         1 UNK         0.0600 
    197 H197       -0.9492  -26.1536  -41.4014 H         1 UNK         0.0600 
    198 H198       -1.7176  -24.6216  -41.0177 H         1 UNK         0.0600 
    199 H199       -0.4574  -24.6956  -42.2482 H         1 UNK         0.0600 
    200 H200       -0.9238  -24.8235  -44.8802 H         1 UNK         0.3000 
    201 H201       -0.2801  -27.5315  -45.8150 H         1 UNK         0.0600 
    202 H202        1.3933  -25.6140  -45.6463 H         1 UNK         0.0600 
    203 H203        0.5538  -24.8589  -47.0005 H         1 UNK         0.0600 
    204 H204        1.3375  -26.4188  -47.2060 H         1 UNK         0.0600 
    205 H205       -2.8868  -25.5259  -46.3493 H         1 UNK         0.3000 
    206 H206       -4.6076  -25.4493  -47.7267 H         1 UNK         0.0600 
    207 H207       -4.6930  -27.8838  -47.2966 H         1 UNK         0.0600 
    208 H208       -5.2723  -27.5159  -48.9137 H         1 UNK         0.0600 
    209 H209       -3.6677  -28.1984  -48.6955 H         1 UNK         0.0600 
    210 H210       -3.3539  -23.6507  -48.6187 H         1 UNK         0.3000 
    211 H211       -2.7775  -22.2648  -50.2370 H         1 UNK         0.0600 
    212 H212       -3.9894  -22.4296  -52.3890 H         1 UNK         0.0600 
    213 H213       -5.0545  -22.8568  -51.0644 H         1 UNK         0.0600 
    214 H214       -4.3669  -24.1175  -52.0878 H         1 UNK         0.0600 
    215 H215       -0.7084  -23.8315  -49.5815 H         1 UNK         0.3000 
    216 H216        0.6065  -25.1494  -51.7866 H         1 UNK         0.0600 
    217 H217        2.5482  -25.1812  -50.2005 H         1 UNK         0.0600 
    218 H218        1.0713  -25.7911  -49.4715 H         1 UNK         0.0600 
    219 H219        1.6459  -24.1670  -49.0800 H         1 UNK         0.0600 
    220 H220        1.2151  -24.0527  -53.5268 H         1 UNK         0.3000 
    221 H221        2.0553  -22.6000  -54.9597 H         1 UNK         0.0600 
    222 H222        3.8954  -21.6483  -52.7025 H         1 UNK         0.0600 
    223 H223        4.1931  -23.0486  -53.7316 H         1 UNK         0.0600 
    224 H224        4.1590  -21.4378  -54.4278 H         1 UNK         0.0600 
    225 H225       -0.3238  -21.8401  -53.5644 H         1 UNK         0.3000 
    226 H226       -0.3517  -19.1152  -52.7931 H         1 UNK         0.0600 
    227 H227       -2.0968  -20.6339  -52.0605 H         1 UNK         0.0600 
    228 H228       -2.8678  -19.4211  -53.0632 H         1 UNK         0.0600 
    229 H229       -2.5601  -21.0163  -53.7213 H         1 UNK         0.0600 
    230 H230       -0.7713  -20.6129  -55.9361 H         1 UNK         0.3000 
    231 H231       -0.7634  -19.9737  -58.0233 H         1 UNK         0.0600 
    232 H232        0.2809  -17.2594  -57.0651 H         1 UNK         0.0600 
    233 H233        0.3570  -17.8774  -58.7081 H         1 UNK         0.0600 
    234 H234        1.2638  -18.6755  -57.4320 H         1 UNK         0.0600 
    235 H235       -2.2320  -17.3739  -56.0917 H         1 UNK         0.3000 
    236 H236       -4.0960  -16.5063  -58.1565 H         1 UNK         0.0600 
    237 H237       -4.9848  -15.0889  -56.2825 H         1 UNK         0.0600 
    238 H238       -3.9215  -15.9179  -55.1510 H         1 UNK         0.0600 
    239 H239       -3.2429  -14.9363  -56.4461 H         1 UNK         0.0600 
    240 H240       -4.0491  -19.1925  -56.0397 H         1 UNK         0.3000 
    241 H241       -6.6675  -20.0147  -56.8105 H         1 UNK         0.0600 
    242 H242       -5.6614  -23.3570  -55.8007 H         1 UNK         0.3800 
    243 H243       -7.0961  -22.3739  -55.7737 H         1 UNK         0.3800 
    244 H244       -7.6068  -20.4082  -54.5540 H         1 UNK         0.0800 
    245 H245       -7.3760  -18.7164  -54.8444 H         1 UNK         0.0800 
    246 H246       -6.7821  -17.3621  -52.6852 H         1 UNK         0.0800 
    247 H247       -5.4439  -17.2602  -53.8072 H         1 UNK         0.0800 
@<TRIPOS>BOND
     1    1    2 1    
     2    1  127 1    
     3    1  128 1    
     4    1  129 1    
     5    2    3 2    
     6    2    4 am   BACKBONE|DICT|INTERRES
     7    4    5 1    
     8    4  130 1    
     9    5    6 1    
    10    5   65 1    
    11    5  131 1    
    12    6    7 1    
    13    6  132 1    
    14    6  133 1    
    15    7    8 1    
    16    8    9 1    
    17    8  134 1    
    18    8  135 1    
    19    9   10 ar   
    20    9   14 ar   
    21   10   11 ar   
    22   10  136 1    
    23   11   12 ar   
    24   11  126 1    
    25   12   13 ar   
    26   12  137 1    
    27   13   14 ar   
    28   13   15 1    
    29   14  138 1    
    30   15   16 1    
    31   15  139 1    
    32   15  140 1    
    33   16   17 1    
    34   17   18 1    
    35   17  141 1    
    36   17  142 1    
    37   18   19 1    
    38   18   67 1    
    39   18  143 1    
    40   19   20 am   BACKBONE|DICT|INTERRES
    41   19  144 1    
    42   20   21 2    
    43   20   22 1    
    44   22   23 1    
    45   22   24 1    
    46   22  145 1    
    47   23  146 1    
    48   23  147 1    
    49   23  148 1    
    50   24   25 am   BACKBONE|DICT|INTERRES
    51   24  149 1    
    52   25   26 2    
    53   25   27 1    
    54   27   28 1    
    55   27   29 1    
    56   27  150 1    
    57   28  151 1    
    58   28  152 1    
    59   28  153 1    
    60   29   30 am   BACKBONE|DICT|INTERRES
    61   29  154 1    
    62   30   31 2    
    63   30   32 1    
    64   32   33 1    
    65   32   34 1    
    66   32  155 1    
    67   33  156 1    
    68   33  157 1    
    69   33  158 1    
    70   34   35 am   BACKBONE|DICT|INTERRES
    71   34  159 1    
    72   35   36 2    
    73   35   37 1    
    74   37   38 1    
    75   37   39 1    
    76   37  160 1    
    77   38  161 1    
    78   38  162 1    
    79   38  163 1    
    80   39   40 am   BACKBONE|DICT|INTERRES
    81   39  164 1    
    82   40   41 2    
    83   40   42 1    
    84   42   43 1    
    85   42   44 1    
    86   42  165 1    
    87   43  166 1    
    88   43  167 1    
    89   43  168 1    
    90   44   45 am   BACKBONE|DICT|INTERRES
    91   44  169 1    
    92   45   46 2    
    93   45   47 1    
    94   47   48 1    
    95   47   49 1    
    96   47  170 1    
    97   48  171 1    
    98   48  172 1    
    99   48  173 1    
   100   49   50 am   BACKBONE|DICT|INTERRES
   101   49  174 1    
   102   50   51 2    
   103   50   52 1    
   104   52   53 1    
   105   52   54 1    
   106   52  175 1    
   107   53  176 1    
   108   53  177 1    
   109   53  178 1    
   110   54   55 am   BACKBONE|DICT|INTERRES
   111   54  179 1    
   112   55   56 2    
   113   55   57 1    
   114   57   58 1    
   115   57   59 1    
   116   57  180 1    
   117   58  181 1    
   118   58  182 1    
   119   58  183 1    
   120   59   60 am   BACKBONE|DICT|INTERRES
   121   59  184 1    
   122   60   61 2    
   123   60   62 1    
   124   62   63 1    
   125   62   64 1    
   126   62  185 1    
   127   63  186 1    
   128   63  187 1    
   129   63  188 1    
   130   64   65 am   BACKBONE|DICT|INTERRES
   131   64  189 1    
   132   65   66 2    
   133   67   68 2    
   134   67   69 am   BACKBONE|DICT|INTERRES
   135   69   70 1    
   136   69  190 1    
   137   70   71 1    
   138   70   72 1    
   139   70  191 1    
   140   71  192 1    
   141   71  193 1    
   142   71  194 1    
   143   72   73 2    
   144   72   74 am   BACKBONE|DICT|INTERRES
   145   74   75 1    
   146   74  195 1    
   147   75   76 1    
   148   75   77 1    
   149   75  196 1    
   150   76  197 1    
   151   76  198 1    
   152   76  199 1    
   153   77   78 2    
   154   77   79 am   BACKBONE|DICT|INTERRES
   155   79   80 1    
   156   79  200 1    
   157   80   81 1    
   158   80   82 1    
   159   80  201 1    
   160   81  202 1    
   161   81  203 1    
   162   81  204 1    
   163   82   83 2    
   164   82   84 am   BACKBONE|DICT|INTERRES
   165   84   85 1    
   166   84  205 1    
   167   85   86 1    
   168   85   87 1    
   169   85  206 1    
   170   86  207 1    
   171   86  208 1    
   172   86  209 1    
   173   87   88 2    
   174   87   89 am   BACKBONE|DICT|INTERRES
   175   89   90 1    
   176   89  210 1    
   177   90   91 1    
   178   90   92 1    
   179   90  211 1    
   180   91  212 1    
   181   91  213 1    
   182   91  214 1    
   183   92   93 2    
   184   92   94 am   BACKBONE|DICT|INTERRES
   185   94   95 1    
   186   94  215 1    
   187   95   96 1    
   188   95   97 1    
   189   95  216 1    
   190   96  217 1    
   191   96  218 1    
   192   96  219 1    
   193   97   98 2    
   194   97   99 am   BACKBONE|DICT|INTERRES
   195   99  100 1    
   196   99  220 1    
   197  100  101 1    
   198  100  102 1    
   199  100  221 1    
   200  101  222 1    
   201  101  223 1    
   202  101  224 1    
   203  102  103 2    
   204  102  104 am   BACKBONE|DICT|INTERRES
   205  104  105 1    
   206  104  225 1    
   207  105  106 1    
   208  105  107 1    
   209  105  226 1    
   210  106  227 1    
   211  106  228 1    
   212  106  229 1    
   213  107  108 2    
   214  107  109 am   BACKBONE|DICT|INTERRES
   215  109  110 1    
   216  109  230 1    
   217  110  111 1    
   218  110  112 1    
   219  110  231 1    
   220  111  232 1    
   221  111  233 1    
   222  111  234 1    
   223  112  113 2    
   224  112  114 am   BACKBONE|DICT|INTERRES
   225  114  115 1    
   226  114  235 1    
   227  115  116 1    
   228  115  117 1    
   229  115  236 1    
   230  116  237 1    
   231  116  238 1    
   232  116  239 1    
   233  117  118 2    
   234  117  119 am   BACKBONE|DICT|INTERRES
   235  119  120 1    
   236  119  240 1    
   237  120  121 1    
   238  120  124 1    
   239  120  241 1    
   240  121  122 am   BACKBONE|DICT|INTERRES
   241  121  123 2    
   242  122  242 1    
   243  122  243 1    
   244  124  125 1    
   245  124  244 1    
   246  124  245 1    
   247  125  126 1    
   248  126  246 1    
   249  126  247 1    
@<TRIPOS>SUBSTRUCTURE
     1 UNK         1 GROUP             0       ****    0 ROOT    
