@<TRIPOS>MOLECULE
3R540
247   249    1
SMALL
USER_CHARGES


@<TRIPOS>ATOM
      1 CA          2.4330   -9.9674  -48.1633 C.3       0 UNK        -0.1800 
      2 C           3.4374  -11.0435  -48.5502 C.2       0 UNK         0.5000 
      3 O           4.6435  -10.8001  -48.5078 O.2       0 UNK        -0.5000 
      4 N           2.9454  -12.2299  -48.9294 N.am      1 UNK        -0.5000 
      5 CA          3.7580  -13.3888  -49.3232 C.3       1 UNK         0.1400 
      6 C6          2.9103  -14.4796  -50.0170 C.3       23 UNK        -0.0398 
      7 S7          2.1017  -13.9389  -51.5615 S.3       23 UNK        -0.2404 
      8 C8          1.7415  -15.5471  -52.3504 C.3       23 UNK        -0.0205 
      9 C9          0.6678  -16.3229  -51.5983 C.ar      23 UNK        -0.0193 
     10 C10        -0.6702  -16.2643  -52.0039 C.ar      23 UNK        -0.1150 
     11 C11        -1.6599  -16.9382  -51.2801 C.ar      23 UNK        -0.0193 
     12 C12        -1.3045  -17.6660  -50.1411 C.ar      23 UNK        -0.1150 
     13 C13         0.0279  -17.7289  -49.7260 C.ar      23 UNK        -0.0193 
     14 C14         1.0104  -17.0805  -50.4746 C.ar      23 UNK        -0.1150 
     15 C15         0.3909  -18.4093  -48.4180 C.3       23 UNK        -0.0205 
     16 S16         1.5074  -19.8321  -48.6196 S.3       23 UNK        -0.2404 
     17 C17         1.6263  -20.3654  -46.8679 C.3       23 UNK        -0.0398 
     18 CA          0.8078  -21.6145  -46.4177 C.3       11 UNK         0.1400 
     19 N           0.4904  -21.5604  -44.9866 N.am      11 UNK        -0.5000 
     20 C          -0.0555  -22.5552  -44.2716 C.2       10 UNK         0.5000 
     21 O          -0.3024  -23.6729  -44.7245 O.2       10 UNK        -0.5000 
     22 CA         -0.4438  -22.2274  -42.8183 C.3       10 UNK         0.1400 
     23 CB          0.7860  -22.2587  -41.8989 C.3       10 UNK        -0.1800 
     24 N          -1.1223  -20.9356  -42.6963 N.am      10 UNK        -0.5000 
     25 C          -2.3003  -20.6435  -43.2674 C.2       9 UNK         0.5000 
     26 O          -2.9621  -21.4491  -43.9216 O.2       9 UNK        -0.5000 
     27 CA         -2.8036  -19.1961  -43.1278 C.3       9 UNK         0.1400 
     28 CB         -3.4570  -18.9739  -41.7558 C.3       9 UNK        -0.1800 
     29 N          -1.7486  -18.2047  -43.3421 N.am      9 UNK        -0.5000 
     30 C          -1.0695  -18.0532  -44.4878 C.2       8 UNK         0.5000 
     31 O          -1.2797  -18.7216  -45.4979 O.2       8 UNK        -0.5000 
     32 CA          0.0730  -17.0220  -44.4924 C.3       8 UNK         0.1400 
     33 CB         -0.4821  -15.5948  -44.6164 C.3       8 UNK        -0.1800 
     34 N           0.9256  -17.1333  -43.3083 N.am      8 UNK        -0.5000 
     35 C           1.6414  -18.2220  -42.9871 C.2       7 UNK         0.5000 
     36 O           1.7110  -19.2294  -43.6911 O.2       7 UNK        -0.5000 
     37 CA          2.3475  -18.2086  -41.6209 C.3       7 UNK         0.1400 
     38 CB          3.6904  -17.4654  -41.6876 C.3       7 UNK        -0.1800 
     39 N           1.5052  -17.6182  -40.5820 N.am      7 UNK        -0.5000 
     40 C           0.3891  -18.1857  -40.1024 C.2       6 UNK         0.5000 
     41 O          -0.0217  -19.2924  -40.4520 O.2       6 UNK        -0.5000 
     42 CA         -0.4258  -17.3515  -39.0975 C.3       6 UNK         0.1400 
     43 CB          0.1516  -17.4912  -37.6811 C.3       6 UNK        -0.1800 
     44 N          -0.4768  -15.9349  -39.4647 N.am      6 UNK        -0.5000 
     45 C          -1.1061  -15.4588  -40.5487 C.2       5 UNK         0.5000 
     46 O          -1.7529  -16.1610  -41.3235 O.2       5 UNK        -0.5000 
     47 CA         -0.9479  -13.9557  -40.8425 C.3       5 UNK         0.1400 
     48 CB         -2.0410  -13.1485  -40.1271 C.3       5 UNK        -0.1800 
     49 N           0.3681  -13.4317  -40.4683 N.am      5 UNK        -0.5000 
     50 C           1.5246  -13.8070  -41.0292 C.2       4 UNK         0.5000 
     51 O           1.6145  -14.6486  -41.9272 O.2       4 UNK        -0.5000 
     52 CA          2.7927  -13.1767  -40.4449 C.3       4 UNK         0.1400 
     53 CB          3.2387  -13.9319  -39.1802 C.3       4 UNK        -0.1800 
     54 N           3.8607  -13.2192  -41.4377 N.am      4 UNK        -0.5000 
     55 C           4.8542  -12.3283  -41.5332 C.2       3 UNK         0.5000 
     56 O           4.9681  -11.3583  -40.7819 O.2       3 UNK        -0.5000 
     57 CA          5.9174  -12.5505  -42.6282 C.3       3 UNK         0.1400 
     58 CB          7.2432  -13.0066  -41.9974 C.3       3 UNK        -0.1800 
     59 N           5.5372  -13.5205  -43.6583 N.am      3 UNK        -0.5000 
     60 C           4.6734  -13.2835  -44.6521 C.2       2 UNK         0.5000 
     61 O           4.0292  -12.2380  -44.7711 O.2       2 UNK        -0.5000 
     62 CA          4.5039  -14.4182  -45.6731 C.3       2 UNK         0.1400 
     63 CB          3.5488  -15.4958  -45.1357 C.3       2 UNK        -0.1800 
     64 N           3.9603  -13.8827  -46.9183 N.am      2 UNK        -0.5000 
     65 C           4.5098  -14.0235  -48.1310 C.2       1 UNK         0.5000 
     66 O           5.5533  -14.6438  -48.3415 O.2       1 UNK        -0.5000 
     67 C          -0.4596  -21.8932  -47.2547 C.2       11 UNK         0.5000 
     68 O          -0.4554  -22.8220  -48.0620 O.2       11 UNK        -0.5000 
     69 N          -1.5269  -21.1162  -47.0203 N.am      12 UNK        -0.5000 
     70 CA         -2.8041  -21.2320  -47.7227 C.3       12 UNK         0.1400 
     71 CB         -3.7301  -20.0794  -47.3094 C.3       12 UNK        -0.1800 
     72 C          -3.4875  -22.5920  -47.5038 C.2       12 UNK         0.5000 
     73 O          -4.0285  -23.1511  -48.4575 O.2       12 UNK        -0.5000 
     74 N          -3.4179  -23.1154  -46.2723 N.am      13 UNK        -0.5000 
     75 CA         -3.9018  -24.4459  -45.9104 C.3       13 UNK         0.1400 
     76 CB         -3.8795  -24.6076  -44.3828 C.3       13 UNK        -0.1800 
     77 C          -3.1009  -25.5679  -46.5946 C.2       13 UNK         0.5000 
     78 O          -3.7044  -26.4743  -47.1692 O.2       13 UNK        -0.5000 
     79 N          -1.7637  -25.4750  -46.5485 N.am      14 UNK        -0.5000 
     80 CA         -0.8414  -26.4402  -47.1525 C.3       14 UNK         0.1400 
     81 CB          0.5935  -26.1323  -46.6982 C.3       14 UNK        -0.1800 
     82 C          -0.9257  -26.4800  -48.6893 C.2       14 UNK         0.5000 
     83 O          -0.8947  -27.5636  -49.2736 O.2       14 UNK        -0.5000 
     84 N          -1.0526  -25.3017  -49.3121 N.am      15 UNK        -0.5000 
     85 CA         -1.1896  -25.1290  -50.7587 C.3       15 UNK         0.1400 
     86 CB         -0.7264  -23.7099  -51.1257 C.3       15 UNK        -0.1800 
     87 C          -2.6218  -25.3792  -51.2734 C.2       15 UNK         0.5000 
     88 O          -2.8263  -25.3728  -52.4883 O.2       15 UNK        -0.5000 
     89 N          -3.5881  -25.5511  -50.3580 N.am      16 UNK        -0.5000 
     90 CA         -5.0239  -25.7325  -50.5982 C.3       16 UNK         0.1400 
     91 CB         -5.2927  -27.1060  -51.2473 C.3       16 UNK        -0.1800 
     92 C          -5.6276  -24.5570  -51.3943 C.2       16 UNK         0.5000 
     93 O          -6.2660  -24.7682  -52.4256 O.2       16 UNK        -0.5000 
     94 N          -5.3548  -23.3340  -50.9147 N.am      17 UNK        -0.5000 
     95 CA         -5.6734  -22.0421  -51.5357 C.3       17 UNK         0.1400 
     96 CB         -7.2006  -21.8280  -51.6114 C.3       17 UNK        -0.1800 
     97 C          -4.9697  -21.8500  -52.8968 C.2       17 UNK         0.5000 
     98 O          -5.5449  -21.2527  -53.8088 O.2       17 UNK        -0.5000 
     99 N          -3.7392  -22.3796  -53.0035 N.am      18 UNK        -0.5000 
    100 CA        -2.9133  -22.4717  -54.2141 C.3       18 UNK         0.1400 
    101 CB        -2.3993  -21.0810  -54.6322 C.3       18 UNK        -0.1800 
    102 C         -3.6607  -23.2184  -55.3347 C.2       18 UNK         0.5000 
    103 O         -3.8369  -22.6882  -56.4346 O.2       18 UNK        -0.5000 
    104 N         -4.1875  -24.3986  -54.9760 N.am      19 UNK        -0.5000 
    105 CA        -5.1526  -25.2483  -55.6891 C.3       19 UNK         0.1400 
    106 CB        -4.5773  -25.7525  -57.0258 C.3       19 UNK        -0.1800 
    107 C         -6.5425  -24.6019  -55.8864 C.2       19 UNK         0.5000 
    108 O         -7.5569  -25.2711  -55.6859 O.2       19 UNK        -0.5000 
    109 N         -6.5554  -23.3207  -56.2632 N.am      20 UNK        -0.5000 
    110 CA        -7.7097  -22.4421  -56.4335 C.3       20 UNK         0.1400 
    111 CB        -8.5867  -22.9182  -57.6098 C.3       20 UNK        -0.1800 
    112 C         -7.2917  -20.9732  -56.6526 C.2       20 UNK         0.5000 
    113 O         -8.1529  -20.0963  -56.5621 O.2       20 UNK        -0.5000 
    114 N         -6.0099  -20.7074  -56.9611 N.am      21 UNK        -0.5000 
    115 CA        -5.5053  -19.3985  -57.3865 C.3       21 UNK         0.1400 
    116 CB        -4.0597  -19.5478  -57.8850 C.3       21 UNK        -0.1800 
    117 C         -5.6174  -18.2692  -56.3424 C.2       21 UNK         0.5000 
    118 O         -5.6596  -17.1036  -56.7402 O.2       21 UNK        -0.5000 
    119 N         -5.6948  -18.6083  -55.0483 N.am      22 UNK        -0.5000 
    120 CA        -6.0028  -17.6465  -53.9741 C.3       22 UNK         0.1400 
    121 C         -7.5121  -17.2648  -53.8818 C.2       22 UNK         0.5000 
    122 N         -8.4207  -17.8995  -54.6144 N.am      22 UNK        -0.7600 
    123 O         -7.8684  -16.3598  -53.1320 O.2       22 UNK        -0.5000 
    124 C124       -5.4715  -18.1026  -52.5915 C.3       23 UNK        -0.0398 
    125 S125       -3.6644  -18.3548  -52.5493 S.3       23 UNK        -0.2404 
    126 C126       -3.1215  -16.8481  -51.6888 C.3       23 UNK        -0.0205 
    127 H127        2.5838   -9.6711  -47.1252 H         1 UNK         0.0600 
    128 H128        1.4049  -10.3138  -48.2723 H         1 UNK         0.0600 
    129 H129        2.5636   -9.0875  -48.7932 H         1 UNK         0.0600 
    130 H130        1.9449  -12.3618  -48.9744 H         1 UNK         0.3000 
    131 H131        4.5130  -13.0439  -50.0331 H         1 UNK         0.0600 
    132 H132        3.5407  -15.3379  -50.2578 H         1 UNK         0.0800 
    133 H133        2.1382  -14.8383  -49.3342 H         1 UNK         0.0800 
    134 H134        2.6552  -16.1395  -52.4183 H         1 UNK         0.0800 
    135 H135        1.4206  -15.3688  -53.3778 H         1 UNK         0.0800 
    136 H136       -0.9431  -15.6804  -52.8718 H         1 UNK         0.1150 
    137 H137       -2.0733  -18.1618  -49.5651 H         1 UNK         0.1150 
    138 H138        2.0396  -17.1366  -50.1517 H         1 UNK         0.1150 
    139 H139        0.8585  -17.6737  -47.7626 H         1 UNK         0.0800 
    140 H140       -0.5159  -18.7405  -47.9156 H         1 UNK         0.0800 
    141 H141        1.3473  -19.5090  -46.2548 H         1 UNK         0.0800 
    142 H142        2.6800  -20.5328  -46.6422 H         1 UNK         0.0800 
    143 H143        1.4541  -22.4832  -46.5604 H         1 UNK         0.0600 
    144 H144        0.6915  -20.6834  -44.5148 H         1 UNK         0.3000 
    145 H145       -1.1383  -22.9992  -42.4799 H         1 UNK         0.0600 
    146 H146        0.5026  -22.1039  -40.8577 H         1 UNK         0.0600 
    147 H147        1.2933  -23.2223  -41.9586 H         1 UNK         0.0600 
    148 H148        1.5102  -21.4888  -42.1652 H         1 UNK         0.0600 
    149 H149       -0.6604  -20.2279  -42.1342 H         1 UNK         0.3000 
    150 H150       -3.5650  -19.0369  -43.8938 H         1 UNK         0.0600 
    151 H151       -4.2559  -19.6959  -41.5819 H         1 UNK         0.0600 
    152 H152       -3.8972  -17.9791  -41.6863 H         1 UNK         0.0600 
    153 H153       -2.7369  -19.0779  -40.9441 H         1 UNK         0.0600 
    154 H154       -1.5533  -17.5752  -42.5681 H         1 UNK         0.3000 
    155 H155        0.6997  -17.2168  -45.3641 H         1 UNK         0.0600 
    156 H156       -1.1707  -15.3564  -43.8069 H         1 UNK         0.0600 
    157 H157       -1.0280  -15.4737  -45.5528 H         1 UNK         0.0600 
    158 H158        0.3120  -14.8496  -44.6048 H         1 UNK         0.0600 
    159 H159        0.9699  -16.3237  -42.6970 H         1 UNK         0.3000 
    160 H160        2.5515  -19.2453  -41.3446 H         1 UNK         0.0600 
    161 H161        3.5614  -16.4080  -41.9142 H         1 UNK         0.0600 
    162 H162        4.3332  -17.8915  -42.4589 H         1 UNK         0.0600 
    163 H163        4.2267  -17.5392  -40.7416 H         1 UNK         0.0600 
    164 H164        1.7444  -16.6872  -40.2775 H         1 UNK         0.3000 
    165 H165       -1.4465  -17.7399  -39.0909 H         1 UNK         0.0600 
    166 H166       -0.4629  -16.9635  -36.9515 H         1 UNK         0.0600 
    167 H167        0.1881  -18.5382  -37.3769 H         1 UNK         0.0600 
    168 H168        1.1656  -17.0946  -37.6161 H         1 UNK         0.0600 
    169 H169        0.0246  -15.2885  -38.8742 H         1 UNK         0.3000 
    170 H170       -1.0700  -13.8144  -41.9182 H         1 UNK         0.0600 
    171 H171       -3.0339  -13.5049  -40.4051 H         1 UNK         0.0600 
    172 H172       -1.9561  -13.2262  -39.0424 H         1 UNK         0.0600 
    173 H173       -1.9903  -12.0927  -40.3938 H         1 UNK         0.0600 
    174 H174        0.3821  -12.7415  -39.7311 H         1 UNK         0.3000 
    175 H175        2.5667  -12.1389  -40.1908 H         1 UNK         0.0600 
    176 H176        3.4805  -14.9730  -39.3981 H         1 UNK         0.0600 
    177 H177        4.1221  -13.4711  -38.7377 H         1 UNK         0.0600 
    178 H178        2.4575  -13.9261  -38.4193 H         1 UNK         0.0600 
    179 H179        3.7780  -13.9555  -42.1255 H         1 UNK         0.3000 
    180 H180        6.0871  -11.5861  -43.1117 H         1 UNK         0.0600 
    181 H181        7.1414  -13.9733  -41.5027 H         1 UNK         0.0600 
    182 H182        7.5894  -12.2910  -41.2503 H         1 UNK         0.0600 
    183 H183        8.0291  -13.0932  -42.7481 H         1 UNK         0.0600 
    184 H184        6.0133  -14.4106  -43.6256 H         1 UNK         0.3000 
    185 H185        5.4835  -14.8690  -45.8449 H         1 UNK         0.0600 
    186 H186        3.9714  -15.9909  -44.2623 H         1 UNK         0.0600 
    187 H187        2.5913  -15.0695  -44.8392 H         1 UNK         0.0600 
    188 H188        3.3569  -16.2671  -45.8820 H         1 UNK         0.0600 
    189 H189        3.1566  -13.2784  -46.8172 H         1 UNK         0.3000 
    190 H190       -1.4471  -20.3588  -46.3450 H         1 UNK         0.3000 
    191 H191       -2.5998  -21.1349  -48.7911 H         1 UNK         0.0600 
    192 H192       -3.9498  -20.1045  -46.2417 H         1 UNK         0.0600 
    193 H193       -4.6797  -20.1297  -47.8437 H         1 UNK         0.0600 
    194 H194       -3.2806  -19.1122  -47.5342 H         1 UNK         0.0600 
    195 H195       -3.0027  -22.5626  -45.5275 H         1 UNK         0.3000 
    196 H196       -4.9388  -24.5268  -46.2430 H         1 UNK         0.0600 
    197 H197       -4.2416  -25.5933  -44.0881 H         1 UNK         0.0600 
    198 H198       -4.5190  -23.8682  -43.9004 H         1 UNK         0.0600 
    199 H199       -2.8735  -24.4913  -43.9786 H         1 UNK         0.0600 
    200 H200       -1.3399  -24.7045  -46.0389 H         1 UNK         0.3000 
    201 H201       -1.1078  -27.4320  -46.7816 H         1 UNK         0.0600 
    202 H202        0.6851  -26.1968  -45.6138 H         1 UNK         0.0600 
    203 H203        0.9047  -25.1316  -47.0004 H         1 UNK         0.0600 
    204 H204        1.3018  -26.8420  -47.1273 H         1 UNK         0.0600 
    205 H205       -1.0068  -24.4473  -48.7593 H         1 UNK         0.3000 
    206 H206       -0.5318  -25.8411  -51.2611 H         1 UNK         0.0600 
    207 H207        0.2726  -23.5088  -50.7380 H         1 UNK         0.0600 
    208 H208       -0.6788  -23.5794  -52.2058 H         1 UNK         0.0600 
    209 H209       -1.3977  -22.9491  -50.7246 H         1 UNK         0.0600 
    210 H210       -3.3178  -25.5050  -49.3845 H         1 UNK         0.3000 
    211 H211       -5.5055  -25.7261  -49.6192 H         1 UNK         0.0600 
    212 H212       -4.8623  -27.1755  -52.2468 H         1 UNK         0.0600 
    213 H213       -6.3636  -27.2906  -51.3391 H         1 UNK         0.0600 
    214 H214       -4.8745  -27.9129  -50.6455 H         1 UNK         0.0600 
    215 H215       -4.8303  -23.2817  -50.0409 H         1 UNK         0.3000 
    216 H216       -5.2652  -21.2770  -50.8738 H         1 UNK         0.0600 
    217 H217       -7.6676  -21.9748  -50.6377 H         1 UNK         0.0600 
    218 H218       -7.6718  -22.5130  -52.3169 H         1 UNK         0.0600 
    219 H219       -7.4436  -20.8165  -51.9366 H         1 UNK         0.0600 
    220 H220       -3.3877  -22.8828  -52.2031 H         1 UNK         0.3000 
    221 H221       -2.0457  -23.0841  -53.9716 H         1 UNK         0.0600 
    222 H222       -3.2179  -20.3975  -54.8545 H         1 UNK         0.0600 
    223 H223       -1.8004  -20.6319  -53.8400 H         1 UNK         0.0600 
    224 H224       -1.7693  -21.1445  -55.5199 H         1 UNK         0.0600 
    225 H225       -3.9731  -24.7172  -54.0354 H         1 UNK         0.3000 
    226 H226       -5.3024  -26.1171  -55.0461 H         1 UNK         0.0600 
    227 H227       -3.6248  -26.2610  -56.8775 H         1 UNK         0.0600 
    228 H228       -5.2571  -26.4646  -57.4953 H         1 UNK         0.0600 
    229 H229       -4.4179  -24.9407  -57.7358 H         1 UNK         0.0600 
    230 H230       -5.6423  -22.8899  -56.3622 H         1 UNK         0.3000 
    231 H231       -8.2961  -22.4749  -55.5134 H         1 UNK         0.0600 
    232 H232       -9.0156  -23.9023  -57.4234 H         1 UNK         0.0600 
    233 H233       -8.0144  -22.9718  -58.5366 H         1 UNK         0.0600 
    234 H234       -9.4219  -22.2373  -57.7788 H         1 UNK         0.0600 
    235 H235       -5.3230  -21.4502  -56.9723 H         1 UNK         0.3000 
    236 H236       -6.1134  -19.0899  -58.2393 H         1 UNK         0.0600 
    237 H237       -3.6728  -18.5976  -58.2553 H         1 UNK         0.0600 
    238 H238       -3.3919  -19.8865  -57.0950 H         1 UNK         0.0600 
    239 H239       -3.9971  -20.2643  -58.7041 H         1 UNK         0.0600 
    240 H240       -5.6506  -19.5880  -54.7788 H         1 UNK         0.3000 
    241 H241       -5.4861  -16.7140  -54.2089 H         1 UNK         0.0600 
    242 H242       -9.3881  -17.6284  -54.5395 H         1 UNK         0.3800 
    243 H243       -8.1626  -18.6443  -55.2549 H         1 UNK         0.3800 
    244 H244       -5.7405  -17.3789  -51.8204 H         1 UNK         0.0800 
    245 H245       -5.9520  -19.0334  -52.2954 H         1 UNK         0.0800 
    246 H246       -3.7298  -16.6930  -50.7965 H         1 UNK         0.0800 
    247 H247       -3.2902  -15.9841  -52.3335 H         1 UNK         0.0800 
@<TRIPOS>BOND
     1    1    2 1    
     2    1  127 1    
     3    1  128 1    
     4    1  129 1    
     5    2    3 2    
     6    2    4 am   BACKBONE|DICT|INTERRES
     7    4    5 1    
     8    4  130 1    
     9    5    6 1    
    10    5   65 1    
    11    5  131 1    
    12    6    7 1    
    13    6  132 1    
    14    6  133 1    
    15    7    8 1    
    16    8    9 1    
    17    8  134 1    
    18    8  135 1    
    19    9   10 ar   
    20    9   14 ar   
    21   10   11 ar   
    22   10  136 1    
    23   11   12 ar   
    24   11  126 1    
    25   12   13 ar   
    26   12  137 1    
    27   13   14 ar   
    28   13   15 1    
    29   14  138 1    
    30   15   16 1    
    31   15  139 1    
    32   15  140 1    
    33   16   17 1    
    34   17   18 1    
    35   17  141 1    
    36   17  142 1    
    37   18   19 1    
    38   18   67 1    
    39   18  143 1    
    40   19   20 am   BACKBONE|DICT|INTERRES
    41   19  144 1    
    42   20   21 2    
    43   20   22 1    
    44   22   23 1    
    45   22   24 1    
    46   22  145 1    
    47   23  146 1    
    48   23  147 1    
    49   23  148 1    
    50   24   25 am   BACKBONE|DICT|INTERRES
    51   24  149 1    
    52   25   26 2    
    53   25   27 1    
    54   27   28 1    
    55   27   29 1    
    56   27  150 1    
    57   28  151 1    
    58   28  152 1    
    59   28  153 1    
    60   29   30 am   BACKBONE|DICT|INTERRES
    61   29  154 1    
    62   30   31 2    
    63   30   32 1    
    64   32   33 1    
    65   32   34 1    
    66   32  155 1    
    67   33  156 1    
    68   33  157 1    
    69   33  158 1    
    70   34   35 am   BACKBONE|DICT|INTERRES
    71   34  159 1    
    72   35   36 2    
    73   35   37 1    
    74   37   38 1    
    75   37   39 1    
    76   37  160 1    
    77   38  161 1    
    78   38  162 1    
    79   38  163 1    
    80   39   40 am   BACKBONE|DICT|INTERRES
    81   39  164 1    
    82   40   41 2    
    83   40   42 1    
    84   42   43 1    
    85   42   44 1    
    86   42  165 1    
    87   43  166 1    
    88   43  167 1    
    89   43  168 1    
    90   44   45 am   BACKBONE|DICT|INTERRES
    91   44  169 1    
    92   45   46 2    
    93   45   47 1    
    94   47   48 1    
    95   47   49 1    
    96   47  170 1    
    97   48  171 1    
    98   48  172 1    
    99   48  173 1    
   100   49   50 am   BACKBONE|DICT|INTERRES
   101   49  174 1    
   102   50   51 2    
   103   50   52 1    
   104   52   53 1    
   105   52   54 1    
   106   52  175 1    
   107   53  176 1    
   108   53  177 1    
   109   53  178 1    
   110   54   55 am   BACKBONE|DICT|INTERRES
   111   54  179 1    
   112   55   56 2    
   113   55   57 1    
   114   57   58 1    
   115   57   59 1    
   116   57  180 1    
   117   58  181 1    
   118   58  182 1    
   119   58  183 1    
   120   59   60 am   BACKBONE|DICT|INTERRES
   121   59  184 1    
   122   60   61 2    
   123   60   62 1    
   124   62   63 1    
   125   62   64 1    
   126   62  185 1    
   127   63  186 1    
   128   63  187 1    
   129   63  188 1    
   130   64   65 am   BACKBONE|DICT|INTERRES
   131   64  189 1    
   132   65   66 2    
   133   67   68 2    
   134   67   69 am   BACKBONE|DICT|INTERRES
   135   69   70 1    
   136   69  190 1    
   137   70   71 1    
   138   70   72 1    
   139   70  191 1    
   140   71  192 1    
   141   71  193 1    
   142   71  194 1    
   143   72   73 2    
   144   72   74 am   BACKBONE|DICT|INTERRES
   145   74   75 1    
   146   74  195 1    
   147   75   76 1    
   148   75   77 1    
   149   75  196 1    
   150   76  197 1    
   151   76  198 1    
   152   76  199 1    
   153   77   78 2    
   154   77   79 am   BACKBONE|DICT|INTERRES
   155   79   80 1    
   156   79  200 1    
   157   80   81 1    
   158   80   82 1    
   159   80  201 1    
   160   81  202 1    
   161   81  203 1    
   162   81  204 1    
   163   82   83 2    
   164   82   84 am   BACKBONE|DICT|INTERRES
   165   84   85 1    
   166   84  205 1    
   167   85   86 1    
   168   85   87 1    
   169   85  206 1    
   170   86  207 1    
   171   86  208 1    
   172   86  209 1    
   173   87   88 2    
   174   87   89 am   BACKBONE|DICT|INTERRES
   175   89   90 1    
   176   89  210 1    
   177   90   91 1    
   178   90   92 1    
   179   90  211 1    
   180   91  212 1    
   181   91  213 1    
   182   91  214 1    
   183   92   93 2    
   184   92   94 am   BACKBONE|DICT|INTERRES
   185   94   95 1    
   186   94  215 1    
   187   95   96 1    
   188   95   97 1    
   189   95  216 1    
   190   96  217 1    
   191   96  218 1    
   192   96  219 1    
   193   97   98 2    
   194   97   99 am   BACKBONE|DICT|INTERRES
   195   99  100 1    
   196   99  220 1    
   197  100  101 1    
   198  100  102 1    
   199  100  221 1    
   200  101  222 1    
   201  101  223 1    
   202  101  224 1    
   203  102  103 2    
   204  102  104 am   BACKBONE|DICT|INTERRES
   205  104  105 1    
   206  104  225 1    
   207  105  106 1    
   208  105  107 1    
   209  105  226 1    
   210  106  227 1    
   211  106  228 1    
   212  106  229 1    
   213  107  108 2    
   214  107  109 am   BACKBONE|DICT|INTERRES
   215  109  110 1    
   216  109  230 1    
   217  110  111 1    
   218  110  112 1    
   219  110  231 1    
   220  111  232 1    
   221  111  233 1    
   222  111  234 1    
   223  112  113 2    
   224  112  114 am   BACKBONE|DICT|INTERRES
   225  114  115 1    
   226  114  235 1    
   227  115  116 1    
   228  115  117 1    
   229  115  236 1    
   230  116  237 1    
   231  116  238 1    
   232  116  239 1    
   233  117  118 2    
   234  117  119 am   BACKBONE|DICT|INTERRES
   235  119  120 1    
   236  119  240 1    
   237  120  121 1    
   238  120  124 1    
   239  120  241 1    
   240  121  122 am   BACKBONE|DICT|INTERRES
   241  121  123 2    
   242  122  242 1    
   243  122  243 1    
   244  124  125 1    
   245  124  244 1    
   246  124  245 1    
   247  125  126 1    
   248  126  246 1    
   249  126  247 1    
@<TRIPOS>SUBSTRUCTURE
     1 UNK         1 GROUP             0       ****    0 ROOT    
