@<TRIPOS>MOLECULE
3R540
247   249    1
SMALL
USER_CHARGES


@<TRIPOS>ATOM
      1 CA          5.4219  -18.2614  -47.1656 C.3       0 UNK        -0.1800 
      2 C           4.3777  -17.1670  -47.3270 C.2       0 UNK         0.5000 
      3 O           3.4038  -17.1358  -46.5795 O.2       0 UNK        -0.5000 
      4 N           4.5795  -16.2506  -48.2815 N.am      1 UNK        -0.5000 
      5 CA          3.6812  -15.1366  -48.6210 C.3       1 UNK         0.1400 
      6 C6          3.9447  -14.6638  -50.0743 C.3       23 UNK        -0.0398 
      7 S7          2.5155  -13.8168  -50.8298 S.3       23 UNK        -0.2404 
      8 C8          1.9803  -15.0260  -52.0799 C.3       23 UNK        -0.0205 
      9 C9          1.1138  -16.1241  -51.4823 C.ar      23 UNK        -0.0193 
     10 C10        -0.2371  -15.8756  -51.2323 C.ar      23 UNK        -0.1150 
     11 C11        -1.0786  -16.8796  -50.7468 C.ar      23 UNK        -0.0193 
     12 C12        -0.5431  -18.1532  -50.5048 C.ar      23 UNK        -0.1150 
     13 C13         0.8096  -18.4177  -50.7512 C.ar      23 UNK        -0.0193 
     14 C14         1.6349  -17.3962  -51.2323 C.ar      23 UNK        -0.1150 
     15 C15         1.3672  -19.8237  -50.5712 C.3       23 UNK        -0.0205 
     16 S16         2.4119  -20.0011  -49.0957 S.3       23 UNK        -0.2404 
     17 C17         1.1973  -19.8861  -47.7421 C.3       23 UNK        -0.0398 
     18 CA          0.6587  -21.2681  -47.2744 C.3       11 UNK         0.1400 
     19 N           0.6562  -21.3950  -45.8129 N.am      11 UNK        -0.5000 
     20 C           0.3982  -22.5208  -45.1320 C.2       10 UNK         0.5000 
     21 O           0.2199  -23.6141  -45.6679 O.2       10 UNK        -0.5000 
     22 CA          0.2696  -22.3977  -43.5996 C.3       10 UNK         0.1400 
     23 CB          1.6381  -22.5329  -42.9160 C.3       10 UNK        -0.1800 
     24 N          -0.3727  -21.1476  -43.1847 N.am      10 UNK        -0.5000 
     25 C          -1.6516  -20.8364  -43.4432 C.2       9 UNK         0.5000 
     26 O          -2.4396  -21.6096  -43.9852 O.2       9 UNK        -0.5000 
     27 CA         -2.1117  -19.4047  -43.1047 C.3       9 UNK         0.1400 
     28 CB         -2.5019  -19.2776  -41.6252 C.3       9 UNK        -0.1800 
     29 N          -1.0995  -18.4031  -43.4429 N.am      9 UNK        -0.5000 
     30 C          -0.6707  -18.1582  -44.6892 C.2       8 UNK         0.5000 
     31 O          -1.1498  -18.6868  -45.6913 O.2       8 UNK        -0.5000 
     32 CA          0.5404  -17.2256  -44.8387 C.3       8 UNK         0.1400 
     33 CB          0.1069  -15.7580  -44.9358 C.3       8 UNK        -0.1800 
     34 N           1.5060  -17.4048  -43.7512 N.am      8 UNK        -0.5000 
     35 C           2.2948  -18.4831  -43.6252 C.2       7 UNK         0.5000 
     36 O           2.3096  -19.4103  -44.4324 O.2       7 UNK        -0.5000 
     37 CA          3.1644  -18.5857  -42.3571 C.3       7 UNK         0.1400 
     38 CB          4.5214  -17.8936  -42.5485 C.3       7 UNK        -0.1800 
     39 N           2.4982  -18.0509  -41.1692 N.am      7 UNK        -0.5000 
     40 C           1.4315  -18.6212  -40.5918 C.2       6 UNK         0.5000 
     41 O           0.9510  -19.6915  -40.9640 O.2       6 UNK        -0.5000 
     42 CA          0.7558  -17.8413  -39.4449 C.3       6 UNK         0.1400 
     43 CB          1.3735  -18.2304  -38.0939 C.3       6 UNK        -0.1800 
     44 N           0.8111  -16.3823  -39.6017 N.am      6 UNK        -0.5000 
     45 C           0.3142  -15.7045  -40.6459 C.2       5 UNK         0.5000 
     46 O          -0.2390  -16.2566  -41.5996 O.2       5 UNK        -0.5000 
     47 CA          0.5243  -14.1750  -40.6372 C.3       5 UNK         0.1400 
     48 CB          2.0242  -13.8327  -40.6304 C.3       5 UNK        -0.1800 
     49 N          -0.0979  -13.5176  -41.7903 N.am      5 UNK        -0.5000 
     50 C          -1.4186  -13.3379  -41.9464 C.2       4 UNK         0.5000 
     51 O          -2.2441  -13.6363  -41.0811 O.2       4 UNK        -0.5000 
     52 CA         -1.9048  -12.7186  -43.2741 C.3       4 UNK         0.1400 
     53 CB         -3.0978  -11.7655  -43.0751 C.3       4 UNK        -0.1800 
     54 N          -0.8337  -12.0027  -43.9667 N.am      4 UNK        -0.5000 
     55 C          -0.5584  -12.0803  -45.2744 C.2       3 UNK         0.5000 
     56 O          -1.1988  -12.7646  -46.0729 O.2       3 UNK        -0.5000 
     57 CA          0.6444  -11.2581  -45.7849 C.3       3 UNK         0.1400 
     58 CB          0.8593   -9.9405  -45.0078 C.3       3 UNK        -0.1800 
     59 N           1.8833  -12.0423  -45.8242 N.am      3 UNK        -0.5000 
     60 C           2.4741  -12.6827  -44.8062 C.2       2 UNK         0.5000 
     61 O           2.0281  -12.6907  -43.6575 O.2       2 UNK        -0.5000 
     62 CA          3.7669  -13.4584  -45.1321 C.3       2 UNK         0.1400 
     63 CB          4.2423  -14.3170  -43.9490 C.3       2 UNK        -0.1800 
     64 N           3.6181  -14.3353  -46.2932 N.am      2 UNK        -0.5000 
     65 C           3.7489  -13.9880  -47.5775 C.2       1 UNK         0.5000 
     66 O           3.9348  -12.8220  -47.9304 O.2       1 UNK        -0.5000 
     67 C          -0.7385  -21.5715  -47.8608 C.2       11 UNK         0.5000 
     68 O          -0.8555  -22.3769  -48.7849 O.2       11 UNK        -0.5000 
     69 N          -1.7811  -20.9679  -47.2713 N.am      12 UNK        -0.5000 
     70 CA         -3.1879  -21.1996  -47.6043 C.3       12 UNK         0.1400 
     71 CB         -4.0736  -20.2165  -46.8253 C.3       12 UNK        -0.1800 
     72 C          -3.6367  -22.6503  -47.3490 C.2       12 UNK         0.5000 
     73 O          -4.3754  -23.2026  -48.1624 O.2       12 UNK        -0.5000 
     74 N          -3.1503  -23.2606  -46.2581 N.am      13 UNK        -0.5000 
     75 CA         -3.3916  -24.6631  -45.9026 C.3       13 UNK         0.1400 
     76 CB         -2.8671  -24.9374  -44.4857 C.3       13 UNK        -0.1800 
     77 C          -2.7987  -25.6699  -46.9103 C.2       13 UNK         0.5000 
     78 O          -3.3247  -26.7756  -47.0353 O.2       13 UNK        -0.5000 
     79 N          -1.7663  -25.2564  -47.6589 N.am      14 UNK        -0.5000 
     80 CA         -1.1995  -25.9727  -48.8060 C.3       14 UNK         0.1400 
     81 CB          0.3072  -25.6692  -48.8856 C.3       14 UNK        -0.1800 
     82 C          -1.9377  -25.6253  -50.1210 C.2       14 UNK         0.5000 
     83 O          -1.3268  -25.6108  -51.1922 O.2       14 UNK        -0.5000 
     84 N          -3.2341  -25.2950  -50.0117 N.am      15 UNK        -0.5000 
     85 CA         -4.1714  -24.8725  -51.0588 C.3       15 UNK         0.1400 
     86 CB         -4.4158  -26.0153  -52.0649 C.3       15 UNK        -0.1800 
     87 C          -3.7777  -23.5615  -51.7674 C.2       15 UNK         0.5000 
     88 O          -4.3526  -23.2470  -52.8115 O.2       15 UNK        -0.5000 
     89 N          -2.8063  -22.8256  -51.2075 N.am      16 UNK        -0.5000 
     90 CA         -2.1187  -21.6765  -51.7991 C.3       16 UNK         0.1400 
     91 CB         -3.0682  -20.4767  -51.9322 C.3       16 UNK        -0.1800 
     92 C          -1.3744  -22.0298  -53.1027 C.2       16 UNK         0.5000 
     93 O          -1.2960  -21.2004  -54.0083 O.2       16 UNK        -0.5000 
     94 N          -0.8607  -23.2699  -53.1731 N.am      17 UNK        -0.5000 
     95 CA         -0.2611  -23.9042  -54.3519 C.3       17 UNK         0.1400 
     96 CB          1.0545  -23.2057  -54.7564 C.3       17 UNK        -0.1800 
     97 C          -1.2781  -24.0276  -55.5074 C.2       17 UNK         0.5000 
     98 O          -0.9684  -23.6923  -56.6519 O.2       17 UNK        -0.5000 
     99 N          -2.4824  -24.5036  -55.1557 N.am      18 UNK        -0.5000 
    100 CA        -3.6693  -24.6592  -56.0007 C.3       18 UNK         0.1400 
    101 CB        -3.4191  -25.6668  -57.1430 C.3       18 UNK        -0.1800 
    102 C         -4.2244  -23.3030  -56.4826 C.2       18 UNK         0.5000 
    103 O         -4.4151  -23.0954  -57.6826 O.2       18 UNK        -0.5000 
    104 N         -4.4931  -22.4127  -55.5205 N.am      19 UNK        -0.5000 
    105 CA        -5.1324  -21.1109  -55.7201 C.3       19 UNK         0.1400 
    106 CB        -4.0813  -19.9877  -55.6836 C.3       19 UNK        -0.1800 
    107 C         -6.2738  -20.9237  -54.7030 C.2       19 UNK         0.5000 
    108 O         -6.4491  -19.8371  -54.1456 O.2       19 UNK        -0.5000 
    109 N         -7.0290  -22.0104  -54.4782 N.am      20 UNK        -0.5000 
    110 CA        -8.2632  -22.0991  -53.6880 C.3       20 UNK         0.1400 
    111 CB        -9.4019  -21.3459  -54.4076 C.3       20 UNK        -0.1800 
    112 C         -8.1113  -21.6707  -52.2126 C.2       20 UNK         0.5000 
    113 O         -9.0618  -21.1441  -51.6321 O.2       20 UNK        -0.5000 
    114 N         -6.9205  -21.9041  -51.6380 N.am      21 UNK        -0.5000 
    115 CA        -6.5169  -21.5083  -50.2822 C.3       21 UNK         0.1400 
    116 CB        -7.3161  -22.2849  -49.2143 C.3       21 UNK        -0.1800 
    117 C         -6.5546  -19.9781  -50.0869 C.2       21 UNK         0.5000 
    118 O         -7.1141  -19.4859  -49.1059 O.2       21 UNK        -0.5000 
    119 N         -5.9512  -19.2695  -51.0493 N.am      22 UNK        -0.5000 
    120 CA        -5.8773  -17.8051  -51.1568 C.3       22 UNK         0.1400 
    121 C         -7.2325  -17.1875  -51.6028 C.2       22 UNK         0.5000 
    122 N         -7.8683  -17.7467  -52.6257 N.am      22 UNK        -0.7600 
    123 O         -7.7089  -16.2036  -51.0423 O.2       22 UNK        -0.5000 
    124 C124       -5.2279  -17.0983  -49.9289 C.3       23 UNK        -0.0398 
    125 S125       -3.5403  -17.6986  -49.5661 S.3       23 UNK        -0.2404 
    126 C126       -2.5612  -16.5422  -50.5796 C.3       23 UNK        -0.0205 
    127 H127        6.2034  -18.1919  -47.9224 H         1 UNK         0.0600 
    128 H128        4.9507  -19.2407  -47.2505 H         1 UNK         0.0600 
    129 H129        5.8878  -18.1913  -46.1827 H         1 UNK         0.0600 
    130 H130        5.4242  -16.3063  -48.8323 H         1 UNK         0.3000 
    131 H131        2.6621  -15.5292  -48.5834 H         1 UNK         0.0600 
    132 H132        4.8148  -14.0069  -50.1255 H         1 UNK         0.0800 
    133 H133        4.1976  -15.5206  -50.6998 H         1 UNK         0.0800 
    134 H134        1.4078  -14.4992  -52.8449 H         1 UNK         0.0800 
    135 H135        2.8447  -15.4465  -52.5961 H         1 UNK         0.0800 
    136 H136       -0.6411  -14.8948  -51.4422 H         1 UNK         0.1150 
    137 H137       -1.1781  -18.9522  -50.1521 H         1 UNK         0.1150 
    138 H138        2.6760  -17.6023  -51.4376 H         1 UNK         0.1150 
    139 H139        0.5689  -20.5593  -50.5185 H         1 UNK         0.0800 
    140 H140        1.9582  -20.0861  -51.4498 H         1 UNK         0.0800 
    141 H141        0.4006  -19.1866  -48.0004 H         1 UNK         0.0800 
    142 H142        1.7368  -19.4012  -46.9304 H         1 UNK         0.0800 
    143 H143        1.3311  -22.0478  -47.6386 H         1 UNK         0.0600 
    144 H144        0.8787  -20.5578  -45.2855 H         1 UNK         0.3000 
    145 H145       -0.3573  -23.2216  -43.2534 H         1 UNK         0.0600 
    146 H146        2.1014  -23.4893  -43.1613 H         1 UNK         0.0600 
    147 H147        2.3268  -21.7480  -43.2259 H         1 UNK         0.0600 
    148 H148        1.5433  -22.4852  -41.8310 H         1 UNK         0.0600 
    149 H149        0.1980  -20.4849  -42.6704 H         1 UNK         0.3000 
    150 H150       -2.9984  -19.1911  -43.7050 H         1 UNK         0.0600 
    151 H151       -2.8291  -18.2650  -41.3881 H         1 UNK         0.0600 
    152 H152       -1.6736  -19.5259  -40.9632 H         1 UNK         0.0600 
    153 H153       -3.3243  -19.9518  -41.3834 H         1 UNK         0.0600 
    154 H154       -0.6891  -17.8755  -42.6790 H         1 UNK         0.3000 
    155 H155        1.0259  -17.4816  -45.7798 H         1 UNK         0.0600 
    156 H156       -0.5742  -15.6094  -45.7746 H         1 UNK         0.0600 
    157 H157        0.9647  -15.1092  -45.0995 H         1 UNK         0.0600 
    158 H158       -0.4066  -15.4207  -44.0374 H         1 UNK         0.0600 
    159 H159        1.4675  -16.7314  -42.9998 H         1 UNK         0.3000 
    160 H160        3.3581  -19.6470  -42.1868 H         1 UNK         0.0600 
    161 H161        4.9923  -18.2006  -43.4836 H         1 UNK         0.0600 
    162 H162        5.2068  -18.1497  -41.7405 H         1 UNK         0.0600 
    163 H163        4.4245  -16.8101  -42.5671 H         1 UNK         0.0600 
    164 H164        2.8390  -17.1752  -40.8015 H         1 UNK         0.3000 
    165 H165       -0.2973  -18.1287  -39.4324 H         1 UNK         0.0600 
    166 H166        0.8404  -17.7621  -37.2663 H         1 UNK         0.0600 
    167 H167        1.3264  -19.3093  -37.9392 H         1 UNK         0.0600 
    168 H168        2.4215  -17.9350  -38.0299 H         1 UNK         0.0600 
    169 H169        1.2576  -15.8698  -38.8549 H         1 UNK         0.3000 
    170 H170        0.0721  -13.7774  -39.7264 H         1 UNK         0.0600 
    171 H171        2.1838  -12.7559  -40.6917 H         1 UNK         0.0600 
    172 H172        2.5096  -14.1759  -39.7165 H         1 UNK         0.0600 
    173 H173        2.5433  -14.2937  -41.4707 H         1 UNK         0.0600 
    174 H174        0.5302  -13.2674  -42.5489 H         1 UNK         0.3000 
    175 H175       -2.2398  -13.5594  -43.8848 H         1 UNK         0.0600 
    176 H176       -2.8336  -10.9231  -42.4350 H         1 UNK         0.0600 
    177 H177       -3.4453  -11.3662  -44.0281 H         1 UNK         0.0600 
    178 H178       -3.9429  -12.2789  -42.6149 H         1 UNK         0.0600 
    179 H179       -0.2209  -11.4491  -43.3837 H         1 UNK         0.3000 
    180 H180        0.4167  -10.9915  -46.8182 H         1 UNK         0.0600 
    181 H181        1.6141   -9.3231  -45.4950 H         1 UNK         0.0600 
    182 H182        1.1873  -10.1078  -43.9816 H         1 UNK         0.0600 
    183 H183       -0.0598   -9.3543  -44.9701 H         1 UNK         0.0600 
    184 H184        2.3296  -12.1181  -46.7312 H         1 UNK         0.3000 
    185 H185        4.5425  -12.7190  -45.3415 H         1 UNK         0.0600 
    186 H186        3.4829  -15.0477  -43.6706 H         1 UNK         0.0600 
    187 H187        5.1580  -14.8565  -44.1919 H         1 UNK         0.0600 
    188 H188        4.4505  -13.7018  -43.0727 H         1 UNK         0.0600 
    189 H189        3.4475  -15.3199  -46.1029 H         1 UNK         0.3000 
    190 H190       -1.5955  -20.2763  -46.5479 H         1 UNK         0.3000 
    191 H191       -3.3099  -20.9953  -48.6692 H         1 UNK         0.0600 
    192 H192       -4.0383  -20.4018  -45.7521 H         1 UNK         0.0600 
    193 H193       -5.1149  -20.2994  -47.1383 H         1 UNK         0.0600 
    194 H194       -3.7645  -19.1851  -46.9922 H         1 UNK         0.0600 
    195 H195       -2.6138  -22.7097  -45.5944 H         1 UNK         0.3000 
    196 H196       -4.4730  -24.8140  -45.8944 H         1 UNK         0.0600 
    197 H197       -3.1076  -25.9539  -44.1720 H         1 UNK         0.0600 
    198 H198       -3.3149  -24.2594  -43.7589 H         1 UNK         0.0600 
    199 H199       -1.7852  -24.8270  -44.4279 H         1 UNK         0.0600 
    200 H200       -1.3958  -24.3294  -47.4895 H         1 UNK         0.3000 
    201 H201       -1.3131  -27.0474  -48.6518 H         1 UNK         0.0600 
    202 H202        0.8060  -25.9023  -47.9446 H         1 UNK         0.0600 
    203 H203        0.4978  -24.6202  -49.1123 H         1 UNK         0.0600 
    204 H204        0.7873  -26.2650  -49.6627 H         1 UNK         0.0600 
    205 H205       -3.6195  -25.2697  -49.0770 H         1 UNK         0.3000 
    206 H206       -5.1159  -24.6658  -50.5537 H         1 UNK         0.0600 
    207 H207       -5.2099  -25.7593  -52.7674 H         1 UNK         0.0600 
    208 H208       -3.5236  -26.2428  -52.6485 H         1 UNK         0.0600 
    209 H209       -4.7220  -26.9282  -51.5542 H         1 UNK         0.0600 
    210 H210       -2.4085  -23.1561  -50.3371 H         1 UNK         0.3000 
    211 H211       -1.3477  -21.3901  -51.0912 H         1 UNK         0.0600 
    212 H212       -3.9080  -20.6883  -52.5908 H         1 UNK         0.0600 
    213 H213       -2.5529  -19.5972  -52.3201 H         1 UNK         0.0600 
    214 H214       -3.4619  -20.2125  -50.9544 H         1 UNK         0.0600 
    215 H215       -0.9848  -23.8836  -52.3743 H         1 UNK         0.3000 
    216 H216       -0.0110  -24.9238  -54.0548 H         1 UNK         0.0600 
    217 H217        1.5614  -23.7613  -55.5461 H         1 UNK         0.0600 
    218 H218        1.7416  -23.1413  -53.9127 H         1 UNK         0.0600 
    219 H219        0.8846  -22.1952  -55.1286 H         1 UNK         0.0600 
    220 H220       -2.6265  -24.7062  -54.1775 H         1 UNK         0.3000 
    221 H221       -4.4401  -25.0887  -55.3590 H         1 UNK         0.0600 
    222 H222       -2.6931  -25.2956  -57.8666 H         1 UNK         0.0600 
    223 H223       -3.0517  -26.6173  -56.7565 H         1 UNK         0.0600 
    224 H224       -4.3417  -25.8729  -57.6867 H         1 UNK         0.0600 
    225 H225       -4.3298  -22.6783  -54.5504 H         1 UNK         0.3000 
    226 H226       -5.6107  -21.0812  -56.7010 H         1 UNK         0.0600 
    227 H227       -3.3071  -20.1518  -56.4331 H         1 UNK         0.0600 
    228 H228       -4.5358  -19.0186  -55.8921 H         1 UNK         0.0600 
    229 H229       -3.5923  -19.9180  -54.7144 H         1 UNK         0.0600 
    230 H230       -6.7644  -22.8588  -54.9581 H         1 UNK         0.3000 
    231 H231       -8.5330  -23.1558  -53.6637 H         1 UNK         0.0600 
    232 H232       -9.2276  -20.2694  -54.4207 H         1 UNK         0.0600 
    233 H233       -9.5062  -21.6809  -55.4396 H         1 UNK         0.0600 
    234 H234      -10.3604  -21.5168  -53.9163 H         1 UNK         0.0600 
    235 H235       -6.2009  -22.3311  -52.2099 H         1 UNK         0.3000 
    236 H236       -5.4709  -21.7929  -50.1737 H         1 UNK         0.0600 
    237 H237       -8.3759  -22.0305  -49.2275 H         1 UNK         0.0600 
    238 H238       -7.2249  -23.3609  -49.3614 H         1 UNK         0.0600 
    239 H239       -6.9422  -22.0643  -48.2139 H         1 UNK         0.0600 
    240 H240       -5.6004  -19.7695  -51.8530 H         1 UNK         0.3000 
    241 H241       -5.2116  -17.6174  -52.0000 H         1 UNK         0.0600 
    242 H242       -8.7487  -17.3657  -52.9324 H         1 UNK         0.3800 
    243 H243       -7.4563  -18.5319  -53.1225 H         1 UNK         0.3800 
    244 H244       -5.1828  -16.0204  -50.0921 H         1 UNK         0.0800 
    245 H245       -5.8400  -17.2326  -49.0368 H         1 UNK         0.0800 
    246 H246       -2.6569  -15.5470  -50.1423 H         1 UNK         0.0800 
    247 H247       -3.0029  -16.4896  -51.5754 H         1 UNK         0.0800 
@<TRIPOS>BOND
     1    1    2 1    
     2    1  127 1    
     3    1  128 1    
     4    1  129 1    
     5    2    3 2    
     6    2    4 am   BACKBONE|DICT|INTERRES
     7    4    5 1    
     8    4  130 1    
     9    5    6 1    
    10    5   65 1    
    11    5  131 1    
    12    6    7 1    
    13    6  132 1    
    14    6  133 1    
    15    7    8 1    
    16    8    9 1    
    17    8  134 1    
    18    8  135 1    
    19    9   10 ar   
    20    9   14 ar   
    21   10   11 ar   
    22   10  136 1    
    23   11   12 ar   
    24   11  126 1    
    25   12   13 ar   
    26   12  137 1    
    27   13   14 ar   
    28   13   15 1    
    29   14  138 1    
    30   15   16 1    
    31   15  139 1    
    32   15  140 1    
    33   16   17 1    
    34   17   18 1    
    35   17  141 1    
    36   17  142 1    
    37   18   19 1    
    38   18   67 1    
    39   18  143 1    
    40   19   20 am   BACKBONE|DICT|INTERRES
    41   19  144 1    
    42   20   21 2    
    43   20   22 1    
    44   22   23 1    
    45   22   24 1    
    46   22  145 1    
    47   23  146 1    
    48   23  147 1    
    49   23  148 1    
    50   24   25 am   BACKBONE|DICT|INTERRES
    51   24  149 1    
    52   25   26 2    
    53   25   27 1    
    54   27   28 1    
    55   27   29 1    
    56   27  150 1    
    57   28  151 1    
    58   28  152 1    
    59   28  153 1    
    60   29   30 am   BACKBONE|DICT|INTERRES
    61   29  154 1    
    62   30   31 2    
    63   30   32 1    
    64   32   33 1    
    65   32   34 1    
    66   32  155 1    
    67   33  156 1    
    68   33  157 1    
    69   33  158 1    
    70   34   35 am   BACKBONE|DICT|INTERRES
    71   34  159 1    
    72   35   36 2    
    73   35   37 1    
    74   37   38 1    
    75   37   39 1    
    76   37  160 1    
    77   38  161 1    
    78   38  162 1    
    79   38  163 1    
    80   39   40 am   BACKBONE|DICT|INTERRES
    81   39  164 1    
    82   40   41 2    
    83   40   42 1    
    84   42   43 1    
    85   42   44 1    
    86   42  165 1    
    87   43  166 1    
    88   43  167 1    
    89   43  168 1    
    90   44   45 am   BACKBONE|DICT|INTERRES
    91   44  169 1    
    92   45   46 2    
    93   45   47 1    
    94   47   48 1    
    95   47   49 1    
    96   47  170 1    
    97   48  171 1    
    98   48  172 1    
    99   48  173 1    
   100   49   50 am   BACKBONE|DICT|INTERRES
   101   49  174 1    
   102   50   51 2    
   103   50   52 1    
   104   52   53 1    
   105   52   54 1    
   106   52  175 1    
   107   53  176 1    
   108   53  177 1    
   109   53  178 1    
   110   54   55 am   BACKBONE|DICT|INTERRES
   111   54  179 1    
   112   55   56 2    
   113   55   57 1    
   114   57   58 1    
   115   57   59 1    
   116   57  180 1    
   117   58  181 1    
   118   58  182 1    
   119   58  183 1    
   120   59   60 am   BACKBONE|DICT|INTERRES
   121   59  184 1    
   122   60   61 2    
   123   60   62 1    
   124   62   63 1    
   125   62   64 1    
   126   62  185 1    
   127   63  186 1    
   128   63  187 1    
   129   63  188 1    
   130   64   65 am   BACKBONE|DICT|INTERRES
   131   64  189 1    
   132   65   66 2    
   133   67   68 2    
   134   67   69 am   BACKBONE|DICT|INTERRES
   135   69   70 1    
   136   69  190 1    
   137   70   71 1    
   138   70   72 1    
   139   70  191 1    
   140   71  192 1    
   141   71  193 1    
   142   71  194 1    
   143   72   73 2    
   144   72   74 am   BACKBONE|DICT|INTERRES
   145   74   75 1    
   146   74  195 1    
   147   75   76 1    
   148   75   77 1    
   149   75  196 1    
   150   76  197 1    
   151   76  198 1    
   152   76  199 1    
   153   77   78 2    
   154   77   79 am   BACKBONE|DICT|INTERRES
   155   79   80 1    
   156   79  200 1    
   157   80   81 1    
   158   80   82 1    
   159   80  201 1    
   160   81  202 1    
   161   81  203 1    
   162   81  204 1    
   163   82   83 2    
   164   82   84 am   BACKBONE|DICT|INTERRES
   165   84   85 1    
   166   84  205 1    
   167   85   86 1    
   168   85   87 1    
   169   85  206 1    
   170   86  207 1    
   171   86  208 1    
   172   86  209 1    
   173   87   88 2    
   174   87   89 am   BACKBONE|DICT|INTERRES
   175   89   90 1    
   176   89  210 1    
   177   90   91 1    
   178   90   92 1    
   179   90  211 1    
   180   91  212 1    
   181   91  213 1    
   182   91  214 1    
   183   92   93 2    
   184   92   94 am   BACKBONE|DICT|INTERRES
   185   94   95 1    
   186   94  215 1    
   187   95   96 1    
   188   95   97 1    
   189   95  216 1    
   190   96  217 1    
   191   96  218 1    
   192   96  219 1    
   193   97   98 2    
   194   97   99 am   BACKBONE|DICT|INTERRES
   195   99  100 1    
   196   99  220 1    
   197  100  101 1    
   198  100  102 1    
   199  100  221 1    
   200  101  222 1    
   201  101  223 1    
   202  101  224 1    
   203  102  103 2    
   204  102  104 am   BACKBONE|DICT|INTERRES
   205  104  105 1    
   206  104  225 1    
   207  105  106 1    
   208  105  107 1    
   209  105  226 1    
   210  106  227 1    
   211  106  228 1    
   212  106  229 1    
   213  107  108 2    
   214  107  109 am   BACKBONE|DICT|INTERRES
   215  109  110 1    
   216  109  230 1    
   217  110  111 1    
   218  110  112 1    
   219  110  231 1    
   220  111  232 1    
   221  111  233 1    
   222  111  234 1    
   223  112  113 2    
   224  112  114 am   BACKBONE|DICT|INTERRES
   225  114  115 1    
   226  114  235 1    
   227  115  116 1    
   228  115  117 1    
   229  115  236 1    
   230  116  237 1    
   231  116  238 1    
   232  116  239 1    
   233  117  118 2    
   234  117  119 am   BACKBONE|DICT|INTERRES
   235  119  120 1    
   236  119  240 1    
   237  120  121 1    
   238  120  124 1    
   239  120  241 1    
   240  121  122 am   BACKBONE|DICT|INTERRES
   241  121  123 2    
   242  122  242 1    
   243  122  243 1    
   244  124  125 1    
   245  124  244 1    
   246  124  245 1    
   247  125  126 1    
   248  126  246 1    
   249  126  247 1    
@<TRIPOS>SUBSTRUCTURE
     1 UNK         1 GROUP             0       ****    0 ROOT    
