@<TRIPOS>MOLECULE
3R540
247   249    1
SMALL
USER_CHARGES


@<TRIPOS>ATOM
      1 CA         -5.5056  -10.5938  -51.4662 C.3       0 UNK        -0.1800 
      2 C          -4.1022  -11.1231  -51.7249 C.2       0 UNK         0.5000 
      3 O          -3.1434  -10.3515  -51.7105 O.2       0 UNK        -0.5000 
      4 N          -3.9789  -12.4352  -51.9601 N.am      1 UNK        -0.5000 
      5 CA         -2.7103  -13.1344  -52.2057 C.3       1 UNK         0.1400 
      6 C6         -2.9279  -14.4582  -52.9867 C.3       23 UNK        -0.0398 
      7 S7         -4.1148  -15.6190  -52.2121 S.3       23 UNK        -0.2404 
      8 C8         -3.1553  -17.1659  -52.1240 C.3       23 UNK        -0.0205 
      9 C9         -2.1220  -17.1321  -51.0098 C.ar      23 UNK        -0.0193 
     10 C10        -0.7794  -16.8728  -51.2974 C.ar      23 UNK        -0.1150 
     11 C11         0.1550  -16.7566  -50.2649 C.ar      23 UNK        -0.0193 
     12 C12        -0.2613  -16.9271  -48.9415 C.ar      23 UNK        -0.1150 
     13 C13        -1.5916  -17.2317  -48.6423 C.ar      23 UNK        -0.0193 
     14 C14        -2.5157  -17.3323  -49.6837 C.ar      23 UNK        -0.1150 
     15 C15        -2.0428  -17.3549  -47.1933 C.3       23 UNK        -0.0205 
     16 S16        -1.1074  -18.6151  -46.2716 S.3       23 UNK        -0.2404 
     17 C17        -2.2326  -20.0508  -46.2541 C.3       23 UNK        -0.0398 
     18 CA         -1.4949  -21.3764  -46.5594 C.3       11 UNK         0.1400 
     19 N          -0.3190  -21.5830  -45.7005 N.am      11 UNK        -0.5000 
     20 C           0.6573  -22.4827  -45.8935 C.2       10 UNK         0.5000 
     21 O           0.6665  -23.2803  -46.8331 O.2       10 UNK        -0.5000 
     22 CA          1.7686  -22.5521  -44.8297 C.3       10 UNK         0.1400 
     23 CB          3.0613  -21.8965  -45.3323 C.3       10 UNK        -0.1800 
     24 N           1.3791  -21.9342  -43.5611 N.am      10 UNK        -0.5000 
     25 C           0.5501  -22.4853  -42.6638 C.2       9 UNK         0.5000 
     26 O           0.0117  -23.5813  -42.8291 O.2       9 UNK        -0.5000 
     27 CA          0.2527  -21.6579  -41.3939 C.3       9 UNK         0.1400 
     28 CB         -0.1529  -22.5287  -40.1870 C.3       9 UNK        -0.1800 
     29 N           1.3334  -20.7305  -41.0413 N.am      9 UNK        -0.5000 
     30 C           2.5875  -21.0229  -40.6616 C.2       8 UNK         0.5000 
     31 O           3.0036  -22.1682  -40.4847 O.2       8 UNK        -0.5000 
     32 CA          3.5551  -19.8347  -40.4695 C.3       8 UNK         0.1400 
     33 CB          4.6051  -19.8125  -41.5921 C.3       8 UNK        -0.1800 
     34 N           2.8741  -18.5382  -40.4406 N.am      8 UNK        -0.5000 
     35 C           2.1962  -18.0498  -39.3926 C.2       7 UNK         0.5000 
     36 O           2.1453  -18.6005  -38.2926 O.2       7 UNK        -0.5000 
     37 CA          1.4100  -16.7473  -39.6300 C.3       7 UNK         0.1400 
     38 CB          2.2615  -15.5195  -39.2724 C.3       7 UNK        -0.1800 
     39 N           0.9409  -16.6358  -41.0140 N.am      7 UNK        -0.5000 
     40 C          -0.0936  -17.3273  -41.5151 C.2       6 UNK         0.5000 
     41 O          -0.7801  -18.1022  -40.8494 O.2       6 UNK        -0.5000 
     42 CA         -0.3879  -17.1652  -43.0171 C.3       6 UNK         0.1400 
     43 CB         -1.3441  -15.9880  -43.2573 C.3       6 UNK        -0.1800 
     44 N           0.8217  -16.9796  -43.8185 N.am      6 UNK        -0.5000 
     45 C           1.7599  -17.9198  -44.0097 C.2       5 UNK         0.5000 
     46 O           1.6751  -19.0634  -43.5609 O.2       5 UNK        -0.5000 
     47 CA          3.0260  -17.5132  -44.7934 C.3       5 UNK         0.1400 
     48 CB          2.8612  -17.8585  -46.2793 C.3       5 UNK        -0.1800 
     49 N           3.3647  -16.0928  -44.6933 N.am      5 UNK        -0.5000 
     50 C           3.5181  -15.3851  -43.5663 C.2       4 UNK         0.5000 
     51 O           3.5372  -15.8907  -42.4439 O.2       4 UNK        -0.5000 
     52 CA          3.5822  -13.8488  -43.7126 C.3       4 UNK         0.1400 
     53 CB          5.0271  -13.3570  -43.5419 C.3       4 UNK        -0.1800 
     54 N           3.0431  -13.3186  -44.9759 N.am      4 UNK        -0.5000 
     55 C           1.8059  -13.5154  -45.4577 C.2       3 UNK         0.5000 
     56 O           0.9563  -14.2079  -44.8888 O.2       3 UNK        -0.5000 
     57 CA          1.4838  -12.8753  -46.8200 C.3       3 UNK         0.1400 
     58 CB          2.5393  -13.2265  -47.8884 C.3       3 UNK        -0.1800 
     59 N           0.1788  -13.3524  -47.2628 N.am      3 UNK        -0.5000 
     60 C          -0.6606  -12.7199  -48.0872 C.2       2 UNK         0.5000 
     61 O          -0.4648  -11.5900  -48.5417 O.2       2 UNK        -0.5000 
     62 CA         -1.9548  -13.4876  -48.4212 C.3       2 UNK         0.1400 
     63 CB         -3.0380  -13.2137  -47.3667 C.3       2 UNK        -0.1800 
     64 N          -2.5083  -13.2191  -49.7492 N.am      2 UNK        -0.5000 
     65 C          -1.8723  -13.3508  -50.9241 C.2       1 UNK         0.5000 
     66 O          -0.6806  -13.6390  -51.0369 O.2       1 UNK        -0.5000 
     67 C          -2.4809  -22.5706  -46.5571 C.2       11 UNK         0.5000 
     68 O          -3.4336  -22.5707  -47.3383 O.2       11 UNK        -0.5000 
     69 N          -2.2168  -23.6012  -45.7413 N.am      12 UNK        -0.5000 
     70 CA         -2.8256  -24.9263  -45.8538 C.3       12 UNK         0.1400 
     71 CB         -2.3639  -25.7962  -44.6761 C.3       12 UNK        -0.1800 
     72 C          -2.4911  -25.6052  -47.1988 C.2       12 UNK         0.5000 
     73 O          -3.3619  -26.2504  -47.7814 O.2       12 UNK        -0.5000 
     74 N          -1.2673  -25.3882  -47.7096 N.am      13 UNK        -0.5000 
     75 CA         -0.8376  -25.8365  -49.0389 C.3       13 UNK         0.1400 
     76 CB          0.6965  -25.8555  -49.1066 C.3       13 UNK        -0.1800 
     77 C          -1.4327  -24.9793  -50.1750 C.2       13 UNK         0.5000 
     78 O          -1.5386  -25.4590  -51.3025 O.2       13 UNK        -0.5000 
     79 N          -1.8587  -23.7488  -49.8490 N.am      14 UNK        -0.5000 
     80 CA         -2.6685  -22.8777  -50.7070 C.3       14 UNK         0.1400 
     81 CB         -2.4435  -21.4062  -50.3092 C.3       14 UNK        -0.1800 
     82 C          -4.1701  -23.2300  -50.6541 C.2       14 UNK         0.5000 
     83 O          -4.9689  -22.5133  -51.2559 O.2       14 UNK        -0.5000 
     84 N          -4.5391  -24.2911  -49.9180 N.am      15 UNK        -0.5000 
     85 CA         -5.8974  -24.7964  -49.7055 C.3       15 UNK         0.1400 
     86 CB         -6.4521  -25.4106  -51.0073 C.3       15 UNK        -0.1800 
     87 C          -6.8251  -23.7407  -49.0711 C.2       15 UNK         0.5000 
     88 O          -7.9643  -23.5746  -49.5080 O.2       15 UNK        -0.5000 
     89 N          -6.2924  -23.0278  -48.0657 N.am      16 UNK        -0.5000 
     90 CA         -6.9111  -21.9015  -47.3600 C.3       16 UNK         0.1400 
     91 CB         -8.1768  -22.3400  -46.5931 C.3       16 UNK        -0.1800 
     92 C          -7.1390  -20.6964  -48.2953 C.2       16 UNK         0.5000 
     93 O          -8.2204  -20.1062  -48.3055 O.2       16 UNK        -0.5000 
     94 N          -6.0891  -20.3672  -49.0621 N.am      17 UNK        -0.5000 
     95 CA         -5.9897  -19.2589  -50.0188 C.3       17 UNK         0.1400 
     96 CB         -6.2062  -17.8997  -49.3170 C.3       17 UNK        -0.1800 
     97 C          -6.8728  -19.4208  -51.2750 C.2       17 UNK         0.5000 
     98 O          -7.2062  -18.4238  -51.9177 O.2       17 UNK        -0.5000 
     99 N          -7.2256  -20.6650  -51.6202 N.am      18 UNK        -0.5000 
    100 CA        -7.9592  -21.0022  -52.8401 C.3       18 UNK         0.1400 
    101 CB        -8.7520  -22.2968  -52.6124 C.3       18 UNK        -0.1800 
    102 C         -7.0247  -21.1423  -54.0568 C.2       18 UNK         0.5000 
    103 O         -7.4498  -20.8598  -55.1780 O.2       18 UNK        -0.5000 
    104 N         -5.7788  -21.5688  -53.8181 N.am      19 UNK        -0.5000 
    105 CA        -4.7184  -21.7114  -54.8114 C.3       19 UNK         0.1400 
    106 CB        -4.1593  -23.1414  -54.7267 C.3       19 UNK        -0.1800 
    107 C         -3.6058  -20.6858  -54.5426 C.2       19 UNK         0.5000 
    108 O         -3.4875  -20.1728  -53.4300 O.2       19 UNK        -0.5000 
    109 N         -2.7783  -20.4313  -55.5623 N.am      20 UNK        -0.5000 
    110 CA        -1.6658  -19.4749  -55.5253 C.3       20 UNK         0.1400 
    111 CB        -1.4278  -18.9577  -56.9543 C.3       20 UNK        -0.1800 
    112 C         -0.3630  -20.0482  -54.9228 C.2       20 UNK         0.5000 
    113 O          0.6578  -19.3597  -54.9351 O.2       20 UNK        -0.5000 
    114 N         -0.4009  -21.2979  -54.4379 N.am      21 UNK        -0.5000 
    115 CA         0.7558  -22.0748  -53.9796 C.3       21 UNK         0.1400 
    116 CB         0.3114  -23.5255  -53.7404 C.3       21 UNK        -0.1800 
    117 C          1.4803  -21.5209  -52.7347 C.2       21 UNK         0.5000 
    118 O          2.6453  -21.8625  -52.5289 O.2       21 UNK        -0.5000 
    119 N          0.7990  -20.6853  -51.9377 N.am      22 UNK        -0.5000 
    120 CA         1.3428  -20.0128  -50.7410 C.3       22 UNK         0.1400 
    121 C          1.6332  -20.9563  -49.5301 C.2       22 UNK         0.5000 
    122 N          1.0507  -22.1469  -49.4783 N.am      22 UNK        -0.7600 
    123 O          2.3581  -20.6061  -48.6054 O.2       22 UNK        -0.5000 
    124 C124        2.5128  -19.0503  -51.1063 C.3       23 UNK        -0.0398 
    125 S125        2.7656  -17.6641  -49.9439 S.3       23 UNK        -0.2404 
    126 C126        1.6042  -16.4102  -50.5730 C.3       23 UNK        -0.0205 
    127 H127       -6.2530  -11.3864  -51.5117 H         1 UNK         0.0600 
    128 H128       -5.5573  -10.1341  -50.4792 H         1 UNK         0.0600 
    129 H129       -5.7649   -9.8393  -52.2090 H         1 UNK         0.0600 
    130 H130       -4.8005  -13.0241  -51.9640 H         1 UNK         0.3000 
    131 H131       -2.1041  -12.4913  -52.8476 H         1 UNK         0.0600 
    132 H132       -1.9740  -14.9572  -53.1618 H         1 UNK         0.0800 
    133 H133       -3.3110  -14.2233  -53.9805 H         1 UNK         0.0800 
    134 H134       -2.6834  -17.3600  -53.0869 H         1 UNK         0.0800 
    135 H135       -3.8439  -17.9928  -51.9552 H         1 UNK         0.0800 
    136 H136       -0.4681  -16.7225  -52.3212 H         1 UNK         0.1150 
    137 H137        0.4528  -16.8174  -48.1402 H         1 UNK         0.1150 
    138 H138       -3.5513  -17.5258  -49.4607 H         1 UNK         0.1150 
    139 H139       -1.8852  -16.3929  -46.7056 H         1 UNK         0.0800 
    140 H140       -3.1133  -17.5527  -47.1243 H         1 UNK         0.0800 
    141 H141       -2.7127  -20.0925  -45.2750 H         1 UNK         0.0800 
    142 H142       -3.0290  -19.8884  -46.9825 H         1 UNK         0.0800 
    143 H143       -1.1172  -21.3035  -47.5809 H         1 UNK         0.0600 
    144 H144       -0.2269  -20.9516  -44.9182 H         1 UNK         0.3000 
    145 H145        1.9764  -23.6091  -44.6514 H         1 UNK         0.0600 
    146 H146        3.8803  -22.0531  -44.6302 H         1 UNK         0.0600 
    147 H147        3.3677  -22.3148  -46.2922 H         1 UNK         0.0600 
    148 H148        2.9391  -20.8237  -45.4665 H         1 UNK         0.0600 
    149 H149        1.7117  -20.9881  -43.3944 H         1 UNK         0.3000 
    150 H150       -0.6038  -21.0303  -41.6440 H         1 UNK         0.0600 
    151 H151       -1.0600  -23.0949  -40.4012 H         1 UNK         0.0600 
    152 H152       -0.3549  -21.9151  -39.3090 H         1 UNK         0.0600 
    153 H153        0.6239  -23.2471  -39.9243 H         1 UNK         0.0600 
    154 H154        1.1185  -19.7534  -41.1831 H         1 UNK         0.3000 
    155 H155        4.0732  -19.9802  -39.5193 H         1 UNK         0.0600 
    156 H156        5.1962  -20.7291  -41.5909 H         1 UNK         0.0600 
    157 H157        5.2978  -18.9794  -41.4710 H         1 UNK         0.0600 
    158 H158        4.1427  -19.7259  -42.5752 H         1 UNK         0.0600 
    159 H159        2.8840  -17.9997  -41.2962 H         1 UNK         0.3000 
    160 H160        0.5406  -16.7572  -38.9691 H         1 UNK         0.0600 
    161 H161        3.1742  -15.4700  -39.8662 H         1 UNK         0.0600 
    162 H162        1.7070  -14.5944  -39.4298 H         1 UNK         0.0600 
    163 H163        2.5577  -15.5463  -38.2231 H         1 UNK         0.0600 
    164 H164        1.5032  -16.0709  -41.6377 H         1 UNK         0.3000 
    165 H165       -0.8809  -18.0792  -43.3534 H         1 UNK         0.0600 
    166 H166       -1.6018  -15.8986  -44.3122 H         1 UNK         0.0600 
    167 H167       -2.2750  -16.1213  -42.7049 H         1 UNK         0.0600 
    168 H168       -0.9045  -15.0416  -42.9400 H         1 UNK         0.0600 
    169 H169        0.9555  -16.0582  -44.2244 H         1 UNK         0.3000 
    170 H170        3.8601  -18.0893  -44.3897 H         1 UNK         0.0600 
    171 H171        2.4565  -18.8596  -46.4241 H         1 UNK         0.0600 
    172 H172        2.1784  -17.1676  -46.7712 H         1 UNK         0.0600 
    173 H173        3.8153  -17.8144  -46.8045 H         1 UNK         0.0600 
    174 H174        3.3699  -15.5795  -45.5613 H         1 UNK         0.3000 
    175 H175        2.9811  -13.4300  -42.9032 H         1 UNK         0.0600 
    176 H176        5.6712  -13.7165  -44.3453 H         1 UNK         0.0600 
    177 H177        5.0758  -12.2680  -43.5324 H         1 UNK         0.0600 
    178 H178        5.4513  -13.7068  -42.5995 H         1 UNK         0.0600 
    179 H179        3.6778  -12.7454  -45.5129 H         1 UNK         0.3000 
    180 H180        1.4476  -11.7934  -46.6785 H         1 UNK         0.0600 
    181 H181        3.5155  -12.8084  -47.6418 H         1 UNK         0.0600 
    182 H182        2.6576  -14.3057  -47.9947 H         1 UNK         0.0600 
    183 H183        2.2619  -12.8272  -48.8644 H         1 UNK         0.0600 
    184 H184       -0.0998  -14.2250  -46.8337 H         1 UNK         0.3000 
    185 H185       -1.7205  -14.5496  -48.3985 H         1 UNK         0.0600 
    186 H186       -2.6747  -13.4361  -46.3624 H         1 UNK         0.0600 
    187 H187       -3.3527  -12.1694  -47.3786 H         1 UNK         0.0600 
    188 H188       -3.9189  -13.8338  -47.5349 H         1 UNK         0.0600 
    189 H189       -3.4792  -12.9486  -49.7798 H         1 UNK         0.3000 
    190 H190       -1.4325  -23.5202  -45.1094 H         1 UNK         0.3000 
    191 H191       -3.9099  -24.8099  -45.7951 H         1 UNK         0.0600 
    192 H192       -2.8149  -26.7883  -44.7221 H         1 UNK         0.0600 
    193 H193       -2.6506  -25.3522  -43.7225 H         1 UNK         0.0600 
    194 H194       -1.2807  -25.9258  -44.6709 H         1 UNK         0.0600 
    195 H195       -0.6063  -24.8145  -47.1953 H         1 UNK         0.3000 
    196 H196       -1.1891  -26.8598  -49.1874 H         1 UNK         0.0600 
    197 H197        1.0398  -26.2192  -50.0760 H         1 UNK         0.0600 
    198 H198        1.1148  -26.5150  -48.3462 H         1 UNK         0.0600 
    199 H199        1.1248  -24.8654  -48.9598 H         1 UNK         0.0600 
    200 H200       -1.7681  -23.4608  -48.8864 H         1 UNK         0.3000 
    201 H201       -2.3465  -22.9970  -51.7419 H         1 UNK         0.0600 
    202 H202       -1.3878  -21.1547  -50.2636 H         1 UNK         0.0600 
    203 H203       -2.8829  -21.1637  -49.3446 H         1 UNK         0.0600 
    204 H204       -2.8987  -20.7318  -51.0321 H         1 UNK         0.0600 
    205 H205       -3.8175  -24.8040  -49.4298 H         1 UNK         0.3000 
    206 H206       -5.8187  -25.6012  -48.9734 H         1 UNK         0.0600 
    207 H207       -5.8182  -26.2273  -51.3523 H         1 UNK         0.0600 
    208 H208       -7.4521  -25.8194  -50.8581 H         1 UNK         0.0600 
    209 H209       -6.5104  -24.6779  -51.8110 H         1 UNK         0.0600 
    210 H210       -5.3211  -23.1981  -47.8244 H         1 UNK         0.3000 
    211 H211       -6.1814  -21.5739  -46.6179 H         1 UNK         0.0600 
    212 H212       -8.9868  -22.6227  -47.2658 H         1 UNK         0.0600 
    213 H213       -8.5473  -21.5311  -45.9625 H         1 UNK         0.0600 
    214 H214       -7.9687  -23.1891  -45.9424 H         1 UNK         0.0600 
    215 H215       -5.2731  -20.9591  -49.0019 H         1 UNK         0.3000 
    216 H216       -4.9614  -19.2862  -50.3782 H         1 UNK         0.0600 
    217 H217       -5.9121  -17.0740  -49.9660 H         1 UNK         0.0600 
    218 H218       -5.6176  -17.8231  -48.4030 H         1 UNK         0.0600 
    219 H219       -7.2521  -17.7431  -49.0523 H         1 UNK         0.0600 
    220 H220       -6.8601  -21.4385  -51.0784 H         1 UNK         0.3000 
    221 H221       -8.6763  -20.2084  -53.0598 H         1 UNK         0.0600 
    222 H222       -8.0942  -23.1381  -52.3995 H         1 UNK         0.0600 
    223 H223       -9.4425  -22.1941  -51.7750 H         1 UNK         0.0600 
    224 H224       -9.3416  -22.5546  -53.4930 H         1 UNK         0.0600 
    225 H225       -5.4984  -21.7457  -52.8558 H         1 UNK         0.3000 
    226 H226       -5.1066  -21.5432  -55.8178 H         1 UNK         0.0600 
    227 H227       -4.9423  -23.8786  -54.9054 H         1 UNK         0.0600 
    228 H228       -3.3823  -23.3081  -55.4736 H         1 UNK         0.0600 
    229 H229       -3.7258  -23.3501  -53.7487 H         1 UNK         0.0600 
    230 H230       -2.9225  -20.9088  -56.4409 H         1 UNK         0.3000 
    231 H231       -1.9523  -18.6223  -54.9081 H         1 UNK         0.0600 
    232 H232       -1.1121  -19.7584  -57.6242 H         1 UNK         0.0600 
    233 H233       -2.3322  -18.5105  -57.3674 H         1 UNK         0.0600 
    234 H234       -0.6538  -18.1894  -56.9730 H         1 UNK         0.0600 
    235 H235       -1.2849  -21.7817  -54.4679 H         1 UNK         0.3000 
    236 H236        1.4855  -22.0777  -54.7920 H         1 UNK         0.0600 
    237 H237       -0.4438  -23.5889  -52.9588 H         1 UNK         0.0600 
    238 H238       -0.1043  -23.9678  -54.6459 H         1 UNK         0.0600 
    239 H239        1.1519  -24.1493  -53.4329 H         1 UNK         0.0600 
    240 H240       -0.1502  -20.4525  -52.1892 H         1 UNK         0.3000 
    241 H241        0.5141  -19.4017  -50.3897 H         1 UNK         0.0600 
    242 H242        1.1833  -22.7098  -48.6462 H         1 UNK         0.3800 
    243 H243        0.4779  -22.4744  -50.2362 H         1 UNK         0.3800 
    244 H244        2.3467  -18.6203  -52.0952 H         1 UNK         0.0800 
    245 H245        3.4479  -19.6067  -51.1828 H         1 UNK         0.0800 
    246 H246        1.8340  -15.4510  -50.1077 H         1 UNK         0.0800 
    247 H247        1.7590  -16.2736  -51.6442 H         1 UNK         0.0800 
@<TRIPOS>BOND
     1    1    2 1    
     2    1  127 1    
     3    1  128 1    
     4    1  129 1    
     5    2    3 2    
     6    2    4 am   BACKBONE|DICT|INTERRES
     7    4    5 1    
     8    4  130 1    
     9    5    6 1    
    10    5   65 1    
    11    5  131 1    
    12    6    7 1    
    13    6  132 1    
    14    6  133 1    
    15    7    8 1    
    16    8    9 1    
    17    8  134 1    
    18    8  135 1    
    19    9   10 ar   
    20    9   14 ar   
    21   10   11 ar   
    22   10  136 1    
    23   11   12 ar   
    24   11  126 1    
    25   12   13 ar   
    26   12  137 1    
    27   13   14 ar   
    28   13   15 1    
    29   14  138 1    
    30   15   16 1    
    31   15  139 1    
    32   15  140 1    
    33   16   17 1    
    34   17   18 1    
    35   17  141 1    
    36   17  142 1    
    37   18   19 1    
    38   18   67 1    
    39   18  143 1    
    40   19   20 am   BACKBONE|DICT|INTERRES
    41   19  144 1    
    42   20   21 2    
    43   20   22 1    
    44   22   23 1    
    45   22   24 1    
    46   22  145 1    
    47   23  146 1    
    48   23  147 1    
    49   23  148 1    
    50   24   25 am   BACKBONE|DICT|INTERRES
    51   24  149 1    
    52   25   26 2    
    53   25   27 1    
    54   27   28 1    
    55   27   29 1    
    56   27  150 1    
    57   28  151 1    
    58   28  152 1    
    59   28  153 1    
    60   29   30 am   BACKBONE|DICT|INTERRES
    61   29  154 1    
    62   30   31 2    
    63   30   32 1    
    64   32   33 1    
    65   32   34 1    
    66   32  155 1    
    67   33  156 1    
    68   33  157 1    
    69   33  158 1    
    70   34   35 am   BACKBONE|DICT|INTERRES
    71   34  159 1    
    72   35   36 2    
    73   35   37 1    
    74   37   38 1    
    75   37   39 1    
    76   37  160 1    
    77   38  161 1    
    78   38  162 1    
    79   38  163 1    
    80   39   40 am   BACKBONE|DICT|INTERRES
    81   39  164 1    
    82   40   41 2    
    83   40   42 1    
    84   42   43 1    
    85   42   44 1    
    86   42  165 1    
    87   43  166 1    
    88   43  167 1    
    89   43  168 1    
    90   44   45 am   BACKBONE|DICT|INTERRES
    91   44  169 1    
    92   45   46 2    
    93   45   47 1    
    94   47   48 1    
    95   47   49 1    
    96   47  170 1    
    97   48  171 1    
    98   48  172 1    
    99   48  173 1    
   100   49   50 am   BACKBONE|DICT|INTERRES
   101   49  174 1    
   102   50   51 2    
   103   50   52 1    
   104   52   53 1    
   105   52   54 1    
   106   52  175 1    
   107   53  176 1    
   108   53  177 1    
   109   53  178 1    
   110   54   55 am   BACKBONE|DICT|INTERRES
   111   54  179 1    
   112   55   56 2    
   113   55   57 1    
   114   57   58 1    
   115   57   59 1    
   116   57  180 1    
   117   58  181 1    
   118   58  182 1    
   119   58  183 1    
   120   59   60 am   BACKBONE|DICT|INTERRES
   121   59  184 1    
   122   60   61 2    
   123   60   62 1    
   124   62   63 1    
   125   62   64 1    
   126   62  185 1    
   127   63  186 1    
   128   63  187 1    
   129   63  188 1    
   130   64   65 am   BACKBONE|DICT|INTERRES
   131   64  189 1    
   132   65   66 2    
   133   67   68 2    
   134   67   69 am   BACKBONE|DICT|INTERRES
   135   69   70 1    
   136   69  190 1    
   137   70   71 1    
   138   70   72 1    
   139   70  191 1    
   140   71  192 1    
   141   71  193 1    
   142   71  194 1    
   143   72   73 2    
   144   72   74 am   BACKBONE|DICT|INTERRES
   145   74   75 1    
   146   74  195 1    
   147   75   76 1    
   148   75   77 1    
   149   75  196 1    
   150   76  197 1    
   151   76  198 1    
   152   76  199 1    
   153   77   78 2    
   154   77   79 am   BACKBONE|DICT|INTERRES
   155   79   80 1    
   156   79  200 1    
   157   80   81 1    
   158   80   82 1    
   159   80  201 1    
   160   81  202 1    
   161   81  203 1    
   162   81  204 1    
   163   82   83 2    
   164   82   84 am   BACKBONE|DICT|INTERRES
   165   84   85 1    
   166   84  205 1    
   167   85   86 1    
   168   85   87 1    
   169   85  206 1    
   170   86  207 1    
   171   86  208 1    
   172   86  209 1    
   173   87   88 2    
   174   87   89 am   BACKBONE|DICT|INTERRES
   175   89   90 1    
   176   89  210 1    
   177   90   91 1    
   178   90   92 1    
   179   90  211 1    
   180   91  212 1    
   181   91  213 1    
   182   91  214 1    
   183   92   93 2    
   184   92   94 am   BACKBONE|DICT|INTERRES
   185   94   95 1    
   186   94  215 1    
   187   95   96 1    
   188   95   97 1    
   189   95  216 1    
   190   96  217 1    
   191   96  218 1    
   192   96  219 1    
   193   97   98 2    
   194   97   99 am   BACKBONE|DICT|INTERRES
   195   99  100 1    
   196   99  220 1    
   197  100  101 1    
   198  100  102 1    
   199  100  221 1    
   200  101  222 1    
   201  101  223 1    
   202  101  224 1    
   203  102  103 2    
   204  102  104 am   BACKBONE|DICT|INTERRES
   205  104  105 1    
   206  104  225 1    
   207  105  106 1    
   208  105  107 1    
   209  105  226 1    
   210  106  227 1    
   211  106  228 1    
   212  106  229 1    
   213  107  108 2    
   214  107  109 am   BACKBONE|DICT|INTERRES
   215  109  110 1    
   216  109  230 1    
   217  110  111 1    
   218  110  112 1    
   219  110  231 1    
   220  111  232 1    
   221  111  233 1    
   222  111  234 1    
   223  112  113 2    
   224  112  114 am   BACKBONE|DICT|INTERRES
   225  114  115 1    
   226  114  235 1    
   227  115  116 1    
   228  115  117 1    
   229  115  236 1    
   230  116  237 1    
   231  116  238 1    
   232  116  239 1    
   233  117  118 2    
   234  117  119 am   BACKBONE|DICT|INTERRES
   235  119  120 1    
   236  119  240 1    
   237  120  121 1    
   238  120  124 1    
   239  120  241 1    
   240  121  122 am   BACKBONE|DICT|INTERRES
   241  121  123 2    
   242  122  242 1    
   243  122  243 1    
   244  124  125 1    
   245  124  244 1    
   246  124  245 1    
   247  125  126 1    
   248  126  246 1    
   249  126  247 1    
@<TRIPOS>SUBSTRUCTURE
     1 UNK         1 GROUP             0       ****    0 ROOT    
