@<TRIPOS>MOLECULE
3R540
247   249    1
SMALL
USER_CHARGES


@<TRIPOS>ATOM
      1 CA         -3.1089  -11.1579  -48.4659 C.3       0 UNK        -0.1800 
      2 C          -2.2635  -12.4216  -48.5329 C.2       0 UNK         0.5000 
      3 O          -2.8209  -13.5180  -48.5675 O.2       0 UNK        -0.5000 
      4 N          -0.9319  -12.2559  -48.5334 N.am      1 UNK        -0.5000 
      5 CA          0.1676  -13.2394  -48.5914 C.3       1 UNK         0.1400 
      6 C6          0.5245  -13.7927  -50.0054 C.3       23 UNK        -0.0398 
      7 S7         -0.8389  -14.2545  -51.1316 S.3       23 UNK        -0.2404 
      8 C8         -1.2928  -15.9338  -50.5972 C.3       23 UNK        -0.0205 
      9 C9         -0.1719  -16.9478  -50.7699 C.ar      23 UNK        -0.0193 
     10 C10         0.1254  -17.4563  -52.0374 C.ar      23 UNK        -0.1150 
     11 C11         1.1194  -18.4259  -52.1946 C.ar      23 UNK        -0.0193 
     12 C12         1.8211  -18.8831  -51.0765 C.ar      23 UNK        -0.1150 
     13 C13         1.5206  -18.3969  -49.8023 C.ar      23 UNK        -0.0193 
     14 C14         0.5303  -17.4215  -49.6568 C.ar      23 UNK        -0.1150 
     15 C15         2.2373  -18.9556  -48.5800 C.3       23 UNK        -0.0205 
     16 S16         1.8645  -20.7212  -48.3102 S.3       23 UNK        -0.2404 
     17 C17         0.0412  -20.6884  -48.2819 C.3       23 UNK        -0.0398 
     18 CA         -0.5844  -21.8571  -47.4895 C.3       11 UNK         0.1400 
     19 N          -0.1298  -21.9035  -46.0970 N.am      11 UNK        -0.5000 
     20 C          -0.3068  -22.9507  -45.2775 C.2       10 UNK         0.5000 
     21 O          -0.8573  -23.9943  -45.6242 O.2       10 UNK        -0.5000 
     22 CA          0.1485  -22.7930  -43.8122 C.3       10 UNK         0.1400 
     23 CB          1.5978  -23.2714  -43.6491 C.3       10 UNK        -0.1800 
     24 N           0.0331  -21.4210  -43.3173 N.am      10 UNK        -0.5000 
     25 C          -1.1068  -20.7136  -43.2781 C.2       9 UNK         0.5000 
     26 O          -2.2075  -21.1953  -43.5477 O.2       9 UNK        -0.5000 
     27 CA         -1.0000  -19.2066  -42.9638 C.3       9 UNK         0.1400 
     28 CB         -1.4218  -18.9231  -41.5156 C.3       9 UNK        -0.1800 
     29 N           0.3332  -18.6419  -43.1930 N.am      9 UNK        -0.5000 
     30 C           1.0023  -18.6542  -44.3555 C.2       8 UNK         0.5000 
     31 O           0.5203  -19.0664  -45.4097 O.2       8 UNK        -0.5000 
     32 CA          2.4723  -18.1960  -44.3216 C.3       8 UNK         0.1400 
     33 CB          2.6234  -16.7934  -44.9222 C.3       8 UNK        -0.1800 
     34 N           3.0387  -18.2023  -42.9716 N.am      8 UNK        -0.5000 
     35 C           3.3343  -19.3014  -42.2643 C.2       7 UNK         0.5000 
     36 O           3.1517  -20.4435  -42.6886 O.2       7 UNK        -0.5000 
     37 CA          3.8843  -19.0769  -40.8384 C.3       7 UNK         0.1400 
     38 CB          4.6192  -20.3117  -40.2769 C.3       7 UNK        -0.1800 
     39 N           4.7155  -17.8726  -40.7198 N.am      7 UNK        -0.5000 
     40 C           5.8620  -17.6025  -41.3610 C.2       6 UNK         0.5000 
     41 O           6.4083  -18.3778  -42.1478 O.2       6 UNK        -0.5000 
     42 CA          6.4728  -16.2093  -41.0935 C.3       6 UNK         0.1400 
     43 CB          7.7824  -15.9733  -41.8680 C.3       6 UNK        -0.1800 
     44 N           5.5310  -15.1399  -41.4316 N.am      6 UNK        -0.5000 
     45 C           4.5147  -14.7246  -40.6653 C.2       5 UNK         0.5000 
     46 O           4.2923  -15.1814  -39.5409 O.2       5 UNK        -0.5000 
     47 CA          3.5824  -13.6372  -41.2465 C.3       5 UNK         0.1400 
     48 CB          3.7007  -13.4631  -42.7777 C.3       5 UNK        -0.1800 
     49 N           2.1795  -13.8465  -40.8744 N.am      5 UNK        -0.5000 
     50 C           1.4304  -14.9329  -41.1120 C.2       4 UNK         0.5000 
     51 O           1.8396  -15.9436  -41.6851 O.2       4 UNK        -0.5000 
     52 CA         -0.0342  -14.8918  -40.6401 C.3       4 UNK         0.1400 
     53 CB         -0.2626  -14.0384  -39.3727 C.3       4 UNK        -0.1800 
     54 N          -0.9340  -14.4959  -41.7263 N.am      4 UNK        -0.5000 
     55 C          -0.9864  -13.3225  -42.3717 C.2       3 UNK         0.5000 
     56 O          -0.2690  -12.3555  -42.1089 O.2       3 UNK        -0.5000 
     57 CA         -2.0157  -13.2322  -43.5185 C.3       3 UNK         0.1400 
     58 CB         -2.2750  -11.7834  -43.9703 C.3       3 UNK        -0.1800 
     59 N          -1.6031  -14.0097  -44.6856 N.am      3 UNK        -0.5000 
     60 C          -1.6067  -15.3449  -44.7913 C.2       2 UNK         0.5000 
     61 O          -1.9811  -16.0889  -43.8842 O.2       2 UNK        -0.5000 
     62 CA         -1.1350  -15.9477  -46.1305 C.3       2 UNK         0.1400 
     63 CB         -2.1150  -17.0176  -46.6405 C.3       2 UNK        -0.1800 
     64 N          -0.9624  -14.9267  -47.1674 N.am      2 UNK        -0.5000 
     65 C           0.1878  -14.3325  -47.4973 C.2       1 UNK         0.5000 
     66 O           1.2573  -14.5976  -46.9518 O.2       1 UNK        -0.5000 
     67 C          -2.1214  -21.7859  -47.5900 C.2       11 UNK         0.5000 
     68 O          -2.6872  -22.3086  -48.5509 O.2       11 UNK        -0.5000 
     69 N          -2.7734  -21.1461  -46.6082 N.am      12 UNK        -0.5000 
     70 CA         -4.2306  -21.0919  -46.4953 C.3       12 UNK         0.1400 
     71 CB         -4.6531  -19.8820  -45.6495 C.3       12 UNK        -0.1800 
     72 C          -4.7963  -22.4012  -45.9244 C.2       12 UNK         0.5000 
     73 O          -5.8245  -22.8700  -46.4097 O.2       12 UNK        -0.5000 
     74 N          -4.0916  -23.0004  -44.9527 N.am      13 UNK        -0.5000 
     75 CA         -4.4150  -24.3093  -44.3755 C.3       13 UNK         0.1400 
     76 CB         -3.5021  -24.5801  -43.1708 C.3       13 UNK        -0.1800 
     77 C          -4.3199  -25.4547  -45.4039 C.2       13 UNK         0.5000 
     78 O          -5.1727  -26.3426  -45.4091 O.2       13 UNK        -0.5000 
     79 N          -3.3130  -25.3844  -46.2861 N.am      14 UNK        -0.5000 
     80 CA         -3.1277  -26.2774  -47.4333 C.3       14 UNK         0.1400 
     81 CB         -1.6725  -26.1590  -47.9149 C.3       14 UNK        -0.1800 
     82 C          -4.0955  -25.9916  -48.6019 C.2       14 UNK         0.5000 
     83 O          -4.1475  -26.7834  -49.5429 O.2       14 UNK        -0.5000 
     84 N          -4.8118  -24.8590  -48.5380 N.am      15 UNK        -0.5000 
     85 CA         -5.7557  -24.3132  -49.5199 C.3       15 UNK         0.1400 
     86 CB         -6.9264  -25.2820  -49.7803 C.3       15 UNK        -0.1800 
     87 C          -5.1065  -23.8168  -50.8281 C.2       15 UNK         0.5000 
     88 O          -5.8290  -23.4234  -51.7441 O.2       15 UNK        -0.5000 
     89 N          -3.7688  -23.7793  -50.8860 N.am      16 UNK        -0.5000 
     90 CA         -2.9873  -23.2754  -52.0148 C.3       16 UNK         0.1400 
     91 CB         -1.5014  -23.5948  -51.7924 C.3       16 UNK        -0.1800 
     92 C          -3.1934  -21.7683  -52.2307 C.2       16 UNK         0.5000 
     93 O          -3.3868  -21.3399  -53.3682 O.2       16 UNK        -0.5000 
     94 N          -3.2054  -21.0072  -51.1274 N.am      17 UNK        -0.5000 
     95 CA         -3.4942  -19.5727  -51.1214 C.3       17 UNK         0.1400 
     96 CB         -3.0406  -18.9625  -49.7879 C.3       17 UNK        -0.1800 
     97 C          -4.9849  -19.2729  -51.3554 C.2       17 UNK         0.5000 
     98 O          -5.3073  -18.2560  -51.9680 O.2       17 UNK        -0.5000 
     99 N          -5.8617  -20.1634  -50.8683 N.am      18 UNK        -0.5000 
    100 CA        -7.3165  -20.0490  -50.9853 C.3       18 UNK         0.1400 
    101 CB        -7.9916  -21.0366  -50.0206 C.3       18 UNK        -0.1800 
    102 C         -7.7996  -20.2690  -52.4291 C.2       18 UNK         0.5000 
    103 O         -8.6172  -19.4926  -52.9241 O.2       18 UNK        -0.5000 
    104 N         -7.2589  -21.3037  -53.0868 N.am      19 UNK        -0.5000 
    105 CA        -7.4963  -21.6005  -54.5002 C.3       19 UNK         0.1400 
    106 CB        -7.1233  -23.0680  -54.7637 C.3       19 UNK        -0.1800 
    107 C         -6.7042  -20.6775  -55.4468 C.2       19 UNK         0.5000 
    108 O         -7.0565  -20.5793  -56.6227 O.2       19 UNK        -0.5000 
    109 N         -5.6357  -20.0548  -54.9246 N.am      20 UNK        -0.5000 
    110 CA        -4.6143  -19.2734  -55.6314 C.3       20 UNK         0.1400 
    111 CB        -5.2140  -17.9894  -56.2396 C.3       20 UNK        -0.1800 
    112 C         -3.8340  -20.1273  -56.6544 C.2       20 UNK         0.5000 
    113 O         -3.4116  -19.6235  -57.6968 O.2       20 UNK        -0.5000 
    114 N         -3.6524  -21.4150  -56.3280 N.am      21 UNK        -0.5000 
    115 CA        -3.0371  -22.4387  -57.1752 C.3       21 UNK         0.1400 
    116 CB        -3.2153  -23.8090  -56.5036 C.3       21 UNK        -0.1800 
    117 C         -1.5517  -22.1690  -57.4730 C.2       21 UNK         0.5000 
    118 O         -1.0708  -22.5138  -58.5530 O.2       21 UNK        -0.5000 
    119 N         -0.8695  -21.5359  -56.5145 N.am      22 UNK        -0.5000 
    120 CA         0.5103  -21.0465  -56.6235 C.3       22 UNK         0.1400 
    121 C          0.6321  -19.6019  -57.1965 C.2       22 UNK         0.5000 
    122 N         -0.4465  -18.9449  -57.6097 N.am      22 UNK        -0.7600 
    123 O          1.7341  -19.0679  -57.2876 O.2       22 UNK        -0.5000 
    124 C124        1.2759  -21.2324  -55.2879 C.3       23 UNK        -0.0398 
    125 S125        0.4353  -20.5179  -53.8309 S.3       23 UNK        -0.2404 
    126 C126        1.4176  -19.0123  -53.5621 C.3       23 UNK        -0.0205 
    127 H127       -2.4949  -10.2574  -48.4401 H         1 UNK         0.0600 
    128 H128       -3.7312  -11.1711  -47.5711 H         1 UNK         0.0600 
    129 H129       -3.7624  -11.0989  -49.3362 H         1 UNK         0.0600 
    130 H130       -0.6009  -11.3024  -48.4858 H         1 UNK         0.3000 
    131 H131        1.0263  -12.6222  -48.3200 H         1 UNK         0.0600 
    132 H132        1.0743  -13.0135  -50.5345 H         1 UNK         0.0800 
    133 H133        1.2329  -14.6201  -49.9400 H         1 UNK         0.0800 
    134 H134       -2.1520  -16.2547  -51.1876 H         1 UNK         0.0800 
    135 H135       -1.6393  -15.9081  -49.5656 H         1 UNK         0.0800 
    136 H136       -0.4285  -17.1088  -52.8982 H         1 UNK         0.1150 
    137 H137        2.5773  -19.6470  -51.1920 H         1 UNK         0.1150 
    138 H138        0.2923  -17.0493  -48.6717 H         1 UNK         0.1150 
    139 H139        1.9619  -18.3985  -47.6843 H         1 UNK         0.0800 
    140 H140        3.3137  -18.8312  -48.7033 H         1 UNK         0.0800 
    141 H141       -0.2958  -20.7119  -49.3202 H         1 UNK         0.0800 
    142 H142       -0.2886  -19.7330  -47.8697 H         1 UNK         0.0800 
    143 H143       -0.2760  -22.7881  -47.9702 H         1 UNK         0.0600 
    144 H144        0.3041  -21.0561  -45.7453 H         1 UNK         0.3000 
    145 H145       -0.4912  -23.4227  -43.1922 H         1 UNK         0.0600 
    146 H146        1.7062  -24.3075  -43.9725 H         1 UNK         0.0600 
    147 H147        1.9164  -23.2203  -42.6078 H         1 UNK         0.0600 
    148 H148        2.2884  -22.6682  -44.2401 H         1 UNK         0.0600 
    149 H149        0.9015  -20.9546  -43.0887 H         1 UNK         0.3000 
    150 H150       -1.6965  -18.6972  -43.6310 H         1 UNK         0.0600 
    151 H151       -0.7255  -19.3611  -40.7995 H         1 UNK         0.0600 
    152 H152       -2.4107  -19.3342  -41.3083 H         1 UNK         0.0600 
    153 H153       -1.4737  -17.8512  -41.3265 H         1 UNK         0.0600 
    154 H154        0.8028  -18.2462  -42.3912 H         1 UNK         0.3000 
    155 H155        3.0473  -18.8932  -44.9346 H         1 UNK         0.0600 
    156 H156        3.6571  -16.4507  -44.8776 H         1 UNK         0.0600 
    157 H157        2.0010  -16.0613  -44.4064 H         1 UNK         0.0600 
    158 H158        2.3296  -16.7917  -45.9711 H         1 UNK         0.0600 
    159 H159        3.0994  -17.3005  -42.5110 H         1 UNK         0.3000 
    160 H160        3.0114  -18.9018  -40.2081 H         1 UNK         0.0600 
    161 H161        5.4719  -20.5925  -40.8955 H         1 UNK         0.0600 
    162 H162        3.9539  -21.1746  -40.2287 H         1 UNK         0.0600 
    163 H163        4.9832  -20.1282  -39.2660 H         1 UNK         0.0600 
    164 H164        4.3459  -17.1384  -40.1237 H         1 UNK         0.3000 
    165 H165        6.7058  -16.1576  -40.0278 H         1 UNK         0.0600 
    166 H166        8.5273  -16.7296  -41.6172 H         1 UNK         0.0600 
    167 H167        7.6258  -16.0096  -42.9468 H         1 UNK         0.0600 
    168 H168        8.2144  -15.0025  -41.6245 H         1 UNK         0.0600 
    169 H169        5.6294  -14.7382  -42.3527 H         1 UNK         0.3000 
    170 H170        3.8847  -12.6985  -40.7808 H         1 UNK         0.0600 
    171 H171        2.9919  -12.7182  -43.1403 H         1 UNK         0.0600 
    172 H172        3.4992  -14.3926  -43.3100 H         1 UNK         0.0600 
    173 H173        4.6948  -13.1195  -43.0657 H         1 UNK         0.0600 
    174 H174        1.7341  -13.0713  -40.4047 H         1 UNK         0.3000 
    175 H175       -0.2977  -15.9187  -40.3841 H         1 UNK         0.0600 
    176 H176        0.3993  -14.3564  -38.5661 H         1 UNK         0.0600 
    177 H177       -0.0884  -12.9757  -39.5405 H         1 UNK         0.0600 
    178 H178       -1.2851  -14.1491  -39.0115 H         1 UNK         0.0600 
    179 H179       -1.4961  -15.2450  -42.1187 H         1 UNK         0.3000 
    180 H180       -2.9594  -13.6370  -43.1466 H         1 UNK         0.0600 
    181 H181       -1.3797  -11.3242  -44.3916 H         1 UNK         0.0600 
    182 H182       -2.5990  -11.1650  -43.1322 H         1 UNK         0.0600 
    183 H183       -3.0597  -11.7407  -44.7261 H         1 UNK         0.0600 
    184 H184       -1.2606  -13.4828  -45.4744 H         1 UNK         0.3000 
    185 H185       -0.1806  -16.4381  -45.9389 H         1 UNK         0.0600 
    186 H186       -2.2202  -17.8257  -45.9163 H         1 UNK         0.0600 
    187 H187       -3.1064  -16.6025  -46.8246 H         1 UNK         0.0600 
    188 H188       -1.7619  -17.4695  -47.5658 H         1 UNK         0.0600 
    189 H189       -1.8044  -14.6025  -47.6443 H         1 UNK         0.3000 
    190 H190       -2.2443  -20.7793  -45.8294 H         1 UNK         0.3000 
    191 H191       -4.6586  -20.9619  -47.4915 H         1 UNK         0.0600 
    192 H192       -4.3471  -18.9490  -46.1212 H         1 UNK         0.0600 
    193 H193       -5.7376  -19.8448  -45.5394 H         1 UNK         0.0600 
    194 H194       -4.2243  -19.9104  -44.6480 H         1 UNK         0.0600 
    195 H195       -3.2892  -22.5136  -44.5658 H         1 UNK         0.3000 
    196 H196       -5.4458  -24.2667  -44.0177 H         1 UNK         0.0600 
    197 H197       -3.7945  -25.4992  -42.6617 H         1 UNK         0.0600 
    198 H198       -3.5561  -23.7714  -42.4416 H         1 UNK         0.0600 
    199 H199       -2.4613  -24.6927  -43.4725 H         1 UNK         0.0600 
    200 H200       -2.5980  -24.6751  -46.1506 H         1 UNK         0.3000 
    201 H201       -3.3003  -27.3050  -47.1071 H         1 UNK         0.0600 
    202 H202       -1.4759  -26.8348  -48.7482 H         1 UNK         0.0600 
    203 H203       -0.9723  -26.4148  -47.1194 H         1 UNK         0.0600 
    204 H204       -1.4423  -25.1469  -48.2505 H         1 UNK         0.0600 
    205 H205       -4.6987  -24.2908  -47.7087 H         1 UNK         0.3000 
    206 H206       -6.1744  -23.4234  -49.0495 H         1 UNK         0.0600 
    207 H207       -7.3857  -25.6046  -48.8459 H         1 UNK         0.0600 
    208 H208       -7.7053  -24.8027  -50.3744 H         1 UNK         0.0600 
    209 H209       -6.6066  -26.1711  -50.3239 H         1 UNK         0.0600 
    210 H210       -3.2548  -24.0310  -50.0537 H         1 UNK         0.3000 
    211 H211       -3.3212  -23.7929  -52.9165 H         1 UNK         0.0600 
    212 H212       -1.3389  -24.6688  -51.7008 H         1 UNK         0.0600 
    213 H213       -0.8980  -23.2447  -52.6312 H         1 UNK         0.0600 
    214 H214       -1.1156  -23.1192  -50.8896 H         1 UNK         0.0600 
    215 H215       -3.0456  -21.4568  -50.2302 H         1 UNK         0.3000 
    216 H216       -2.9253  -19.0993  -51.9251 H         1 UNK         0.0600 
    217 H217       -3.5244  -19.4399  -48.9373 H         1 UNK         0.0600 
    218 H218       -3.2848  -17.9012  -49.7393 H         1 UNK         0.0600 
    219 H219       -1.9636  -19.0529  -49.6621 H         1 UNK         0.0600 
    220 H220       -5.5027  -20.9836  -50.4060 H         1 UNK         0.3000 
    221 H221       -7.6007  -19.0378  -50.6861 H         1 UNK         0.0600 
    222 H222       -7.7960  -22.0726  -50.2965 H         1 UNK         0.0600 
    223 H223       -7.6490  -20.8893  -48.9961 H         1 UNK         0.0600 
    224 H224       -9.0737  -20.9002  -50.0239 H         1 UNK         0.0600 
    225 H225       -6.6392  -21.9403  -52.5909 H         1 UNK         0.3000 
    226 H226       -8.5588  -21.4708  -54.7166 H         1 UNK         0.0600 
    227 H227       -7.7053  -23.7418  -54.1346 H         1 UNK         0.0600 
    228 H228       -7.3165  -23.3426  -55.8015 H         1 UNK         0.0600 
    229 H229       -6.0671  -23.2554  -54.5650 H         1 UNK         0.0600 
    230 H230       -5.4295  -20.2388  -53.9526 H         1 UNK         0.3000 
    231 H231       -3.8889  -18.9702  -54.8751 H         1 UNK         0.0600 
    232 H232       -5.8967  -18.2076  -57.0610 H         1 UNK         0.0600 
    233 H233       -4.4296  -17.3411  -56.6317 H         1 UNK         0.0600 
    234 H234       -5.7612  -17.4183  -55.4895 H         1 UNK         0.0600 
    235 H235       -3.9444  -21.7026  -55.4019 H         1 UNK         0.3000 
    236 H236       -3.5697  -22.4484  -58.1282 H         1 UNK         0.0600 
    237 H237       -2.7293  -23.8444  -55.5276 H         1 UNK         0.0600 
    238 H238       -4.2702  -24.0448  -56.3621 H         1 UNK         0.0600 
    239 H239       -2.7846  -24.6031  -57.1149 H         1 UNK         0.0600 
    240 H240       -1.3533  -21.2859  -55.6633 H         1 UNK         0.3000 
    241 H241        1.0280  -21.6690  -57.3555 H         1 UNK         0.0600 
    242 H242       -1.3675  -19.3658  -57.5878 H         1 UNK         0.3800 
    243 H243       -0.3382  -18.0161  -57.9848 H         1 UNK         0.3800 
    244 H244        1.3877  -22.3001  -55.0954 H         1 UNK         0.0800 
    245 H245        2.2955  -20.8512  -55.3636 H         1 UNK         0.0800 
    246 H246        2.4816  -19.2420  -53.6360 H         1 UNK         0.0800 
    247 H247        1.1992  -18.2870  -54.3474 H         1 UNK         0.0800 
@<TRIPOS>BOND
     1    1    2 1    
     2    1  127 1    
     3    1  128 1    
     4    1  129 1    
     5    2    3 2    
     6    2    4 am   BACKBONE|DICT|INTERRES
     7    4    5 1    
     8    4  130 1    
     9    5    6 1    
    10    5   65 1    
    11    5  131 1    
    12    6    7 1    
    13    6  132 1    
    14    6  133 1    
    15    7    8 1    
    16    8    9 1    
    17    8  134 1    
    18    8  135 1    
    19    9   10 ar   
    20    9   14 ar   
    21   10   11 ar   
    22   10  136 1    
    23   11   12 ar   
    24   11  126 1    
    25   12   13 ar   
    26   12  137 1    
    27   13   14 ar   
    28   13   15 1    
    29   14  138 1    
    30   15   16 1    
    31   15  139 1    
    32   15  140 1    
    33   16   17 1    
    34   17   18 1    
    35   17  141 1    
    36   17  142 1    
    37   18   19 1    
    38   18   67 1    
    39   18  143 1    
    40   19   20 am   BACKBONE|DICT|INTERRES
    41   19  144 1    
    42   20   21 2    
    43   20   22 1    
    44   22   23 1    
    45   22   24 1    
    46   22  145 1    
    47   23  146 1    
    48   23  147 1    
    49   23  148 1    
    50   24   25 am   BACKBONE|DICT|INTERRES
    51   24  149 1    
    52   25   26 2    
    53   25   27 1    
    54   27   28 1    
    55   27   29 1    
    56   27  150 1    
    57   28  151 1    
    58   28  152 1    
    59   28  153 1    
    60   29   30 am   BACKBONE|DICT|INTERRES
    61   29  154 1    
    62   30   31 2    
    63   30   32 1    
    64   32   33 1    
    65   32   34 1    
    66   32  155 1    
    67   33  156 1    
    68   33  157 1    
    69   33  158 1    
    70   34   35 am   BACKBONE|DICT|INTERRES
    71   34  159 1    
    72   35   36 2    
    73   35   37 1    
    74   37   38 1    
    75   37   39 1    
    76   37  160 1    
    77   38  161 1    
    78   38  162 1    
    79   38  163 1    
    80   39   40 am   BACKBONE|DICT|INTERRES
    81   39  164 1    
    82   40   41 2    
    83   40   42 1    
    84   42   43 1    
    85   42   44 1    
    86   42  165 1    
    87   43  166 1    
    88   43  167 1    
    89   43  168 1    
    90   44   45 am   BACKBONE|DICT|INTERRES
    91   44  169 1    
    92   45   46 2    
    93   45   47 1    
    94   47   48 1    
    95   47   49 1    
    96   47  170 1    
    97   48  171 1    
    98   48  172 1    
    99   48  173 1    
   100   49   50 am   BACKBONE|DICT|INTERRES
   101   49  174 1    
   102   50   51 2    
   103   50   52 1    
   104   52   53 1    
   105   52   54 1    
   106   52  175 1    
   107   53  176 1    
   108   53  177 1    
   109   53  178 1    
   110   54   55 am   BACKBONE|DICT|INTERRES
   111   54  179 1    
   112   55   56 2    
   113   55   57 1    
   114   57   58 1    
   115   57   59 1    
   116   57  180 1    
   117   58  181 1    
   118   58  182 1    
   119   58  183 1    
   120   59   60 am   BACKBONE|DICT|INTERRES
   121   59  184 1    
   122   60   61 2    
   123   60   62 1    
   124   62   63 1    
   125   62   64 1    
   126   62  185 1    
   127   63  186 1    
   128   63  187 1    
   129   63  188 1    
   130   64   65 am   BACKBONE|DICT|INTERRES
   131   64  189 1    
   132   65   66 2    
   133   67   68 2    
   134   67   69 am   BACKBONE|DICT|INTERRES
   135   69   70 1    
   136   69  190 1    
   137   70   71 1    
   138   70   72 1    
   139   70  191 1    
   140   71  192 1    
   141   71  193 1    
   142   71  194 1    
   143   72   73 2    
   144   72   74 am   BACKBONE|DICT|INTERRES
   145   74   75 1    
   146   74  195 1    
   147   75   76 1    
   148   75   77 1    
   149   75  196 1    
   150   76  197 1    
   151   76  198 1    
   152   76  199 1    
   153   77   78 2    
   154   77   79 am   BACKBONE|DICT|INTERRES
   155   79   80 1    
   156   79  200 1    
   157   80   81 1    
   158   80   82 1    
   159   80  201 1    
   160   81  202 1    
   161   81  203 1    
   162   81  204 1    
   163   82   83 2    
   164   82   84 am   BACKBONE|DICT|INTERRES
   165   84   85 1    
   166   84  205 1    
   167   85   86 1    
   168   85   87 1    
   169   85  206 1    
   170   86  207 1    
   171   86  208 1    
   172   86  209 1    
   173   87   88 2    
   174   87   89 am   BACKBONE|DICT|INTERRES
   175   89   90 1    
   176   89  210 1    
   177   90   91 1    
   178   90   92 1    
   179   90  211 1    
   180   91  212 1    
   181   91  213 1    
   182   91  214 1    
   183   92   93 2    
   184   92   94 am   BACKBONE|DICT|INTERRES
   185   94   95 1    
   186   94  215 1    
   187   95   96 1    
   188   95   97 1    
   189   95  216 1    
   190   96  217 1    
   191   96  218 1    
   192   96  219 1    
   193   97   98 2    
   194   97   99 am   BACKBONE|DICT|INTERRES
   195   99  100 1    
   196   99  220 1    
   197  100  101 1    
   198  100  102 1    
   199  100  221 1    
   200  101  222 1    
   201  101  223 1    
   202  101  224 1    
   203  102  103 2    
   204  102  104 am   BACKBONE|DICT|INTERRES
   205  104  105 1    
   206  104  225 1    
   207  105  106 1    
   208  105  107 1    
   209  105  226 1    
   210  106  227 1    
   211  106  228 1    
   212  106  229 1    
   213  107  108 2    
   214  107  109 am   BACKBONE|DICT|INTERRES
   215  109  110 1    
   216  109  230 1    
   217  110  111 1    
   218  110  112 1    
   219  110  231 1    
   220  111  232 1    
   221  111  233 1    
   222  111  234 1    
   223  112  113 2    
   224  112  114 am   BACKBONE|DICT|INTERRES
   225  114  115 1    
   226  114  235 1    
   227  115  116 1    
   228  115  117 1    
   229  115  236 1    
   230  116  237 1    
   231  116  238 1    
   232  116  239 1    
   233  117  118 2    
   234  117  119 am   BACKBONE|DICT|INTERRES
   235  119  120 1    
   236  119  240 1    
   237  120  121 1    
   238  120  124 1    
   239  120  241 1    
   240  121  122 am   BACKBONE|DICT|INTERRES
   241  121  123 2    
   242  122  242 1    
   243  122  243 1    
   244  124  125 1    
   245  124  244 1    
   246  124  245 1    
   247  125  126 1    
   248  126  246 1    
   249  126  247 1    
@<TRIPOS>SUBSTRUCTURE
     1 UNK         1 GROUP             0       ****    0 ROOT    
