@<TRIPOS>MOLECULE
3R540
247   249    1
SMALL
USER_CHARGES


@<TRIPOS>ATOM
      1 CA          2.3054  -16.0327  -42.3976 C.3       0 UNK        -0.1800 
      2 C           1.2966  -15.0190  -41.8739 C.2       0 UNK         0.5000 
      3 O           1.2773  -14.7374  -40.6762 O.2       0 UNK        -0.5000 
      4 N           0.4574  -14.4767  -42.7683 N.am      1 UNK        -0.5000 
      5 CA         -0.5723  -13.4652  -42.4786 C.3       1 UNK         0.1400 
      6 C6         -1.4698  -13.1656  -43.7100 C.3       23 UNK        -0.0398 
      7 S7         -2.0341  -14.6440  -44.6161 S.3       23 UNK        -0.2404 
      8 C8         -3.7383  -14.8376  -44.0186 C.3       23 UNK        -0.0205 
      9 C9         -4.5060  -15.8643  -44.8410 C.ar      23 UNK        -0.0193 
     10 C10        -5.0046  -15.5107  -46.0983 C.ar      23 UNK        -0.1150 
     11 C11        -5.7717  -16.4131  -46.8395 C.ar      23 UNK        -0.0193 
     12 C12        -6.0372  -17.6807  -46.3154 C.ar      23 UNK        -0.1150 
     13 C13        -5.5366  -18.0561  -45.0640 C.ar      23 UNK        -0.0193 
     14 C14        -4.7643  -17.1434  -44.3347 C.ar      23 UNK        -0.1150 
     15 C15        -5.8927  -19.4154  -44.4668 C.3       23 UNK        -0.0205 
     16 S16        -5.5729  -20.8179  -45.5902 S.3       23 UNK        -0.2404 
     17 C17        -3.7554  -20.8277  -45.5958 C.3       23 UNK        -0.0398 
     18 CA         -3.1487  -22.0670  -46.2940 C.3       11 UNK         0.1400 
     19 N          -1.8136  -21.7791  -46.8344 N.am      11 UNK        -0.5000 
     20 C          -1.0157  -22.6324  -47.4932 C.2       10 UNK         0.5000 
     21 O          -1.3219  -23.7972  -47.7435 O.2       10 UNK        -0.5000 
     22 CA          0.3606  -22.1074  -47.9254 C.3       10 UNK         0.1400 
     23 CB          0.2507  -21.3182  -49.2379 C.3       10 UNK        -0.1800 
     24 N           0.9521  -21.2716  -46.8825 N.am      10 UNK        -0.5000 
     25 C           1.5718  -21.7566  -45.7967 C.2       9 UNK         0.5000 
     26 O           1.8077  -22.9520  -45.6209 O.2       9 UNK        -0.5000 
     27 CA          1.9621  -20.7406  -44.7060 C.3       9 UNK         0.1400 
     28 CB          3.3518  -20.1496  -44.9855 C.3       9 UNK        -0.1800 
     29 N           0.9917  -19.6533  -44.5715 N.am      9 UNK        -0.5000 
     30 C          -0.2658  -19.8112  -44.1299 C.2       8 UNK         0.5000 
     31 O          -0.7308  -20.8900  -43.7607 O.2       8 UNK        -0.5000 
     32 CA         -1.1762  -18.5671  -44.1517 C.3       8 UNK         0.1400 
     33 CB         -1.1210  -17.8452  -42.7991 C.3       8 UNK        -0.1800 
     34 N          -0.8714  -17.6281  -45.2340 N.am      8 UNK        -0.5000 
     35 C          -0.8546  -17.9236  -46.5416 C.2       7 UNK         0.5000 
     36 O          -1.1127  -19.0415  -46.9857 O.2       7 UNK        -0.5000 
     37 CA         -0.4214  -16.8141  -47.5181 C.3       7 UNK         0.1400 
     38 CB         -1.6486  -16.1338  -48.1426 C.3       7 UNK        -0.1800 
     39 N           0.4703  -15.7942  -46.9521 N.am      7 UNK        -0.5000 
     40 C           1.6745  -16.0231  -46.4045 C.2       6 UNK         0.5000 
     41 O           2.1089  -17.1521  -46.1690 O.2       6 UNK        -0.5000 
     42 CA          2.5198  -14.7773  -46.0485 C.3       6 UNK         0.1400 
     43 CB          4.0198  -15.0966  -45.8906 C.3       6 UNK        -0.1800 
     44 N           2.3281  -13.6496  -46.9681 N.am      6 UNK        -0.5000 
     45 C           2.5272  -13.6266  -48.2935 C.2       5 UNK         0.5000 
     46 O           2.9154  -14.5929  -48.9503 O.2       5 UNK        -0.5000 
     47 CA          2.2381  -12.2959  -49.0156 C.3       5 UNK         0.1400 
     48 CB          0.7238  -12.0113  -49.0759 C.3       5 UNK        -0.1800 
     49 N           2.9864  -11.1429  -48.4939 N.am      5 UNK        -0.5000 
     50 C           2.8944  -10.5529  -47.2946 C.2       4 UNK         0.5000 
     51 O           2.1169  -10.9070  -46.4038 O.2       4 UNK        -0.5000 
     52 CA          3.8062   -9.3350  -47.0685 C.3       4 UNK         0.1400 
     53 CB          3.0379   -8.0339  -47.3462 C.3       4 UNK        -0.1800 
     54 N           4.2825   -9.3162  -45.6894 N.am      4 UNK        -0.5000 
     55 C           5.3613   -9.9717  -45.2410 C.2       3 UNK         0.5000 
     56 O           6.1609  -10.5579  -45.9717 O.2       3 UNK        -0.5000 
     57 CA          5.5678   -9.9908  -43.7114 C.3       3 UNK         0.1400 
     58 CB          6.4551   -8.8166  -43.2703 C.3       3 UNK        -0.1800 
     59 N           4.3030   -9.9462  -42.9698 N.am      3 UNK        -0.5000 
     60 C           3.3987  -10.9341  -42.9793 C.2       2 UNK         0.5000 
     61 O           3.5948  -12.0299  -43.5175 O.2       2 UNK        -0.5000 
     62 CA          2.0450  -10.6435  -42.3064 C.3       2 UNK         0.1400 
     63 CB          1.3677   -9.3930  -42.9060 C.3       2 UNK        -0.1800 
     64 N           1.2165  -11.8172  -42.5286 N.am      2 UNK        -0.5000 
     65 C           0.0423  -12.1383  -41.9795 C.2       1 UNK         0.5000 
     66 O          -0.5474  -11.4526  -41.1437 O.2       1 UNK        -0.5000 
     67 C          -3.1604  -23.3023  -45.3668 C.2       11 UNK         0.5000 
     68 O          -4.0461  -24.1488  -45.4903 O.2       11 UNK        -0.5000 
     69 N          -2.1241  -23.4243  -44.5243 N.am      12 UNK        -0.5000 
     70 CA         -1.8589  -24.5719  -43.6519 C.3       12 UNK         0.1400 
     71 CB         -0.6458  -24.2426  -42.7687 C.3       12 UNK        -0.1800 
     72 C          -1.6329  -25.9075  -44.3961 C.2       12 UNK         0.5000 
     73 O          -1.8221  -26.9669  -43.7981 O.2       12 UNK        -0.5000 
     74 N          -1.2585  -25.8394  -45.6800 N.am      13 UNK        -0.5000 
     75 CA         -1.0784  -26.9705  -46.5898 C.3       13 UNK         0.1400 
     76 CB          0.2912  -26.8309  -47.2797 C.3       13 UNK        -0.1800 
     77 C          -2.2358  -27.0501  -47.6083 C.2       13 UNK         0.5000 
     78 O          -2.0274  -27.4990  -48.7368 O.2       13 UNK        -0.5000 
     79 N          -3.4315  -26.5885  -47.2080 N.am      14 UNK        -0.5000 
     80 CA         -4.6699  -26.5303  -47.9939 C.3       14 UNK         0.1400 
     81 CB         -5.1817  -27.9491  -48.3210 C.3       14 UNK        -0.1800 
     82 C          -4.5228  -25.6385  -49.2423 C.2       14 UNK         0.5000 
     83 O          -4.8792  -26.0483  -50.3480 O.2       14 UNK        -0.5000 
     84 N          -3.9463  -24.4456  -49.0368 N.am      15 UNK        -0.5000 
     85 CA         -3.5738  -23.4586  -50.0580 C.3       15 UNK         0.1400 
     86 CB         -4.8259  -22.8756  -50.7414 C.3       15 UNK        -0.1800 
     87 C          -2.5331  -24.0222  -51.0470 C.2       15 UNK         0.5000 
     88 O          -2.6535  -23.8206  -52.2548 O.2       15 UNK        -0.5000 
     89 N          -1.5556  -24.7627  -50.5016 N.am      16 UNK        -0.5000 
     90 CA         -0.5442  -25.5638  -51.1999 C.3       16 UNK         0.1400 
     91 CB          0.4857  -24.6491  -51.8928 C.3       16 UNK        -0.1800 
     92 C          -1.1880  -26.5825  -52.1643 C.2       16 UNK         0.5000 
     93 O          -0.8414  -26.6225  -53.3445 O.2       16 UNK        -0.5000 
     94 N          -2.1671  -27.3418  -51.6507 N.am      17 UNK        -0.5000 
     95 CA         -3.0620  -28.2413  -52.3908 C.3       17 UNK         0.1400 
     96 CB         -2.2958  -29.4874  -52.8801 C.3       17 UNK        -0.1800 
     97 C          -3.8230  -27.5103  -53.5220 C.2       17 UNK         0.5000 
     98 O          -3.8759  -27.9905  -54.6555 O.2       17 UNK        -0.5000 
     99 N          -4.3650  -26.3338  -53.1788 N.am      18 UNK        -0.5000 
    100 CA        -5.0846  -25.3710  -54.0203 C.3       18 UNK         0.1400 
    101 CB        -6.3807  -25.9934  -54.5783 C.3       18 UNK        -0.1800 
    102 C         -4.2442  -24.6869  -55.1235 C.2       18 UNK         0.5000 
    103 O         -4.8160  -23.9628  -55.9405 O.2       18 UNK        -0.5000 
    104 N         -2.9184  -24.8866  -55.1388 N.am      19 UNK        -0.5000 
    105 CA        -2.0104  -24.2823  -56.1173 C.3       19 UNK         0.1400 
    106 CB        -0.7247  -25.1178  -56.2051 C.3       19 UNK        -0.1800 
    107 C         -1.6664  -22.8120  -55.8088 C.2       19 UNK         0.5000 
    108 O         -1.2678  -22.0890  -56.7230 O.2       19 UNK        -0.5000 
    109 N         -1.8104  -22.3950  -54.5452 N.am      20 UNK        -0.5000 
    110 CA        -1.4751  -21.0631  -54.0469 C.3       20 UNK         0.1400 
    111 CB        -0.1824  -21.1448  -53.2156 C.3       20 UNK        -0.1800 
    112 C         -2.6621  -20.4866  -53.2580 C.2       20 UNK         0.5000 
    113 O         -2.5012  -20.0429  -52.1195 O.2       20 UNK        -0.5000 
    114 N         -3.8472  -20.5160  -53.8805 N.am      21 UNK        -0.5000 
    115 CA        -5.0678  -19.8883  -53.3744 C.3       21 UNK         0.1400 
    116 CB        -6.2612  -20.3962  -54.1978 C.3       21 UNK        -0.1800 
    117 C         -4.9822  -18.3503  -53.4180 C.2       21 UNK         0.5000 
    118 O         -4.2964  -17.7943  -54.2801 O.2       21 UNK        -0.5000 
    119 N         -5.6991  -17.6957  -52.4974 N.am      22 UNK        -0.5000 
    120 CA        -5.7382  -16.2294  -52.3491 C.3       22 UNK         0.1400 
    121 C         -6.5170  -15.4747  -53.4689 C.2       22 UNK         0.5000 
    122 N         -7.2813  -16.1452  -54.3226 N.am      22 UNK        -0.7600 
    123 O         -6.4218  -14.2543  -53.5667 O.2       22 UNK        -0.5000 
    124 C124       -6.2624  -15.8066  -50.9522 C.3       23 UNK        -0.0398 
    125 S125       -5.2895  -16.4920  -49.5685 S.3       23 UNK        -0.2404 
    126 C126       -6.3572  -16.0020  -48.1811 C.3       23 UNK        -0.0205 
    127 H127        3.2898  -15.5722  -42.4815 H         1 UNK         0.0600 
    128 H128        2.3806  -16.8785  -41.7140 H         1 UNK         0.0600 
    129 H129        2.0225  -16.4198  -43.3758 H         1 UNK         0.0600 
    130 H130        0.4943  -14.7727  -43.7295 H         1 UNK         0.3000 
    131 H131       -1.2046  -13.8621  -41.6817 H         1 UNK         0.0600 
    132 H132       -0.9305  -12.5536  -44.4364 H         1 UNK         0.0800 
    133 H133       -2.3347  -12.5716  -43.4096 H         1 UNK         0.0800 
    134 H134       -3.7206  -15.1210  -42.9651 H         1 UNK         0.0800 
    135 H135       -4.2566  -13.8792  -44.0732 H         1 UNK         0.0800 
    136 H136       -4.8088  -14.5230  -46.4917 H         1 UNK         0.1150 
    137 H137       -6.6483  -18.3727  -46.8778 H         1 UNK         0.1150 
    138 H138       -4.3908  -17.4152  -43.3575 H         1 UNK         0.1150 
    139 H139       -5.3593  -19.5809  -43.5294 H         1 UNK         0.0800 
    140 H140       -6.9541  -19.4100  -44.2154 H         1 UNK         0.0800 
    141 H141       -3.3978  -20.7457  -44.5690 H         1 UNK         0.0800 
    142 H142       -3.4476  -19.9164  -46.1097 H         1 UNK         0.0800 
    143 H143       -3.7725  -22.3028  -47.1573 H         1 UNK         0.0600 
    144 H144       -1.4958  -20.8168  -46.7438 H         1 UNK         0.3000 
    145 H145        1.0064  -22.9696  -48.1059 H         1 UNK         0.0600 
    146 H146       -0.3748  -20.4312  -49.1343 H         1 UNK         0.0600 
    147 H147        1.2314  -20.9983  -49.5897 H         1 UNK         0.0600 
    148 H148       -0.1907  -21.9359  -50.0198 H         1 UNK         0.0600 
    149 H149        0.7478  -20.2821  -46.9246 H         1 UNK         0.3000 
    150 H150        2.0034  -21.2747  -43.7543 H         1 UNK         0.0600 
    151 H151        4.1061  -20.9355  -45.0406 H         1 UNK         0.0600 
    152 H152        3.6547  -19.4618  -44.1957 H         1 UNK         0.0600 
    153 H153        3.3753  -19.6050  -45.9303 H         1 UNK         0.0600 
    154 H154        1.2836  -18.7428  -44.9080 H         1 UNK         0.3000 
    155 H155       -2.2020  -18.8963  -44.3009 H         1 UNK         0.0600 
    156 H156       -1.4274  -18.5119  -41.9920 H         1 UNK         0.0600 
    157 H157       -1.7882  -16.9846  -42.7741 H         1 UNK         0.0600 
    158 H158       -0.1141  -17.5027  -42.5703 H         1 UNK         0.0600 
    159 H159       -0.7095  -16.6680  -44.9702 H         1 UNK         0.3000 
    160 H160        0.1312  -17.3051  -48.3216 H         1 UNK         0.0600 
    161 H161       -2.2397  -15.5990  -47.3997 H         1 UNK         0.0600 
    162 H162       -2.3052  -16.8694  -48.6095 H         1 UNK         0.0600 
    163 H163       -1.3580  -15.4234  -48.9165 H         1 UNK         0.0600 
    164 H164        0.1901  -14.8347  -47.0918 H         1 UNK         0.3000 
    165 H165        2.1617  -14.4317  -45.0796 H         1 UNK         0.0600 
    166 H166        4.4500  -15.4847  -46.8142 H         1 UNK         0.0600 
    167 H167        4.5814  -14.2066  -45.6051 H         1 UNK         0.0600 
    168 H168        4.1836  -15.8438  -45.1132 H         1 UNK         0.0600 
    169 H169        2.0632  -12.7637  -46.5417 H         1 UNK         0.3000 
    170 H170        2.5798  -12.4220  -50.0443 H         1 UNK         0.0600 
    171 H171        0.2893  -11.8695  -48.0861 H         1 UNK         0.0600 
    172 H172        0.5158  -11.1165  -49.6625 H         1 UNK         0.0600 
    173 H173        0.1920  -12.8388  -49.5472 H         1 UNK         0.0600 
    174 H174        3.6734  -10.7736  -49.1369 H         1 UNK         0.3000 
    175 H175        4.6586   -9.3873  -47.7493 H         1 UNK         0.0600 
    176 H176        2.1692   -7.9311  -46.6943 H         1 UNK         0.0600 
    177 H177        3.6740   -7.1612  -47.1974 H         1 UNK         0.0600 
    178 H178        2.6805   -8.0037  -48.3763 H         1 UNK         0.0600 
    179 H179        3.6567   -8.9119  -45.0096 H         1 UNK         0.3000 
    180 H180        6.0809  -10.9210  -43.4579 H         1 UNK         0.0600 
    181 H181        7.4144   -8.8366  -43.7892 H         1 UNK         0.0600 
    182 H182        6.6645   -8.8601  -42.2013 H         1 UNK         0.0600 
    183 H183        5.9868   -7.8549  -43.4832 H         1 UNK         0.0600 
    184 H184        4.0889   -9.0833  -42.4910 H         1 UNK         0.3000 
    185 H185        2.2049  -10.5125  -41.2348 H         1 UNK         0.0600 
    186 H186        0.3881   -9.2168  -42.4620 H         1 UNK         0.0600 
    187 H187        1.9589   -8.4944  -42.7287 H         1 UNK         0.0600 
    188 H188        1.2305   -9.4918  -43.9838 H         1 UNK         0.0600 
    189 H189        1.6580  -12.4769  -43.1587 H         1 UNK         0.3000 
    190 H190       -1.4636  -22.6557  -44.4616 H         1 UNK         0.3000 
    191 H191       -2.7293  -24.7036  -43.0062 H         1 UNK         0.0600 
    192 H192        0.2483  -24.0644  -43.3678 H         1 UNK         0.0600 
    193 H193       -0.8267  -23.3522  -42.1660 H         1 UNK         0.0600 
    194 H194       -0.4252  -25.0605  -42.0815 H         1 UNK         0.0600 
    195 H195       -1.1723  -24.9270  -46.1146 H         1 UNK         0.3000 
    196 H196       -1.0813  -27.9101  -46.0346 H         1 UNK         0.0600 
    197 H197        1.0959  -26.7794  -46.5462 H         1 UNK         0.0600 
    198 H198        0.3443  -25.9321  -47.8945 H         1 UNK         0.0600 
    199 H199        0.4976  -27.6854  -47.9253 H         1 UNK         0.0600 
    200 H200       -3.4900  -26.1734  -46.2863 H         1 UNK         0.3000 
    201 H201       -5.4157  -26.0485  -47.3599 H         1 UNK         0.0600 
    202 H202       -6.1588  -27.9084  -48.8037 H         1 UNK         0.0600 
    203 H203       -5.2920  -28.5461  -47.4159 H         1 UNK         0.0600 
    204 H204       -4.5090  -28.4816  -48.9939 H         1 UNK         0.0600 
    205 H205       -3.6132  -24.2528  -48.1025 H         1 UNK         0.3000 
    206 H206       -3.0800  -22.6323  -49.5476 H         1 UNK         0.0600 
    207 H207       -5.4601  -22.3590  -50.0213 H         1 UNK         0.0600 
    208 H208       -5.4286  -23.6410  -51.2270 H         1 UNK         0.0600 
    209 H209       -4.5446  -22.1533  -51.5041 H         1 UNK         0.0600 
    210 H210       -1.5450  -24.8318  -49.4900 H         1 UNK         0.3000 
    211 H211       -0.0202  -26.1418  -50.4377 H         1 UNK         0.0600 
    212 H212        0.9088  -23.9274  -51.1945 H         1 UNK         0.0600 
    213 H213        1.3124  -25.2333  -52.2981 H         1 UNK         0.0600 
    214 H214        0.0420  -24.0985  -52.7223 H         1 UNK         0.0600 
    215 H215       -2.3490  -27.2624  -50.6535 H         1 UNK         0.3000 
    216 H216       -3.8180  -28.5753  -51.6786 H         1 UNK         0.0600 
    217 H217       -2.9755  -30.2102  -53.3327 H         1 UNK         0.0600 
    218 H218       -1.5430  -29.2341  -53.6272 H         1 UNK         0.0600 
    219 H219       -1.7925  -29.9889  -52.0536 H         1 UNK         0.0600 
    220 H220       -4.2924  -26.0665  -52.2005 H         1 UNK         0.3000 
    221 H221       -5.3796  -24.5655  -53.3486 H         1 UNK         0.0600 
    222 H222       -6.1735  -26.7671  -55.3178 H         1 UNK         0.0600 
    223 H223       -6.9779  -26.4392  -53.7827 H         1 UNK         0.0600 
    224 H224       -7.0019  -25.2392  -55.0625 H         1 UNK         0.0600 
    225 H225       -2.4988  -25.4654  -54.4214 H         1 UNK         0.3000 
    226 H226       -2.4911  -24.3105  -57.0975 H         1 UNK         0.0600 
    227 H227       -0.9449  -26.1721  -56.3739 H         1 UNK         0.0600 
    228 H228       -0.0974  -24.7788  -57.0303 H         1 UNK         0.0600 
    229 H229       -0.1311  -25.0381  -55.2940 H         1 UNK         0.0600 
    230 H230       -2.1724  -23.0421  -53.8454 H         1 UNK         0.3000 
    231 H231       -1.2982  -20.3763  -54.8769 H         1 UNK         0.0600 
    232 H232        0.1230  -20.1583  -52.8651 H         1 UNK         0.0600 
    233 H233        0.6406  -21.5518  -53.8030 H         1 UNK         0.0600 
    234 H234       -0.3154  -21.7786  -52.3401 H         1 UNK         0.0600 
    235 H235       -3.8880  -20.8942  -54.8155 H         1 UNK         0.3000 
    236 H236       -5.2105  -20.1872  -52.3353 H         1 UNK         0.0600 
    237 H237       -6.3420  -21.4825  -54.1447 H         1 UNK         0.0600 
    238 H238       -7.1995  -19.9832  -53.8258 H         1 UNK         0.0600 
    239 H239       -6.1724  -20.1179  -55.2487 H         1 UNK         0.0600 
    240 H240       -6.2373  -18.2197  -51.8231 H         1 UNK         0.3000 
    241 H241       -4.7078  -15.8761  -52.4241 H         1 UNK         0.0600 
    242 H242       -7.3666  -17.1465  -54.2588 H         1 UNK         0.3800 
    243 H243       -7.7760  -15.6446  -55.0445 H         1 UNK         0.3800 
    244 H244       -6.2495  -14.7194  -50.8533 H         1 UNK         0.0800 
    245 H245       -7.3036  -16.1125  -50.8354 H         1 UNK         0.0800 
    246 H246       -7.3431  -16.4527  -48.3059 H         1 UNK         0.0800 
    247 H247       -6.5086  -14.9216  -48.2063 H         1 UNK         0.0800 
@<TRIPOS>BOND
     1    1    2 1    
     2    1  127 1    
     3    1  128 1    
     4    1  129 1    
     5    2    3 2    
     6    2    4 am   BACKBONE|DICT|INTERRES
     7    4    5 1    
     8    4  130 1    
     9    5    6 1    
    10    5   65 1    
    11    5  131 1    
    12    6    7 1    
    13    6  132 1    
    14    6  133 1    
    15    7    8 1    
    16    8    9 1    
    17    8  134 1    
    18    8  135 1    
    19    9   10 ar   
    20    9   14 ar   
    21   10   11 ar   
    22   10  136 1    
    23   11   12 ar   
    24   11  126 1    
    25   12   13 ar   
    26   12  137 1    
    27   13   14 ar   
    28   13   15 1    
    29   14  138 1    
    30   15   16 1    
    31   15  139 1    
    32   15  140 1    
    33   16   17 1    
    34   17   18 1    
    35   17  141 1    
    36   17  142 1    
    37   18   19 1    
    38   18   67 1    
    39   18  143 1    
    40   19   20 am   BACKBONE|DICT|INTERRES
    41   19  144 1    
    42   20   21 2    
    43   20   22 1    
    44   22   23 1    
    45   22   24 1    
    46   22  145 1    
    47   23  146 1    
    48   23  147 1    
    49   23  148 1    
    50   24   25 am   BACKBONE|DICT|INTERRES
    51   24  149 1    
    52   25   26 2    
    53   25   27 1    
    54   27   28 1    
    55   27   29 1    
    56   27  150 1    
    57   28  151 1    
    58   28  152 1    
    59   28  153 1    
    60   29   30 am   BACKBONE|DICT|INTERRES
    61   29  154 1    
    62   30   31 2    
    63   30   32 1    
    64   32   33 1    
    65   32   34 1    
    66   32  155 1    
    67   33  156 1    
    68   33  157 1    
    69   33  158 1    
    70   34   35 am   BACKBONE|DICT|INTERRES
    71   34  159 1    
    72   35   36 2    
    73   35   37 1    
    74   37   38 1    
    75   37   39 1    
    76   37  160 1    
    77   38  161 1    
    78   38  162 1    
    79   38  163 1    
    80   39   40 am   BACKBONE|DICT|INTERRES
    81   39  164 1    
    82   40   41 2    
    83   40   42 1    
    84   42   43 1    
    85   42   44 1    
    86   42  165 1    
    87   43  166 1    
    88   43  167 1    
    89   43  168 1    
    90   44   45 am   BACKBONE|DICT|INTERRES
    91   44  169 1    
    92   45   46 2    
    93   45   47 1    
    94   47   48 1    
    95   47   49 1    
    96   47  170 1    
    97   48  171 1    
    98   48  172 1    
    99   48  173 1    
   100   49   50 am   BACKBONE|DICT|INTERRES
   101   49  174 1    
   102   50   51 2    
   103   50   52 1    
   104   52   53 1    
   105   52   54 1    
   106   52  175 1    
   107   53  176 1    
   108   53  177 1    
   109   53  178 1    
   110   54   55 am   BACKBONE|DICT|INTERRES
   111   54  179 1    
   112   55   56 2    
   113   55   57 1    
   114   57   58 1    
   115   57   59 1    
   116   57  180 1    
   117   58  181 1    
   118   58  182 1    
   119   58  183 1    
   120   59   60 am   BACKBONE|DICT|INTERRES
   121   59  184 1    
   122   60   61 2    
   123   60   62 1    
   124   62   63 1    
   125   62   64 1    
   126   62  185 1    
   127   63  186 1    
   128   63  187 1    
   129   63  188 1    
   130   64   65 am   BACKBONE|DICT|INTERRES
   131   64  189 1    
   132   65   66 2    
   133   67   68 2    
   134   67   69 am   BACKBONE|DICT|INTERRES
   135   69   70 1    
   136   69  190 1    
   137   70   71 1    
   138   70   72 1    
   139   70  191 1    
   140   71  192 1    
   141   71  193 1    
   142   71  194 1    
   143   72   73 2    
   144   72   74 am   BACKBONE|DICT|INTERRES
   145   74   75 1    
   146   74  195 1    
   147   75   76 1    
   148   75   77 1    
   149   75  196 1    
   150   76  197 1    
   151   76  198 1    
   152   76  199 1    
   153   77   78 2    
   154   77   79 am   BACKBONE|DICT|INTERRES
   155   79   80 1    
   156   79  200 1    
   157   80   81 1    
   158   80   82 1    
   159   80  201 1    
   160   81  202 1    
   161   81  203 1    
   162   81  204 1    
   163   82   83 2    
   164   82   84 am   BACKBONE|DICT|INTERRES
   165   84   85 1    
   166   84  205 1    
   167   85   86 1    
   168   85   87 1    
   169   85  206 1    
   170   86  207 1    
   171   86  208 1    
   172   86  209 1    
   173   87   88 2    
   174   87   89 am   BACKBONE|DICT|INTERRES
   175   89   90 1    
   176   89  210 1    
   177   90   91 1    
   178   90   92 1    
   179   90  211 1    
   180   91  212 1    
   181   91  213 1    
   182   91  214 1    
   183   92   93 2    
   184   92   94 am   BACKBONE|DICT|INTERRES
   185   94   95 1    
   186   94  215 1    
   187   95   96 1    
   188   95   97 1    
   189   95  216 1    
   190   96  217 1    
   191   96  218 1    
   192   96  219 1    
   193   97   98 2    
   194   97   99 am   BACKBONE|DICT|INTERRES
   195   99  100 1    
   196   99  220 1    
   197  100  101 1    
   198  100  102 1    
   199  100  221 1    
   200  101  222 1    
   201  101  223 1    
   202  101  224 1    
   203  102  103 2    
   204  102  104 am   BACKBONE|DICT|INTERRES
   205  104  105 1    
   206  104  225 1    
   207  105  106 1    
   208  105  107 1    
   209  105  226 1    
   210  106  227 1    
   211  106  228 1    
   212  106  229 1    
   213  107  108 2    
   214  107  109 am   BACKBONE|DICT|INTERRES
   215  109  110 1    
   216  109  230 1    
   217  110  111 1    
   218  110  112 1    
   219  110  231 1    
   220  111  232 1    
   221  111  233 1    
   222  111  234 1    
   223  112  113 2    
   224  112  114 am   BACKBONE|DICT|INTERRES
   225  114  115 1    
   226  114  235 1    
   227  115  116 1    
   228  115  117 1    
   229  115  236 1    
   230  116  237 1    
   231  116  238 1    
   232  116  239 1    
   233  117  118 2    
   234  117  119 am   BACKBONE|DICT|INTERRES
   235  119  120 1    
   236  119  240 1    
   237  120  121 1    
   238  120  124 1    
   239  120  241 1    
   240  121  122 am   BACKBONE|DICT|INTERRES
   241  121  123 2    
   242  122  242 1    
   243  122  243 1    
   244  124  125 1    
   245  124  244 1    
   246  124  245 1    
   247  125  126 1    
   248  126  246 1    
   249  126  247 1    
@<TRIPOS>SUBSTRUCTURE
     1 UNK         1 GROUP             0       ****    0 ROOT    
