@<TRIPOS>MOLECULE
3R540
247   249    1
SMALL
USER_CHARGES


@<TRIPOS>ATOM
      1 CA          4.4071  -14.0840  -43.3472 C.3       0 UNK        -0.1800 
      2 C           4.2420  -13.3707  -44.6803 C.2       0 UNK         0.5000 
      3 O           3.2538  -12.6583  -44.8721 O.2       0 UNK        -0.5000 
      4 N           5.2019  -13.5520  -45.5964 N.am      1 UNK        -0.5000 
      5 CA          5.2368  -12.9959  -46.9582 C.3       1 UNK         0.1400 
      6 C6          6.1446  -13.8347  -47.8941 C.3       23 UNK        -0.0398 
      7 S7          5.4306  -15.4850  -48.1964 S.3       23 UNK        -0.2404 
      8 C8          4.8018  -15.2831  -49.8918 C.3       23 UNK        -0.0205 
      9 C9          3.6367  -16.2185  -50.1704 C.ar      23 UNK        -0.0193 
     10 C10         2.3361  -15.7123  -50.2529 C.ar      23 UNK        -0.1150 
     11 C11         1.2615  -16.5607  -50.5304 C.ar      23 UNK        -0.0193 
     12 C12         1.4952  -17.9263  -50.7174 C.ar      23 UNK        -0.1150 
     13 C13         2.7894  -18.4465  -50.6308 C.ar      23 UNK        -0.0193 
     14 C14         3.8573  -17.5859  -50.3595 C.ar      23 UNK        -0.1150 
     15 C15         3.0379  -19.9322  -50.8467 C.3       23 UNK        -0.0205 
     16 S16         2.7478  -20.8990  -49.3313 S.3       23 UNK        -0.2404 
     17 C17         0.9261  -20.9889  -49.3049 C.3       23 UNK        -0.0398 
     18 CA          0.4169  -22.1748  -48.4544 C.3       11 UNK         0.1400 
     19 N           0.6105  -21.9636  -47.0171 N.am      11 UNK        -0.5000 
     20 C           0.3941  -22.8953  -46.0774 C.2       10 UNK         0.5000 
     21 O           0.0647  -24.0556  -46.3259 O.2       10 UNK        -0.5000 
     22 CA          0.5071  -22.4417  -44.6118 C.3       10 UNK         0.1400 
     23 CB          1.9760  -22.3684  -44.1693 C.3       10 UNK        -0.1800 
     24 N          -0.1517  -21.1561  -44.3762 N.am      10 UNK        -0.5000 
     25 C          -1.4697  -20.9461  -44.5044 C.2       9 UNK         0.5000 
     26 O          -2.2752  -21.8355  -44.7780 O.2       9 UNK        -0.5000 
     27 CA         -1.9698  -19.4976  -44.3460 C.3       9 UNK         0.1400 
     28 CB         -2.1202  -19.1261  -42.8638 C.3       9 UNK        -0.1800 
     29 N          -1.1047  -18.5242  -45.0119 N.am      9 UNK        -0.5000 
     30 C          -0.8931  -18.4696  -46.3350 C.2       8 UNK         0.5000 
     31 O          -1.4416  -19.2093  -47.1531 O.2       8 UNK        -0.5000 
     32 CA          0.1537  -17.4528  -46.8198 C.3       8 UNK         0.1400 
     33 CB         -0.4613  -16.0527  -46.9514 C.3       8 UNK        -0.1800 
     34 N           1.3149  -17.3978  -45.9321 N.am      8 UNK        -0.5000 
     35 C           2.1829  -18.4057  -45.7660 C.2       7 UNK         0.5000 
     36 O           2.1021  -19.4818  -46.3560 O.2       7 UNK        -0.5000 
     37 CA          3.2875  -18.1960  -44.7150 C.3       7 UNK         0.1400 
     38 CB          4.4135  -17.3163  -45.2734 C.3       7 UNK        -0.1800 
     39 N           2.7751  -17.6075  -43.4763 N.am      7 UNK        -0.5000 
     40 C           1.9270  -18.2300  -42.6471 C.2       6 UNK         0.5000 
     41 O           1.5080  -19.3713  -42.8317 O.2       6 UNK        -0.5000 
     42 CA          1.4381  -17.4402  -41.4200 C.3       6 UNK         0.1400 
     43 CB          2.4181  -17.6122  -40.2499 C.3       6 UNK        -0.1800 
     44 N           1.2143  -16.0098  -41.6516 N.am      6 UNK        -0.5000 
     45 C           0.4056  -15.4751  -42.5784 C.2       5 UNK         0.5000 
     46 O          -0.1562  -16.1400  -43.4505 O.2       5 UNK        -0.5000 
     47 CA          0.1687  -13.9519  -42.5095 C.3       5 UNK         0.1400 
     48 CB          0.9879  -13.2299  -41.4197 C.3       5 UNK        -0.1800 
     49 N           0.4540  -13.3219  -43.7952 N.am      5 UNK        -0.5000 
     50 C          -0.4518  -13.0406  -44.7408 C.2       4 UNK         0.5000 
     51 O          -1.6505  -13.3138  -44.6580 O.2       4 UNK        -0.5000 
     52 CA          0.0995  -12.2725  -45.9588 C.3       4 UNK         0.1400 
     53 CB         -0.9745  -11.8941  -46.9998 C.3       4 UNK        -0.1800 
     54 N           0.8772  -11.1067  -45.5221 N.am      4 UNK        -0.5000 
     55 C           0.4358  -10.0322  -44.8477 C.2       3 UNK         0.5000 
     56 O          -0.7540   -9.7824  -44.6522 O.2       3 UNK        -0.5000 
     57 CA          1.5006   -9.0900  -44.2490 C.3       3 UNK         0.1400 
     58 CB          1.5195   -9.2185  -42.7170 C.3       3 UNK        -0.1800 
     59 N           2.8519   -9.3622  -44.7442 N.am      3 UNK        -0.5000 
     60 C           3.4137   -8.7638  -45.8039 C.2       2 UNK         0.5000 
     61 O           2.8577   -7.9015  -46.4843 O.2       2 UNK        -0.5000 
     62 CA          4.8166   -9.2521  -46.1884 C.3       2 UNK         0.1400 
     63 CB          5.8879   -8.7375  -45.2109 C.3       2 UNK        -0.1800 
     64 N           4.8111  -10.7100  -46.2282 N.am      2 UNK        -0.5000 
     65 C           5.5993  -11.4920  -46.9664 C.2       1 UNK         0.5000 
     66 O           6.5487  -11.0720  -47.6304 O.2       1 UNK        -0.5000 
     67 C          -1.0504  -22.5048  -48.7940 C.2       11 UNK         0.5000 
     68 O          -1.2852  -23.4232  -49.5770 O.2       11 UNK        -0.5000 
     69 N          -2.0075  -21.7939  -48.1784 N.am      12 UNK        -0.5000 
     70 CA         -3.4430  -22.0525  -48.3089 C.3       12 UNK         0.1400 
     71 CB         -4.2545  -20.9730  -47.5759 C.3       12 UNK        -0.1800 
     72 C          -3.8376  -23.4475  -47.8012 C.2       12 UNK         0.5000 
     73 O          -4.5577  -24.1590  -48.5002 O.2       12 UNK        -0.5000 
     74 N          -3.3440  -23.8200  -46.6126 N.am      13 UNK        -0.5000 
     75 CA         -3.5609  -25.1290  -45.9968 C.3       13 UNK         0.1400 
     76 CB         -2.9680  -25.1379  -44.5799 C.3       13 UNK        -0.1800 
     77 C          -2.9927  -26.2846  -46.8398 C.2       13 UNK         0.5000 
     78 O          -3.6744  -27.2958  -47.0137 O.2       13 UNK        -0.5000 
     79 N          -1.7784  -26.0963  -47.3773 N.am      14 UNK        -0.5000 
     80 CA         -1.1229  -27.0261  -48.2976 C.3       14 UNK         0.1400 
     81 CB          0.3255  -26.5760  -48.5411 C.3       14 UNK        -0.1800 
     82 C          -1.8841  -27.1718  -49.6281 C.2       14 UNK         0.5000 
     83 O          -2.0868  -28.2931  -50.0955 O.2       14 UNK        -0.5000 
     84 N          -2.3409  -26.0450  -50.1884 N.am      15 UNK        -0.5000 
     85 CA         -3.1421  -25.9589  -51.4095 C.3       15 UNK         0.1400 
     86 CB         -2.9156  -24.5817  -52.0537 C.3       15 UNK        -0.1800 
     87 C          -4.6379  -26.2476  -51.1608 C.2       15 UNK         0.5000 
     88 O          -5.4917  -25.4819  -51.6094 O.2       15 UNK        -0.5000 
     89 N          -4.9247  -27.3517  -50.4562 N.am      16 UNK        -0.5000 
     90 CA         -6.2436  -27.9490  -50.2160 C.3       16 UNK         0.1400 
     91 CB         -6.7211  -28.6736  -51.4910 C.3       16 UNK        -0.1800 
     92 C          -7.2997  -26.9735  -49.6492 C.2       16 UNK         0.5000 
     93 O          -8.4515  -26.9913  -50.0870 O.2       16 UNK        -0.5000 
     94 N          -6.8779  -26.1462  -48.6821 N.am      17 UNK        -0.5000 
     95 CA         -7.6535  -25.0927  -48.0194 C.3       17 UNK         0.1400 
     96 CB         -8.8431  -25.6789  -47.2292 C.3       17 UNK        -0.1800 
     97 C          -8.0544  -23.9692  -48.9982 C.2       17 UNK         0.5000 
     98 O          -9.2399  -23.6778  -49.1683 O.2       17 UNK        -0.5000 
     99 N          -7.0296  -23.3577  -49.6073 N.am      18 UNK        -0.5000 
    100 CA        -7.0799  -22.2179  -50.5280 C.3       18 UNK         0.1400 
    101 CB        -7.6300  -20.9612  -49.8187 C.3       18 UNK        -0.1800 
    102 C         -7.8198  -22.5291  -51.8445 C.2       18 UNK         0.5000 
    103 O         -8.6053  -21.7075  -52.3239 O.2       18 UNK        -0.5000 
    104 N         -7.5461  -23.7024  -52.4290 N.am      19 UNK        -0.5000 
    105 CA        -8.0637  -24.1276  -53.7289 C.3       19 UNK         0.1400 
    106 CB        -7.9572  -25.6582  -53.8402 C.3       19 UNK        -0.1800 
    107 C         -7.3202  -23.3973  -54.8650 C.2       19 UNK         0.5000 
    108 O         -6.4013  -23.9574  -55.4654 O.2       19 UNK        -0.5000 
    109 N         -7.7188  -22.1388  -55.1004 N.am      20 UNK        -0.5000 
    110 CA        -7.1351  -21.1776  -56.0429 C.3       20 UNK         0.1400 
    111 CB        -7.3002  -21.6554  -57.5015 C.3       20 UNK        -0.1800 
    112 C         -5.6809  -20.8103  -55.6770 C.2       20 UNK         0.5000 
    113 O         -4.8054  -20.7815  -56.5443 O.2       20 UNK        -0.5000 
    114 N         -5.4560  -20.5355  -54.3872 N.am      21 UNK        -0.5000 
    115 CA        -4.1777  -20.1263  -53.8158 C.3       21 UNK         0.1400 
    116 CB        -3.4422  -21.3626  -53.2774 C.3       21 UNK        -0.1800 
    117 C         -4.4424  -19.1221  -52.6877 C.2       21 UNK         0.5000 
    118 O         -5.4835  -19.2072  -52.0320 O.2       21 UNK        -0.5000 
    119 N         -3.4957  -18.2018  -52.4784 N.am      22 UNK        -0.5000 
    120 CA        -3.5517  -17.1691  -51.4307 C.3       22 UNK         0.1400 
    121 C         -3.2241  -17.6732  -49.9960 C.2       22 UNK         0.5000 
    122 N         -2.5428  -18.7999  -49.8288 N.am      22 UNK        -0.7600 
    123 O         -3.5775  -17.0160  -49.0217 O.2       22 UNK        -0.5000 
    124 C124       -2.6936  -15.9283  -51.8018 C.3       23 UNK        -0.0398 
    125 S125       -0.9491  -16.3122  -52.2005 S.3       23 UNK        -0.2404 
    126 C126       -0.1554  -16.0128  -50.5890 C.3       23 UNK        -0.0205 
    127 H127        5.2874  -14.7271  -43.3373 H         1 UNK         0.0600 
    128 H128        3.5327  -14.6995  -43.1429 H         1 UNK         0.0600 
    129 H129        4.5080  -13.3545  -42.5438 H         1 UNK         0.0600 
    130 H130        5.9937  -14.1318  -45.3583 H         1 UNK         0.3000 
    131 H131        4.2234  -13.0497  -47.3630 H         1 UNK         0.0600 
    132 H132        6.2950  -13.3384  -48.8544 H         1 UNK         0.0800 
    133 H133        7.1388  -13.9533  -47.4607 H         1 UNK         0.0800 
    134 H134        5.6081  -15.4741  -50.6014 H         1 UNK         0.0800 
    135 H135        4.4898  -14.2497  -50.0507 H         1 UNK         0.0800 
    136 H136        2.1605  -14.6566  -50.1006 H         1 UNK         0.1150 
    137 H137        0.6639  -18.5826  -50.9313 H         1 UNK         0.1150 
    138 H138        4.8622  -17.9786  -50.2919 H         1 UNK         0.1150 
    139 H139        2.4126  -20.3062  -51.6586 H         1 UNK         0.0800 
    140 H140        4.0689  -20.0918  -51.1658 H         1 UNK         0.0800 
    141 H141        0.5814  -21.0839  -50.3363 H         1 UNK         0.0800 
    142 H142        0.5276  -20.0459  -48.9289 H         1 UNK         0.0800 
    143 H143        0.9993  -23.0573  -48.7284 H         1 UNK         0.0600 
    144 H144        0.9400  -21.0448  -46.7346 H         1 UNK         0.3000 
    145 H145        0.0064  -23.1902  -43.9943 H         1 UNK         0.0600 
    146 H146        2.0554  -22.1326  -43.1080 H         1 UNK         0.0600 
    147 H147        2.4799  -23.3224  -44.3293 H         1 UNK         0.0600 
    148 H148        2.5280  -21.6082  -44.7222 H         1 UNK         0.0600 
    149 H149        0.4445  -20.3868  -44.0848 H         1 UNK         0.3000 
    150 H150       -2.9554  -19.4325  -44.8107 H         1 UNK         0.0600 
    151 H151       -2.8200  -19.7972  -42.3643 H         1 UNK         0.0600 
    152 H152       -2.5010  -18.1112  -42.7473 H         1 UNK         0.0600 
    153 H153       -1.1708  -19.1904  -42.3334 H         1 UNK         0.0600 
    154 H154       -0.6355  -17.8447  -44.4214 H         1 UNK         0.3000 
    155 H155        0.4958  -17.7704  -47.8068 H         1 UNK         0.0600 
    156 H156       -0.7846  -15.6667  -45.9860 H         1 UNK         0.0600 
    157 H157       -1.3405  -16.0692  -47.5956 H         1 UNK         0.0600 
    158 H158        0.2490  -15.3466  -47.3815 H         1 UNK         0.0600 
    159 H159        1.3987  -16.5814  -45.3451 H         1 UNK         0.3000 
    160 H160        3.7095  -19.1743  -44.4749 H         1 UNK         0.0600 
    161 H161        5.2205  -17.1956  -44.5507 H         1 UNK         0.0600 
    162 H162        4.0514  -16.3251  -45.5461 H         1 UNK         0.0600 
    163 H163        4.8444  -17.7647  -46.1695 H         1 UNK         0.0600 
    164 H164        3.0717  -16.6719  -43.2485 H         1 UNK         0.3000 
    165 H165        0.4800  -17.8693  -41.1216 H         1 UNK         0.0600 
    166 H166        2.0283  -17.1594  -39.3380 H         1 UNK         0.0600 
    167 H167        2.5919  -18.6679  -40.0369 H         1 UNK         0.0600 
    168 H168        3.3856  -17.1568  -40.4647 H         1 UNK         0.0600 
    169 H169        1.6339  -15.3853  -40.9784 H         1 UNK         0.3000 
    170 H170       -0.8863  -13.8180  -42.2622 H         1 UNK         0.0600 
    171 H171        0.7757  -13.6300  -40.4275 H         1 UNK         0.0600 
    172 H172        2.0615  -13.3035  -41.5941 H         1 UNK         0.0600 
    173 H173        0.7333  -12.1705  -41.3878 H         1 UNK         0.0600 
    174 H174        1.4196  -13.0740  -43.9770 H         1 UNK         0.3000 
    175 H175        0.8049  -12.9441  -46.4507 H         1 UNK         0.0600 
    176 H176       -1.7612  -11.2726  -46.5722 H         1 UNK         0.0600 
    177 H177       -0.5364  -11.3524  -47.8379 H         1 UNK         0.0600 
    178 H178       -1.4513  -12.7881  -47.4036 H         1 UNK         0.0600 
    179 H179        1.8781  -11.2399  -45.5630 H         1 UNK         0.3000 
    180 H180        1.2120   -8.0672  -44.5004 H         1 UNK         0.0600 
    181 H181        1.8161  -10.2193  -42.4017 H         1 UNK         0.0600 
    182 H182        0.5352   -9.0176  -42.2918 H         1 UNK         0.0600 
    183 H183        2.2149   -8.5071  -42.2713 H         1 UNK         0.0600 
    184 H184        3.3897  -10.0362  -44.2186 H         1 UNK         0.3000 
    185 H185        5.0381   -8.8694  -47.1872 H         1 UNK         0.0600 
    186 H186        5.8701   -7.6486  -45.1510 H         1 UNK         0.0600 
    187 H187        5.7371   -9.1264  -44.2033 H         1 UNK         0.0600 
    188 H188        6.8876   -9.0282  -45.5339 H         1 UNK         0.0600 
    189 H189        4.0739  -11.1772  -45.7111 H         1 UNK         0.3000 
    190 H190       -1.7364  -21.0278  -47.5684 H         1 UNK         0.3000 
    191 H191       -3.6970  -22.0047  -49.3699 H         1 UNK         0.0600 
    192 H192       -3.9326  -20.8538  -46.5432 H         1 UNK         0.0600 
    193 H193       -5.3133  -21.2290  -47.5514 H         1 UNK         0.0600 
    194 H194       -4.1699  -20.0039  -48.0637 H         1 UNK         0.0600 
    195 H195       -2.7948  -23.1510  -46.0790 H         1 UNK         0.3000 
    196 H196       -4.6392  -25.2794  -45.9135 H         1 UNK         0.0600 
    197 H197       -3.1341  -26.0993  -44.0924 H         1 UNK         0.0600 
    198 H198       -3.4291  -24.3721  -43.9559 H         1 UNK         0.0600 
    199 H199       -1.8932  -24.9555  -44.5912 H         1 UNK         0.0600 
    200 H200       -1.2672  -25.2493  -47.1449 H         1 UNK         0.3000 
    201 H201       -1.0974  -28.0072  -47.8192 H         1 UNK         0.0600 
    202 H202        0.8892  -26.5430  -47.6086 H         1 UNK         0.0600 
    203 H203        0.3696  -25.5843  -48.9919 H         1 UNK         0.0600 
    204 H204        0.8420  -27.2653  -49.2101 H         1 UNK         0.0600 
    205 H205       -2.1171  -25.1568  -49.7478 H         1 UNK         0.3000 
    206 H206       -2.7876  -26.7126  -52.1152 H         1 UNK         0.0600 
    207 H207       -1.8588  -24.4060  -52.2548 H         1 UNK         0.0600 
    208 H208       -3.4461  -24.4966  -53.0030 H         1 UNK         0.0600 
    209 H209       -3.2698  -23.7830  -51.4017 H         1 UNK         0.0600 
    210 H210       -4.1339  -27.8876  -50.1166 H         1 UNK         0.3000 
    211 H211       -6.0964  -28.7068  -49.4453 H         1 UNK         0.0600 
    212 H212       -6.8944  -27.9748  -52.3088 H         1 UNK         0.0600 
    213 H213       -7.6528  -29.2124  -51.3145 H         1 UNK         0.0600 
    214 H214       -5.9857  -29.4045  -51.8270 H         1 UNK         0.0600 
    215 H215       -5.8919  -26.1626  -48.4545 H         1 UNK         0.3000 
    216 H216       -6.9835  -24.6367  -47.2891 H         1 UNK         0.0600 
    217 H217       -9.3373  -24.9029  -46.6436 H         1 UNK         0.0600 
    218 H218       -8.5119  -26.4493  -46.5330 H         1 UNK         0.0600 
    219 H219       -9.5961  -26.1187  -47.8833 H         1 UNK         0.0600 
    220 H220       -6.0989  -23.7171  -49.4035 H         1 UNK         0.3000 
    221 H221       -6.0459  -22.0086  -50.8059 H         1 UNK         0.0600 
    222 H222       -8.6835  -21.0686  -49.5597 H         1 UNK         0.0600 
    223 H223       -7.0822  -20.7447  -48.9038 H         1 UNK         0.0600 
    224 H224       -7.5426  -20.0827  -50.4587 H         1 UNK         0.0600 
    225 H225       -6.8549  -24.3194  -52.0041 H         1 UNK         0.3000 
    226 H226       -9.1227  -23.8682  -53.7911 H         1 UNK         0.0600 
    227 H227       -8.3848  -26.0103  -54.7795 H         1 UNK         0.0600 
    228 H228       -6.9214  -25.9967  -53.8052 H         1 UNK         0.0600 
    229 H229       -8.4971  -26.1492  -53.0302 H         1 UNK         0.0600 
    230 H230       -8.4290  -21.7653  -54.4807 H         1 UNK         0.3000 
    231 H231       -7.7133  -20.2587  -55.9363 H         1 UNK         0.0600 
    232 H232       -8.3408  -21.8916  -57.7234 H         1 UNK         0.0600 
    233 H233       -6.7024  -22.5427  -57.7113 H         1 UNK         0.0600 
    234 H234       -6.9878  -20.8802  -58.2021 H         1 UNK         0.0600 
    235 H235       -6.2310  -20.5195  -53.7367 H         1 UNK         0.3000 
    236 H236       -3.5656  -19.6391  -54.5780 H         1 UNK         0.0600 
    237 H237       -3.2491  -22.0840  -54.0715 H         1 UNK         0.0600 
    238 H238       -2.4804  -21.0932  -52.8396 H         1 UNK         0.0600 
    239 H239       -4.0291  -21.8622  -52.5064 H         1 UNK         0.0600 
    240 H240       -2.6616  -18.1989  -53.0480 H         1 UNK         0.3000 
    241 H241       -4.5858  -16.8218  -51.3801 H         1 UNK         0.0600 
    242 H242       -2.2957  -19.0756  -48.8844 H         1 UNK         0.3800 
    243 H243       -2.2515  -19.3484  -50.6189 H         1 UNK         0.3800 
    244 H244       -3.1269  -15.4501  -52.6810 H         1 UNK         0.0800 
    245 H245       -2.7359  -15.1726  -51.0151 H         1 UNK         0.0800 
    246 H246       -0.1730  -14.9430  -50.3753 H         1 UNK         0.0800 
    247 H247       -0.7290  -16.4957  -49.8017 H         1 UNK         0.0800 
@<TRIPOS>BOND
     1    1    2 1    
     2    1  127 1    
     3    1  128 1    
     4    1  129 1    
     5    2    3 2    
     6    2    4 am   BACKBONE|DICT|INTERRES
     7    4    5 1    
     8    4  130 1    
     9    5    6 1    
    10    5   65 1    
    11    5  131 1    
    12    6    7 1    
    13    6  132 1    
    14    6  133 1    
    15    7    8 1    
    16    8    9 1    
    17    8  134 1    
    18    8  135 1    
    19    9   10 ar   
    20    9   14 ar   
    21   10   11 ar   
    22   10  136 1    
    23   11   12 ar   
    24   11  126 1    
    25   12   13 ar   
    26   12  137 1    
    27   13   14 ar   
    28   13   15 1    
    29   14  138 1    
    30   15   16 1    
    31   15  139 1    
    32   15  140 1    
    33   16   17 1    
    34   17   18 1    
    35   17  141 1    
    36   17  142 1    
    37   18   19 1    
    38   18   67 1    
    39   18  143 1    
    40   19   20 am   BACKBONE|DICT|INTERRES
    41   19  144 1    
    42   20   21 2    
    43   20   22 1    
    44   22   23 1    
    45   22   24 1    
    46   22  145 1    
    47   23  146 1    
    48   23  147 1    
    49   23  148 1    
    50   24   25 am   BACKBONE|DICT|INTERRES
    51   24  149 1    
    52   25   26 2    
    53   25   27 1    
    54   27   28 1    
    55   27   29 1    
    56   27  150 1    
    57   28  151 1    
    58   28  152 1    
    59   28  153 1    
    60   29   30 am   BACKBONE|DICT|INTERRES
    61   29  154 1    
    62   30   31 2    
    63   30   32 1    
    64   32   33 1    
    65   32   34 1    
    66   32  155 1    
    67   33  156 1    
    68   33  157 1    
    69   33  158 1    
    70   34   35 am   BACKBONE|DICT|INTERRES
    71   34  159 1    
    72   35   36 2    
    73   35   37 1    
    74   37   38 1    
    75   37   39 1    
    76   37  160 1    
    77   38  161 1    
    78   38  162 1    
    79   38  163 1    
    80   39   40 am   BACKBONE|DICT|INTERRES
    81   39  164 1    
    82   40   41 2    
    83   40   42 1    
    84   42   43 1    
    85   42   44 1    
    86   42  165 1    
    87   43  166 1    
    88   43  167 1    
    89   43  168 1    
    90   44   45 am   BACKBONE|DICT|INTERRES
    91   44  169 1    
    92   45   46 2    
    93   45   47 1    
    94   47   48 1    
    95   47   49 1    
    96   47  170 1    
    97   48  171 1    
    98   48  172 1    
    99   48  173 1    
   100   49   50 am   BACKBONE|DICT|INTERRES
   101   49  174 1    
   102   50   51 2    
   103   50   52 1    
   104   52   53 1    
   105   52   54 1    
   106   52  175 1    
   107   53  176 1    
   108   53  177 1    
   109   53  178 1    
   110   54   55 am   BACKBONE|DICT|INTERRES
   111   54  179 1    
   112   55   56 2    
   113   55   57 1    
   114   57   58 1    
   115   57   59 1    
   116   57  180 1    
   117   58  181 1    
   118   58  182 1    
   119   58  183 1    
   120   59   60 am   BACKBONE|DICT|INTERRES
   121   59  184 1    
   122   60   61 2    
   123   60   62 1    
   124   62   63 1    
   125   62   64 1    
   126   62  185 1    
   127   63  186 1    
   128   63  187 1    
   129   63  188 1    
   130   64   65 am   BACKBONE|DICT|INTERRES
   131   64  189 1    
   132   65   66 2    
   133   67   68 2    
   134   67   69 am   BACKBONE|DICT|INTERRES
   135   69   70 1    
   136   69  190 1    
   137   70   71 1    
   138   70   72 1    
   139   70  191 1    
   140   71  192 1    
   141   71  193 1    
   142   71  194 1    
   143   72   73 2    
   144   72   74 am   BACKBONE|DICT|INTERRES
   145   74   75 1    
   146   74  195 1    
   147   75   76 1    
   148   75   77 1    
   149   75  196 1    
   150   76  197 1    
   151   76  198 1    
   152   76  199 1    
   153   77   78 2    
   154   77   79 am   BACKBONE|DICT|INTERRES
   155   79   80 1    
   156   79  200 1    
   157   80   81 1    
   158   80   82 1    
   159   80  201 1    
   160   81  202 1    
   161   81  203 1    
   162   81  204 1    
   163   82   83 2    
   164   82   84 am   BACKBONE|DICT|INTERRES
   165   84   85 1    
   166   84  205 1    
   167   85   86 1    
   168   85   87 1    
   169   85  206 1    
   170   86  207 1    
   171   86  208 1    
   172   86  209 1    
   173   87   88 2    
   174   87   89 am   BACKBONE|DICT|INTERRES
   175   89   90 1    
   176   89  210 1    
   177   90   91 1    
   178   90   92 1    
   179   90  211 1    
   180   91  212 1    
   181   91  213 1    
   182   91  214 1    
   183   92   93 2    
   184   92   94 am   BACKBONE|DICT|INTERRES
   185   94   95 1    
   186   94  215 1    
   187   95   96 1    
   188   95   97 1    
   189   95  216 1    
   190   96  217 1    
   191   96  218 1    
   192   96  219 1    
   193   97   98 2    
   194   97   99 am   BACKBONE|DICT|INTERRES
   195   99  100 1    
   196   99  220 1    
   197  100  101 1    
   198  100  102 1    
   199  100  221 1    
   200  101  222 1    
   201  101  223 1    
   202  101  224 1    
   203  102  103 2    
   204  102  104 am   BACKBONE|DICT|INTERRES
   205  104  105 1    
   206  104  225 1    
   207  105  106 1    
   208  105  107 1    
   209  105  226 1    
   210  106  227 1    
   211  106  228 1    
   212  106  229 1    
   213  107  108 2    
   214  107  109 am   BACKBONE|DICT|INTERRES
   215  109  110 1    
   216  109  230 1    
   217  110  111 1    
   218  110  112 1    
   219  110  231 1    
   220  111  232 1    
   221  111  233 1    
   222  111  234 1    
   223  112  113 2    
   224  112  114 am   BACKBONE|DICT|INTERRES
   225  114  115 1    
   226  114  235 1    
   227  115  116 1    
   228  115  117 1    
   229  115  236 1    
   230  116  237 1    
   231  116  238 1    
   232  116  239 1    
   233  117  118 2    
   234  117  119 am   BACKBONE|DICT|INTERRES
   235  119  120 1    
   236  119  240 1    
   237  120  121 1    
   238  120  124 1    
   239  120  241 1    
   240  121  122 am   BACKBONE|DICT|INTERRES
   241  121  123 2    
   242  122  242 1    
   243  122  243 1    
   244  124  125 1    
   245  124  244 1    
   246  124  245 1    
   247  125  126 1    
   248  126  246 1    
   249  126  247 1    
@<TRIPOS>SUBSTRUCTURE
     1 UNK         1 GROUP             0       ****    0 ROOT    
