@<TRIPOS>MOLECULE
3R540
247   249    1
SMALL
USER_CHARGES


@<TRIPOS>ATOM
      1 CA          3.6193  -15.4078  -47.2622 C.3       0 UNK        -0.1800 
      2 C           2.2373  -15.7849  -47.7733 C.2       0 UNK         0.5000 
      3 O           1.4976  -16.4848  -47.0831 O.2       0 UNK        -0.5000 
      4 N           1.8974  -15.3006  -48.9756 N.am      1 UNK        -0.5000 
      5 CA          0.7122  -15.6238  -49.7884 C.3       1 UNK         0.1400 
      6 C6          0.6525  -14.7400  -51.0606 C.3       23 UNK        -0.0398 
      7 S7          2.1063  -14.9915  -52.1419 S.3       23 UNK        -0.2404 
      8 C8          1.4318  -16.0480  -53.4673 C.3       23 UNK        -0.0205 
      9 C9          0.8068  -17.3201  -52.9165 C.ar      23 UNK        -0.0193 
     10 C10        -0.5817  -17.4263  -52.8105 C.ar      23 UNK        -0.1150 
     11 C11        -1.1662  -18.5617  -52.2474 C.ar      23 UNK        -0.0193 
     12 C12        -0.3532  -19.6050  -51.7969 C.ar      23 UNK        -0.1150 
     13 C13         1.0390  -19.5149  -51.9083 C.ar      23 UNK        -0.0193 
     14 C14         1.6124  -18.3749  -52.4798 C.ar      23 UNK        -0.1150 
     15 C15         1.9275  -20.6306  -51.3773 C.3       23 UNK        -0.0205 
     16 S16         2.8593  -20.1361  -49.8855 S.3       23 UNK        -0.2404 
     17 C17         1.5343  -19.5425  -48.7801 C.3       23 UNK        -0.0398 
     18 CA          0.6659  -20.6793  -48.1897 C.3       11 UNK         0.1400 
     19 N           1.3664  -21.4281  -47.1430 N.am      11 UNK        -0.5000 
     20 C           1.9490  -22.6234  -47.3229 C.2       10 UNK         0.5000 
     21 O           1.9417  -23.2354  -48.3910 O.2       10 UNK        -0.5000 
     22 CA          2.6797  -23.2574  -46.1193 C.3       10 UNK         0.1400 
     23 CB          4.1981  -23.0660  -46.2571 C.3       10 UNK        -0.1800 
     24 N           2.2579  -22.7272  -44.8238 N.am      10 UNK        -0.5000 
     25 C           1.0420  -22.8830  -44.2856 C.2       9 UNK         0.5000 
     26 O           0.1667  -23.5917  -44.7799 O.2       9 UNK        -0.5000 
     27 CA          0.7326  -22.0824  -43.0041 C.3       9 UNK         0.1400 
     28 CB          0.7176  -23.0055  -41.7770 C.3       9 UNK        -0.1800 
     29 N           1.6317  -20.9543  -42.7377 N.am      9 UNK        -0.5000 
     30 C           1.8429  -19.8951  -43.5291 C.2       8 UNK         0.5000 
     31 O           1.3596  -19.7949  -44.6582 O.2       8 UNK        -0.5000 
     32 CA          2.7369  -18.7742  -42.9571 C.3       8 UNK         0.1400 
     33 CB          2.9236  -17.6194  -43.9543 C.3       8 UNK        -0.1800 
     34 N           2.2131  -18.2373  -41.6972 N.am      8 UNK        -0.5000 
     35 C           2.2834  -18.8492  -40.5045 C.2       7 UNK         0.5000 
     36 O           2.8177  -19.9489  -40.3430 O.2       7 UNK        -0.5000 
     37 CA          1.6301  -18.1262  -39.3090 C.3       7 UNK         0.1400 
     38 CB          2.0520  -18.7034  -37.9416 C.3       7 UNK        -0.1800 
     39 N           1.8216  -16.6755  -39.3493 N.am      7 UNK        -0.5000 
     40 C           2.9794  -15.9971  -39.3027 C.2       6 UNK         0.5000 
     41 O           4.0803  -16.5284  -39.1531 O.2       6 UNK        -0.5000 
     42 CA          2.9044  -14.4656  -39.4726 C.3       6 UNK         0.1400 
     43 CB          3.7040  -14.0251  -40.7097 C.3       6 UNK        -0.1800 
     44 N           1.5253  -13.9917  -39.6116 N.am      6 UNK        -0.5000 
     45 C           0.7391  -13.6050  -38.5970 C.2       5 UNK         0.5000 
     46 O           1.1208  -13.5244  -37.4292 O.2       5 UNK        -0.5000 
     47 CA         -0.7295  -13.2762  -38.9373 C.3       5 UNK         0.1400 
     48 CB         -0.9078  -11.7636  -39.1377 C.3       5 UNK        -0.1800 
     49 N          -1.2236  -13.9748  -40.1273 N.am      5 UNK        -0.5000 
     50 C          -1.4083  -15.2997  -40.2238 C.2       4 UNK         0.5000 
     51 O          -1.2094  -16.0857  -39.2985 O.2       4 UNK        -0.5000 
     52 CA         -1.8147  -15.8427  -41.6070 C.3       4 UNK         0.1400 
     53 CB         -3.3431  -15.8773  -41.7506 C.3       4 UNK        -0.1800 
     54 N          -1.2412  -15.0699  -42.7114 N.am      4 UNK        -0.5000 
     55 C           0.0669  -14.9528  -42.9708 C.2       3 UNK         0.5000 
     56 O           0.9389  -15.5205  -42.3088 O.2       3 UNK        -0.5000 
     57 CA          0.4419  -14.0346  -44.1515 C.3       3 UNK         0.1400 
     58 CB          1.9578  -13.9229  -44.3762 C.3       3 UNK        -0.1800 
     59 N          -0.1993  -14.4500  -45.4012 N.am      3 UNK        -0.5000 
     60 C          -1.4530  -14.1355  -45.7602 C.2       2 UNK         0.5000 
     61 O          -2.2280  -13.5283  -45.0191 O.2       2 UNK        -0.5000 
     62 CA         -1.9104  -14.5570  -47.1686 C.3       2 UNK         0.1400 
     63 CB         -2.9573  -13.5999  -47.7687 C.3       2 UNK        -0.1800 
     64 N          -0.7658  -14.6628  -48.0721 N.am      2 UNK        -0.5000 
     65 C          -0.6379  -15.5787  -49.0382 C.2       1 UNK         0.5000 
     66 O          -1.5221  -16.3813  -49.3367 O.2       1 UNK        -0.5000 
     67 C          -0.6750  -20.1113  -47.6926 C.2       11 UNK         0.5000 
     68 O          -1.6466  -20.1405  -48.4453 O.2       11 UNK        -0.5000 
     69 N          -0.7155  -19.5699  -46.4686 N.am      12 UNK        -0.5000 
     70 CA         -1.8559  -18.8044  -45.9674 C.3       12 UNK         0.1400 
     71 CB         -1.3879  -17.9091  -44.8108 C.3       12 UNK        -0.1800 
     72 C          -3.0389  -19.6820  -45.5250 C.2       12 UNK         0.5000 
     73 O          -4.1890  -19.3062  -45.7568 O.2       12 UNK        -0.5000 
     74 N          -2.7454  -20.8220  -44.8835 N.am      13 UNK        -0.5000 
     75 CA         -3.7425  -21.7334  -44.3186 C.3       13 UNK         0.1400 
     76 CB         -3.0568  -22.7426  -43.3849 C.3       13 UNK        -0.1800 
     77 C          -4.5327  -22.4458  -45.4279 C.2       13 UNK         0.5000 
     78 O          -3.9539  -23.2443  -46.1669 O.2       13 UNK        -0.5000 
     79 N          -5.8242  -22.1027  -45.5532 N.am      14 UNK        -0.5000 
     80 CA         -6.7759  -22.5881  -46.5649 C.3       14 UNK         0.1400 
     81 CB         -7.1362  -24.0635  -46.2928 C.3       14 UNK        -0.1800 
     82 C          -6.2961  -22.3561  -48.0158 C.2       14 UNK         0.5000 
     83 O          -6.5765  -23.1706  -48.8987 O.2       14 UNK        -0.5000 
     84 N          -5.5126  -21.2827  -48.2165 N.am      15 UNK        -0.5000 
     85 CA         -4.7908  -20.9259  -49.4454 C.3       15 UNK         0.1400 
     86 CB         -5.7941  -20.5225  -50.5454 C.3       15 UNK        -0.1800 
     87 C          -3.8024  -22.0160  -49.9286 C.2       15 UNK         0.5000 
     88 O          -3.4596  -22.0477  -51.1125 O.2       15 UNK        -0.5000 
     89 N          -3.4174  -22.9321  -49.0236 N.am      16 UNK        -0.5000 
     90 CA         -2.6768  -24.1704  -49.2715 C.3       16 UNK         0.1400 
     91 CB         -1.1935  -23.8587  -49.5340 C.3       16 UNK        -0.1800 
     92 C          -3.3417  -25.0608  -50.3459 C.2       16 UNK         0.5000 
     93 O          -2.6502  -25.6702  -51.1623 O.2       16 UNK        -0.5000 
     94 N          -4.6852  -25.0902  -50.3286 N.am      17 UNK        -0.5000 
     95 CA         -5.5726  -25.7257  -51.3077 C.3       17 UNK         0.1400 
     96 CB         -5.3887  -27.2582  -51.3244 C.3       17 UNK        -0.1800 
     97 C          -5.4670  -25.0751  -52.7044 C.2       17 UNK         0.5000 
     98 O          -5.4723  -25.7774  -53.7168 O.2       17 UNK        -0.5000 
     99 N          -5.3822  -23.7354  -52.7163 N.am      18 UNK        -0.5000 
    100 CA        -5.2449  -22.8521  -53.8791 C.3       18 UNK         0.1400 
    101 CB        -6.4938  -22.9323  -54.7814 C.3       18 UNK        -0.1800 
    102 C         -3.9241  -23.0932  -54.6375 C.2       18 UNK         0.5000 
    103 O         -3.9291  -23.2711  -55.8578 O.2       18 UNK        -0.5000 
    104 N         -2.8127  -23.1066  -53.8872 N.am      19 UNK        -0.5000 
    105 CA        -1.4727  -23.4807  -54.3559 C.3       19 UNK         0.1400 
    106 CB        -0.4972  -23.4612  -53.1716 C.3       19 UNK        -0.1800 
    107 C         -0.9151  -22.6287  -55.5123 C.2       19 UNK         0.5000 
    108 O         -0.1444  -23.1463  -56.3219 O.2       19 UNK        -0.5000 
    109 N         -1.3186  -21.3559  -55.5770 N.am      20 UNK        -0.5000 
    110 CA        -0.9498  -20.4066  -56.6264 C.3       20 UNK         0.1400 
    111 CB        -0.0239  -19.3356  -56.0229 C.3       20 UNK        -0.1800 
    112 C         -2.2153  -19.8026  -57.2626 C.2       20 UNK         0.5000 
    113 O         -2.2237  -18.6189  -57.6048 O.2       20 UNK        -0.5000 
    114 N         -3.2861  -20.6082  -57.3569 N.am      21 UNK        -0.5000 
    115 CA        -4.6598  -20.2768  -57.7698 C.3       21 UNK         0.1400 
    116 CB        -4.7179  -19.6697  -59.1846 C.3       21 UNK        -0.1800 
    117 C         -5.4069  -19.4051  -56.7408 C.2       21 UNK         0.5000 
    118 O         -6.5477  -19.7173  -56.4013 O.2       21 UNK        -0.5000 
    119 N         -4.7283  -18.3767  -56.2192 N.am      22 UNK        -0.5000 
    120 CA        -5.0625  -17.6333  -54.9919 C.3       22 UNK         0.1400 
    121 C         -6.3558  -16.7648  -55.0619 C.2       22 UNK         0.5000 
    122 N         -6.8941  -16.4766  -56.2402 N.am      22 UNK        -0.7600 
    123 O         -6.8624  -16.3130  -54.0384 O.2       22 UNK        -0.5000 
    124 C124       -5.0111  -18.5425  -53.7297 C.3       23 UNK        -0.0398 
    125 S125       -3.4126  -19.4231  -53.5770 S.3       23 UNK        -0.2404 
    126 C126       -2.6756  -18.6393  -52.1123 C.3       23 UNK        -0.0205 
    127 H127        4.3559  -15.4510  -48.0647 H         1 UNK         0.0600 
    128 H128        3.9383  -16.0926  -46.4766 H         1 UNK         0.0600 
    129 H129        3.6126  -14.3974  -46.8552 H         1 UNK         0.0600 
    130 H130        2.5726  -14.7227  -49.4563 H         1 UNK         0.3000 
    131 H131        0.8406  -16.6581  -50.1081 H         1 UNK         0.0600 
    132 H132       -0.2572  -14.9266  -51.6327 H         1 UNK         0.0800 
    133 H133        0.6136  -13.6848  -50.7846 H         1 UNK         0.0800 
    134 H134        2.2341  -16.3074  -54.1594 H         1 UNK         0.0800 
    135 H135        0.7021  -15.4788  -54.0454 H         1 UNK         0.0800 
    136 H136       -1.2115  -16.6168  -53.1513 H         1 UNK         0.1150 
    137 H137       -0.8088  -20.4756  -51.3453 H         1 UNK         0.1150 
    138 H138        2.6880  -18.2930  -52.5497 H         1 UNK         0.1150 
    139 H139        1.3400  -21.5225  -51.1549 H         1 UNK         0.0800 
    140 H140        2.6355  -20.9231  -52.1538 H         1 UNK         0.0800 
    141 H141        0.9270  -18.8235  -49.3299 H         1 UNK         0.0800 
    142 H142        1.9981  -18.9722  -47.9740 H         1 UNK         0.0800 
    143 H143        0.3979  -21.3561  -49.0018 H         1 UNK         0.0600 
    144 H144        1.4242  -20.9872  -46.2315 H         1 UNK         0.3000 
    145 H145        2.4650  -24.3280  -46.1329 H         1 UNK         0.0600 
    146 H146        4.4733  -22.0107  -46.2361 H         1 UNK         0.0600 
    147 H147        4.7353  -23.5712  -45.4542 H         1 UNK         0.0600 
    148 H148        4.5603  -23.4800  -47.1992 H         1 UNK         0.0600 
    149 H149        2.9125  -22.1268  -44.3452 H         1 UNK         0.3000 
    150 H150       -0.2674  -21.6650  -43.1276 H         1 UNK         0.0600 
    151 H151        0.0257  -23.8369  -41.9194 H         1 UNK         0.0600 
    152 H152        0.3982  -22.4689  -40.8834 H         1 UNK         0.0600 
    153 H153        1.7042  -23.4272  -41.5813 H         1 UNK         0.0600 
    154 H154        2.0729  -20.9332  -41.8223 H         1 UNK         0.3000 
    155 H155        3.7204  -19.2084  -42.7671 H         1 UNK         0.0600 
    156 H156        3.4046  -17.9673  -44.8692 H         1 UNK         0.0600 
    157 H157        3.5480  -16.8298  -43.5360 H         1 UNK         0.0600 
    158 H158        1.9671  -17.1803  -44.2389 H         1 UNK         0.0600 
    159 H159        1.7556  -17.3330  -41.7583 H         1 UNK         0.3000 
    160 H160        0.5569  -18.2910  -39.4132 H         1 UNK         0.0600 
    161 H161        1.5633  -18.1743  -37.1234 H         1 UNK         0.0600 
    162 H162        3.1294  -18.6394  -37.7872 H         1 UNK         0.0600 
    163 H163        1.7731  -19.7545  -37.8588 H         1 UNK         0.0600 
    164 H164        0.9703  -16.1403  -39.4601 H         1 UNK         0.3000 
    165 H165        3.3634  -14.0112  -38.5922 H         1 UNK         0.0600 
    166 H166        3.3804  -14.5559  -41.6049 H         1 UNK         0.0600 
    167 H167        3.6012  -12.9553  -40.8922 H         1 UNK         0.0600 
    168 H168        4.7669  -14.2313  -40.5789 H         1 UNK         0.0600 
    169 H169        1.1252  -14.0697  -40.5367 H         1 UNK         0.3000 
    170 H170       -1.3408  -13.5840  -38.0865 H         1 UNK         0.0600 
    171 H171       -0.3331  -11.3997  -39.9904 H         1 UNK         0.0600 
    172 H172       -1.9545  -11.5079  -39.3033 H         1 UNK         0.0600 
    173 H173       -0.5753  -11.2110  -38.2579 H         1 UNK         0.0600 
    174 H174       -1.4124  -13.4066  -40.9401 H         1 UNK         0.3000 
    175 H175       -1.4393  -16.8654  -41.6837 H         1 UNK         0.0600 
    176 H176       -3.7738  -14.8760  -41.7110 H         1 UNK         0.0600 
    177 H177       -3.6421  -16.3331  -42.6944 H         1 UNK         0.0600 
    178 H178       -3.7973  -16.4629  -40.9502 H         1 UNK         0.0600 
    179 H179       -1.8863  -14.5682  -43.3131 H         1 UNK         0.3000 
    180 H180        0.0878  -13.0347  -43.8919 H         1 UNK         0.0600 
    181 H181        2.4043  -14.8855  -44.6188 H         1 UNK         0.0600 
    182 H182        2.4573  -13.5387  -43.4874 H         1 UNK         0.0600 
    183 H183        2.1824  -13.2337  -45.1899 H         1 UNK         0.0600 
    184 H184        0.3436  -15.0576  -46.0052 H         1 UNK         0.3000 
    185 H185       -2.3714  -15.5395  -47.0479 H         1 UNK         0.0600 
    186 H186       -3.2844  -13.9397  -48.7515 H         1 UNK         0.0600 
    187 H187       -3.8452  -13.5395  -47.1381 H         1 UNK         0.0600 
    188 H188       -2.5595  -12.5905  -47.8781 H         1 UNK         0.0600 
    189 H189        0.0069  -14.0379  -47.8891 H         1 UNK         0.3000 
    190 H190        0.1155  -19.5706  -45.8798 H         1 UNK         0.3000 
    191 H191       -2.2075  -18.1516  -46.7700 H         1 UNK         0.0600 
    192 H192       -1.0720  -18.4930  -43.9455 H         1 UNK         0.0600 
    193 H193       -0.5470  -17.2854  -45.1136 H         1 UNK         0.0600 
    194 H194       -2.1886  -17.2444  -44.4865 H         1 UNK         0.0600 
    195 H195       -1.7780  -21.0939  -44.8034 H         1 UNK         0.3000 
    196 H196       -4.4354  -21.1443  -43.7136 H         1 UNK         0.0600 
    197 H197       -2.5511  -22.2401  -42.5606 H         1 UNK         0.0600 
    198 H198       -2.3238  -23.3506  -43.9150 H         1 UNK         0.0600 
    199 H199       -3.7873  -23.4239  -42.9472 H         1 UNK         0.0600 
    200 H200       -6.1900  -21.4021  -44.9226 H         1 UNK         0.3000 
    201 H201       -7.6845  -21.9960  -46.4475 H         1 UNK         0.0600 
    202 H202       -7.9363  -24.4008  -46.9529 H         1 UNK         0.0600 
    203 H203       -7.4833  -24.2022  -45.2690 H         1 UNK         0.0600 
    204 H204       -6.2824  -24.7237  -46.4498 H         1 UNK         0.0600 
    205 H205       -5.3179  -20.6929  -47.4169 H         1 UNK         0.3000 
    206 H206       -4.1893  -20.0489  -49.2052 H         1 UNK         0.0600 
    207 H207       -5.2774  -20.1478  -51.4256 H         1 UNK         0.0600 
    208 H208       -6.4589  -19.7303  -50.2017 H         1 UNK         0.0600 
    209 H209       -6.4103  -21.3624  -50.8665 H         1 UNK         0.0600 
    210 H210       -3.7421  -22.8260  -48.0670 H         1 UNK         0.3000 
    211 H211       -2.7267  -24.7463  -48.3464 H         1 UNK         0.0600 
    212 H212       -0.7454  -23.4141  -48.6471 H         1 UNK         0.0600 
    213 H213       -0.6230  -24.7592  -49.7634 H         1 UNK         0.0600 
    214 H214       -1.0629  -23.1574  -50.3565 H         1 UNK         0.0600 
    215 H215       -5.1605  -24.5220  -49.6347 H         1 UNK         0.3000 
    216 H216       -6.5880  -25.5262  -50.9619 H         1 UNK         0.0600 
    217 H217       -6.1548  -27.7345  -51.9372 H         1 UNK         0.0600 
    218 H218       -4.4205  -27.5495  -51.7320 H         1 UNK         0.0600 
    219 H219       -5.4708  -27.6762  -50.3212 H         1 UNK         0.0600 
    220 H220       -5.3045  -23.2716  -51.8218 H         1 UNK         0.3000 
    221 H221       -5.1922  -21.8364  -53.4871 H         1 UNK         0.0600 
    222 H222       -6.6177  -23.9205  -55.2243 H         1 UNK         0.0600 
    223 H223       -7.3993  -22.6978  -54.2220 H         1 UNK         0.0600 
    224 H224       -6.4273  -22.2204  -55.6028 H         1 UNK         0.0600 
    225 H225       -2.9076  -22.9024  -52.8966 H         1 UNK         0.3000 
    226 H226       -1.5372  -24.5074  -54.7215 H         1 UNK         0.0600 
    227 H227       -0.7646  -24.2185  -52.4364 H         1 UNK         0.0600 
    228 H228        0.5229  -23.6753  -53.4931 H         1 UNK         0.0600 
    229 H229       -0.4898  -22.4903  -52.6769 H         1 UNK         0.0600 
    230 H230       -1.9571  -21.0127  -54.8704 H         1 UNK         0.3000 
    231 H231       -0.4108  -20.9093  -57.4314 H         1 UNK         0.0600 
    232 H232        0.3501  -18.6582  -56.7913 H         1 UNK         0.0600 
    233 H233        0.8415  -19.7861  -55.5365 H         1 UNK         0.0600 
    234 H234       -0.5482  -18.7344  -55.2808 H         1 UNK         0.0600 
    235 H235       -3.1812  -21.5514  -56.9995 H         1 UNK         0.3000 
    236 H236       -5.1853  -21.2325  -57.8070 H         1 UNK         0.0600 
    237 H237       -4.2052  -20.3046  -59.9072 H         1 UNK         0.0600 
    238 H238       -5.7516  -19.5677  -59.5171 H         1 UNK         0.0600 
    239 H239       -4.2669  -18.6783  -59.2281 H         1 UNK         0.0600 
    240 H240       -3.8041  -18.2013  -56.6024 H         1 UNK         0.3000 
    241 H241       -4.2612  -16.9020  -54.8820 H         1 UNK         0.0600 
    242 H242       -7.7239  -15.9063  -56.2844 H         1 UNK         0.3800 
    243 H243       -6.4893  -16.8445  -57.0866 H         1 UNK         0.3800 
    244 H244       -5.1908  -17.9597  -52.8254 H         1 UNK         0.0800 
    245 H245       -5.8093  -19.2850  -53.7666 H         1 UNK         0.0800 
    246 H246       -2.9424  -19.2063  -51.2201 H         1 UNK         0.0800 
    247 H247       -3.0771  -17.6351  -51.9703 H         1 UNK         0.0800 
@<TRIPOS>BOND
     1    1    2 1    
     2    1  127 1    
     3    1  128 1    
     4    1  129 1    
     5    2    3 2    
     6    2    4 am   BACKBONE|DICT|INTERRES
     7    4    5 1    
     8    4  130 1    
     9    5    6 1    
    10    5   65 1    
    11    5  131 1    
    12    6    7 1    
    13    6  132 1    
    14    6  133 1    
    15    7    8 1    
    16    8    9 1    
    17    8  134 1    
    18    8  135 1    
    19    9   10 ar   
    20    9   14 ar   
    21   10   11 ar   
    22   10  136 1    
    23   11   12 ar   
    24   11  126 1    
    25   12   13 ar   
    26   12  137 1    
    27   13   14 ar   
    28   13   15 1    
    29   14  138 1    
    30   15   16 1    
    31   15  139 1    
    32   15  140 1    
    33   16   17 1    
    34   17   18 1    
    35   17  141 1    
    36   17  142 1    
    37   18   19 1    
    38   18   67 1    
    39   18  143 1    
    40   19   20 am   BACKBONE|DICT|INTERRES
    41   19  144 1    
    42   20   21 2    
    43   20   22 1    
    44   22   23 1    
    45   22   24 1    
    46   22  145 1    
    47   23  146 1    
    48   23  147 1    
    49   23  148 1    
    50   24   25 am   BACKBONE|DICT|INTERRES
    51   24  149 1    
    52   25   26 2    
    53   25   27 1    
    54   27   28 1    
    55   27   29 1    
    56   27  150 1    
    57   28  151 1    
    58   28  152 1    
    59   28  153 1    
    60   29   30 am   BACKBONE|DICT|INTERRES
    61   29  154 1    
    62   30   31 2    
    63   30   32 1    
    64   32   33 1    
    65   32   34 1    
    66   32  155 1    
    67   33  156 1    
    68   33  157 1    
    69   33  158 1    
    70   34   35 am   BACKBONE|DICT|INTERRES
    71   34  159 1    
    72   35   36 2    
    73   35   37 1    
    74   37   38 1    
    75   37   39 1    
    76   37  160 1    
    77   38  161 1    
    78   38  162 1    
    79   38  163 1    
    80   39   40 am   BACKBONE|DICT|INTERRES
    81   39  164 1    
    82   40   41 2    
    83   40   42 1    
    84   42   43 1    
    85   42   44 1    
    86   42  165 1    
    87   43  166 1    
    88   43  167 1    
    89   43  168 1    
    90   44   45 am   BACKBONE|DICT|INTERRES
    91   44  169 1    
    92   45   46 2    
    93   45   47 1    
    94   47   48 1    
    95   47   49 1    
    96   47  170 1    
    97   48  171 1    
    98   48  172 1    
    99   48  173 1    
   100   49   50 am   BACKBONE|DICT|INTERRES
   101   49  174 1    
   102   50   51 2    
   103   50   52 1    
   104   52   53 1    
   105   52   54 1    
   106   52  175 1    
   107   53  176 1    
   108   53  177 1    
   109   53  178 1    
   110   54   55 am   BACKBONE|DICT|INTERRES
   111   54  179 1    
   112   55   56 2    
   113   55   57 1    
   114   57   58 1    
   115   57   59 1    
   116   57  180 1    
   117   58  181 1    
   118   58  182 1    
   119   58  183 1    
   120   59   60 am   BACKBONE|DICT|INTERRES
   121   59  184 1    
   122   60   61 2    
   123   60   62 1    
   124   62   63 1    
   125   62   64 1    
   126   62  185 1    
   127   63  186 1    
   128   63  187 1    
   129   63  188 1    
   130   64   65 am   BACKBONE|DICT|INTERRES
   131   64  189 1    
   132   65   66 2    
   133   67   68 2    
   134   67   69 am   BACKBONE|DICT|INTERRES
   135   69   70 1    
   136   69  190 1    
   137   70   71 1    
   138   70   72 1    
   139   70  191 1    
   140   71  192 1    
   141   71  193 1    
   142   71  194 1    
   143   72   73 2    
   144   72   74 am   BACKBONE|DICT|INTERRES
   145   74   75 1    
   146   74  195 1    
   147   75   76 1    
   148   75   77 1    
   149   75  196 1    
   150   76  197 1    
   151   76  198 1    
   152   76  199 1    
   153   77   78 2    
   154   77   79 am   BACKBONE|DICT|INTERRES
   155   79   80 1    
   156   79  200 1    
   157   80   81 1    
   158   80   82 1    
   159   80  201 1    
   160   81  202 1    
   161   81  203 1    
   162   81  204 1    
   163   82   83 2    
   164   82   84 am   BACKBONE|DICT|INTERRES
   165   84   85 1    
   166   84  205 1    
   167   85   86 1    
   168   85   87 1    
   169   85  206 1    
   170   86  207 1    
   171   86  208 1    
   172   86  209 1    
   173   87   88 2    
   174   87   89 am   BACKBONE|DICT|INTERRES
   175   89   90 1    
   176   89  210 1    
   177   90   91 1    
   178   90   92 1    
   179   90  211 1    
   180   91  212 1    
   181   91  213 1    
   182   91  214 1    
   183   92   93 2    
   184   92   94 am   BACKBONE|DICT|INTERRES
   185   94   95 1    
   186   94  215 1    
   187   95   96 1    
   188   95   97 1    
   189   95  216 1    
   190   96  217 1    
   191   96  218 1    
   192   96  219 1    
   193   97   98 2    
   194   97   99 am   BACKBONE|DICT|INTERRES
   195   99  100 1    
   196   99  220 1    
   197  100  101 1    
   198  100  102 1    
   199  100  221 1    
   200  101  222 1    
   201  101  223 1    
   202  101  224 1    
   203  102  103 2    
   204  102  104 am   BACKBONE|DICT|INTERRES
   205  104  105 1    
   206  104  225 1    
   207  105  106 1    
   208  105  107 1    
   209  105  226 1    
   210  106  227 1    
   211  106  228 1    
   212  106  229 1    
   213  107  108 2    
   214  107  109 am   BACKBONE|DICT|INTERRES
   215  109  110 1    
   216  109  230 1    
   217  110  111 1    
   218  110  112 1    
   219  110  231 1    
   220  111  232 1    
   221  111  233 1    
   222  111  234 1    
   223  112  113 2    
   224  112  114 am   BACKBONE|DICT|INTERRES
   225  114  115 1    
   226  114  235 1    
   227  115  116 1    
   228  115  117 1    
   229  115  236 1    
   230  116  237 1    
   231  116  238 1    
   232  116  239 1    
   233  117  118 2    
   234  117  119 am   BACKBONE|DICT|INTERRES
   235  119  120 1    
   236  119  240 1    
   237  120  121 1    
   238  120  124 1    
   239  120  241 1    
   240  121  122 am   BACKBONE|DICT|INTERRES
   241  121  123 2    
   242  122  242 1    
   243  122  243 1    
   244  124  125 1    
   245  124  244 1    
   246  124  245 1    
   247  125  126 1    
   248  126  246 1    
   249  126  247 1    
@<TRIPOS>SUBSTRUCTURE
     1 UNK         1 GROUP             0       ****    0 ROOT    
