@<TRIPOS>MOLECULE
3R540
247   249    1
SMALL
USER_CHARGES


@<TRIPOS>ATOM
      1 CA          0.2111   -9.3277  -46.2658 C.3       0 UNK        -0.1800 
      2 C           0.1394  -10.8297  -46.4975 C.2       0 UNK         0.5000 
      3 O          -0.9549  -11.3939  -46.5219 O.2       0 UNK        -0.5000 
      4 N           1.3012  -11.4804  -46.6510 N.am      1 UNK        -0.5000 
      5 CA          1.4737  -12.9236  -46.8555 C.3       1 UNK         0.1400 
      6 C6          0.9927  -13.3884  -48.2609 C.3       23 UNK        -0.0398 
      7 S7          1.9459  -14.8072  -48.9004 S.3       23 UNK        -0.2404 
      8 C8          0.8130  -16.2063  -48.6283 C.3       23 UNK        -0.0205 
      9 C9          1.2623  -17.4363  -49.4043 C.ar      23 UNK        -0.0193 
     10 C10         0.5195  -17.8790  -50.5017 C.ar      23 UNK        -0.1150 
     11 C11         0.9091  -19.0160  -51.2158 C.ar      23 UNK        -0.0193 
     12 C12         2.0742  -19.6926  -50.8413 C.ar      23 UNK        -0.1150 
     13 C13         2.8405  -19.2503  -49.7592 C.ar      23 UNK        -0.0193 
     14 C14         2.4195  -18.1301  -49.0346 C.ar      23 UNK        -0.1150 
     15 C15         4.1536  -19.9448  -49.4156 C.3       23 UNK        -0.0205 
     16 S16         3.9370  -21.6594  -48.8364 S.3       23 UNK        -0.2404 
     17 C17         3.1549  -21.3905  -47.2116 C.3       23 UNK        -0.0398 
     18 CA          1.9806  -22.3497  -46.9045 C.3       11 UNK         0.1400 
     19 N           1.5247  -22.1939  -45.5215 N.am      11 UNK        -0.5000 
     20 C           0.6583  -22.9984  -44.8903 C.2       10 UNK         0.5000 
     21 O           0.2032  -24.0338  -45.3749 O.2       10 UNK        -0.5000 
     22 CA          0.1951  -22.5497  -43.4903 C.3       10 UNK         0.1400 
     23 CB          1.1777  -23.0257  -42.4101 C.3       10 UNK        -0.1800 
     24 N           0.0203  -21.0994  -43.3863 N.am      10 UNK        -0.5000 
     25 C          -0.8730  -20.3878  -44.0881 C.2       9 UNK         0.5000 
     26 O          -1.6845  -20.8860  -44.8656 O.2       9 UNK        -0.5000 
     27 CA         -0.8081  -18.8578  -43.9496 C.3       9 UNK         0.1400 
     28 CB         -1.4958  -18.3873  -42.6599 C.3       9 UNK        -0.1800 
     29 N           0.5663  -18.3557  -44.0078 N.am      9 UNK        -0.5000 
     30 C           1.3485  -18.4517  -45.0929 C.2       8 UNK         0.5000 
     31 O           0.9574  -18.9004  -46.1685 O.2       8 UNK        -0.5000 
     32 CA          2.8252  -18.0435  -44.9397 C.3       8 UNK         0.1400 
     33 CB          3.0312  -16.5493  -45.2073 C.3       8 UNK        -0.1800 
     34 N           3.3476  -18.3739  -43.6167 N.am      8 UNK        -0.5000 
     35 C           3.6050  -19.6207  -43.1999 C.2       7 UNK         0.5000 
     36 O           3.4815  -20.6170  -43.9116 O.2       7 UNK        -0.5000 
     37 CA          4.0167  -19.7771  -41.7247 C.3       7 UNK         0.1400 
     38 CB          5.5226  -19.5300  -41.5523 C.3       7 UNK        -0.1800 
     39 N           3.2710  -18.8737  -40.8450 N.am      7 UNK        -0.5000 
     40 C           1.9507  -18.9552  -40.6254 C.2       6 UNK         0.5000 
     41 O           1.2404  -19.8441  -41.0926 O.2       6 UNK        -0.5000 
     42 CA          1.3093  -17.8354  -39.7847 C.3       6 UNK         0.1400 
     43 CB          1.2745  -18.2300  -38.3011 C.3       6 UNK        -0.1800 
     44 N           1.9939  -16.5481  -39.9286 N.am      6 UNK        -0.5000 
     45 C           2.0037  -15.8088  -41.0458 C.2       5 UNK         0.5000 
     46 O           1.4295  -16.1313  -42.0878 O.2       5 UNK        -0.5000 
     47 CA          2.8675  -14.5429  -41.0036 C.3       5 UNK         0.1400 
     48 CB          4.2375  -14.8056  -41.6523 C.3       5 UNK        -0.1800 
     49 N           2.2093  -13.4344  -41.6914 N.am      5 UNK        -0.5000 
     50 C           2.3069  -12.1534  -41.3082 C.2       4 UNK         0.5000 
     51 O           2.9265  -11.7889  -40.3075 O.2       4 UNK        -0.5000 
     52 CA          1.6124  -11.0877  -42.1722 C.3       4 UNK         0.1400 
     53 CB          2.5439  -10.6207  -43.3022 C.3       4 UNK        -0.1800 
     54 N           0.3560  -11.5667  -42.7456 N.am      4 UNK        -0.5000 
     55 C          -0.8548  -11.3475  -42.2126 C.2       3 UNK         0.5000 
     56 O          -1.0323  -10.7328  -41.1601 O.2       3 UNK        -0.5000 
     57 CA         -2.0832  -11.8785  -42.9797 C.3       3 UNK         0.1400 
     58 CB         -2.8277  -10.7267  -43.6729 C.3       3 UNK        -0.1800 
     59 N          -1.7328  -12.8896  -43.9772 N.am      3 UNK        -0.5000 
     60 C          -1.5304  -14.1824  -43.6871 C.2       2 UNK         0.5000 
     61 O          -1.7155  -14.6612  -42.5688 O.2       2 UNK        -0.5000 
     62 CA         -1.0142  -15.0894  -44.8230 C.3       2 UNK         0.1400 
     63 CB         -2.1800  -15.8352  -45.4895 C.3       2 UNK        -0.1800 
     64 N          -0.2625  -14.3801  -45.8595 N.am      2 UNK        -0.5000 
     65 C           0.8754  -13.7015  -45.6622 C.2       1 UNK         0.5000 
     66 O           1.4213  -13.6121  -44.5621 O.2       1 UNK        -0.5000 
     67 C           0.8124  -22.2055  -47.9049 C.2       11 UNK         0.5000 
     68 O           0.6523  -23.0630  -48.7740 O.2       11 UNK        -0.5000 
     69 N          -0.0126  -21.1617  -47.7368 N.am      12 UNK        -0.5000 
     70 CA         -1.2105  -20.9242  -48.5428 C.3       12 UNK         0.1400 
     71 CB         -1.8116  -19.5563  -48.1817 C.3       12 UNK        -0.1800 
     72 C          -2.2537  -22.0467  -48.3836 C.2       12 UNK         0.5000 
     73 O          -2.7503  -22.5721  -49.3842 O.2       12 UNK        -0.5000 
     74 N          -2.5120  -22.4302  -47.1259 N.am      13 UNK        -0.5000 
     75 CA         -3.4462  -23.4764  -46.7035 C.3       13 UNK         0.1400 
     76 CB         -3.7203  -23.3200  -45.1990 C.3       13 UNK        -0.1800 
     77 C          -3.0137  -24.9191  -47.0393 C.2       13 UNK         0.5000 
     78 O          -3.7405  -25.8532  -46.6965 O.2       13 UNK        -0.5000 
     79 N          -1.8752  -25.0984  -47.7258 N.am      14 UNK        -0.5000 
     80 CA         -1.4637  -26.3701  -48.3277 C.3       14 UNK         0.1400 
     81 CB         -0.0139  -26.2542  -48.8188 C.3       14 UNK        -0.1800 
     82 C          -2.3931  -26.8111  -49.4800 C.2       14 UNK         0.5000 
     83 O          -2.4259  -27.9971  -49.8115 O.2       14 UNK        -0.5000 
     84 N          -3.1457  -25.8585  -50.0440 N.am      15 UNK        -0.5000 
     85 CA         -4.2331  -26.0788  -50.9865 C.3       15 UNK         0.1400 
     86 CB         -3.6961  -26.0581  -52.4317 C.3       15 UNK        -0.1800 
     87 C          -5.3435  -25.0515  -50.6931 C.2       15 UNK         0.5000 
     88 O          -5.6303  -24.7881  -49.5244 O.2       15 UNK        -0.5000 
     89 N          -5.9570  -24.4971  -51.7471 N.am      16 UNK        -0.5000 
     90 CA         -7.1268  -23.6108  -51.6982 C.3       16 UNK         0.1400 
     91 CB         -7.6035  -23.3602  -53.1402 C.3       16 UNK        -0.1800 
     92 C          -6.9278  -22.2596  -50.9777 C.2       16 UNK         0.5000 
     93 O          -7.9247  -21.6186  -50.6438 O.2       16 UNK        -0.5000 
     94 N          -5.6680  -21.8332  -50.7914 N.am      17 UNK        -0.5000 
     95 CA         -5.2460  -20.5350  -50.2406 C.3       17 UNK         0.1400 
     96 CB         -5.6023  -20.4318  -48.7428 C.3       17 UNK        -0.1800 
     97 C          -5.7546  -19.3284  -51.0617 C.2       17 UNK         0.5000 
     98 O          -6.0131  -18.2587  -50.5072 O.2       17 UNK        -0.5000 
     99 N          -5.8944  -19.5327  -52.3746 N.am      18 UNK        -0.5000 
    100 CA        -6.4190  -18.5940  -53.3555 C.3       18 UNK         0.1400 
    101 CB        -7.9571  -18.5690  -53.2785 C.3       18 UNK        -0.1800 
    102 C         -5.9441  -19.0486  -54.7416 C.2       18 UNK         0.5000 
    103 O         -5.4517  -20.1724  -54.8799 O.2       18 UNK        -0.5000 
    104 N         -6.1354  -18.1869  -55.7491 N.am      19 UNK        -0.5000 
    105 CA        -5.6828  -18.3422  -57.1401 C.3       19 UNK         0.1400 
    106 CB        -6.1101  -17.0969  -57.9334 C.3       19 UNK        -0.1800 
    107 C         -6.1364  -19.6264  -57.8707 C.2       19 UNK         0.5000 
    108 O         -5.5721  -19.9535  -58.9156 O.2       19 UNK        -0.5000 
    109 N         -7.1198  -20.3417  -57.3083 N.am      20 UNK        -0.5000 
    110 CA        -7.5435  -21.6779  -57.7256 C.3       20 UNK         0.1400 
    111 CB        -8.7915  -22.0744  -56.9216 C.3       20 UNK        -0.1800 
    112 C         -6.4440  -22.7512  -57.5715 C.2       20 UNK         0.5000 
    113 O         -6.4475  -23.7179  -58.3351 O.2       20 UNK        -0.5000 
    114 N         -5.5243  -22.5665  -56.6128 N.am      21 UNK        -0.5000 
    115 CA        -4.3708  -23.4346  -56.3925 C.3       21 UNK         0.1400 
    116 CB        -4.7918  -24.7603  -55.7239 C.3       21 UNK        -0.1800 
    117 C         -3.3020  -22.6766  -55.5926 C.2       21 UNK         0.5000 
    118 O         -2.3376  -22.1937  -56.1861 O.2       21 UNK        -0.5000 
    119 N         -3.5202  -22.5733  -54.2734 N.am      22 UNK        -0.5000 
    120 CA        -2.6253  -21.9943  -53.2572 C.3       22 UNK         0.1400 
    121 C         -1.3985  -22.8991  -52.9445 C.2       22 UNK         0.5000 
    122 N         -1.1948  -23.2610  -51.6850 N.am      22 UNK        -0.7600 
    123 O         -0.6128  -23.2508  -53.8199 O.2       22 UNK        -0.5000 
    124 C124       -2.2107  -20.5328  -53.5750 C.3       23 UNK        -0.0398 
    125 S125       -1.6806  -19.6234  -52.0881 S.3       23 UNK        -0.2404 
    126 C126        0.1079  -19.4938  -52.4197 C.3       23 UNK        -0.0205 
    127 H127       -0.4306   -8.8071  -46.9765 H         1 UNK         0.0600 
    128 H128        1.2262   -8.9478  -46.3831 H         1 UNK         0.0600 
    129 H129       -0.1278   -9.0876  -45.2581 H         1 UNK         0.0600 
    130 H130        2.1620  -10.9542  -46.5960 H         1 UNK         0.3000 
    131 H131        2.5519  -13.0837  -46.8012 H         1 UNK         0.0600 
    132 H132        1.1658  -12.5831  -48.9762 H         1 UNK         0.0800 
    133 H133       -0.0808  -13.5708  -48.3139 H         1 UNK         0.0800 
    134 H134       -0.1963  -15.9210  -48.9284 H         1 UNK         0.0800 
    135 H135        0.7618  -16.4476  -47.5666 H         1 UNK         0.0800 
    136 H136       -0.3703  -17.3422  -50.7989 H         1 UNK         0.1150 
    137 H137        2.3991  -20.5583  -51.4013 H         1 UNK         0.1150 
    138 H138        3.0033  -17.7789  -48.1962 H         1 UNK         0.1150 
    139 H139        4.7837  -19.9569  -50.3060 H         1 UNK         0.0800 
    140 H140        4.7066  -19.3810  -48.6627 H         1 UNK         0.0800 
    141 H141        2.8231  -20.3571  -47.1395 H         1 UNK         0.0800 
    142 H142        3.9331  -21.5082  -46.4565 H         1 UNK         0.0800 
    143 H143        2.3573  -23.3706  -46.9973 H         1 UNK         0.0600 
    144 H144        1.9003  -21.4036  -45.0104 H         1 UNK         0.3000 
    145 H145       -0.7730  -23.0153  -43.2962 H         1 UNK         0.0600 
    146 H146        0.8214  -22.7677  -41.4126 H         1 UNK         0.0600 
    147 H147        2.1643  -22.5802  -42.5374 H         1 UNK         0.0600 
    148 H148        1.2992  -24.1091  -42.4431 H         1 UNK         0.0600 
    149 H149        0.6123  -20.6144  -42.7172 H         1 UNK         0.3000 
    150 H150       -1.3496  -18.4341  -44.7959 H         1 UNK         0.0600 
    151 H151       -2.5633  -18.6076  -42.6913 H         1 UNK         0.0600 
    152 H152       -1.3886  -17.3126  -42.5200 H         1 UNK         0.0600 
    153 H153       -1.0910  -18.8799  -41.7772 H         1 UNK         0.0600 
    154 H154        0.9390  -17.9224  -43.1716 H         1 UNK         0.3000 
    155 H155        3.4030  -18.5951  -45.6834 H         1 UNK         0.0600 
    156 H156        2.6624  -16.2691  -46.1928 H         1 UNK         0.0600 
    157 H157        4.0876  -16.2834  -45.1702 H         1 UNK         0.0600 
    158 H158        2.5091  -15.9416  -44.4712 H         1 UNK         0.0600 
    159 H159        3.4329  -17.6135  -42.9595 H         1 UNK         0.3000 
    160 H160        3.8000  -20.8044  -41.4240 H         1 UNK         0.0600 
    161 H161        5.7982  -18.5082  -41.8161 H         1 UNK         0.0600 
    162 H162        6.1025  -20.2011  -42.1874 H         1 UNK         0.0600 
    163 H163        5.8356  -19.7074  -40.5232 H         1 UNK         0.0600 
    164 H164        3.7881  -18.1237  -40.4113 H         1 UNK         0.3000 
    165 H165        0.2806  -17.7103  -40.1282 H         1 UNK         0.0600 
    166 H166        0.7547  -17.4794  -37.7054 H         1 UNK         0.0600 
    167 H167        0.7479  -19.1752  -38.1614 H         1 UNK         0.0600 
    168 H168        2.2781  -18.3496  -37.8911 H         1 UNK         0.0600 
    169 H169        2.4987  -16.2182  -39.1183 H         1 UNK         0.3000 
    170 H170        3.0232  -14.2840  -39.9541 H         1 UNK         0.0600 
    171 H171        4.1410  -15.0335  -42.7144 H         1 UNK         0.0600 
    172 H172        4.8899  -13.9374  -41.5572 H         1 UNK         0.0600 
    173 H173        4.7457  -15.6458  -41.1777 H         1 UNK         0.0600 
    174 H174        1.7032  -13.6761  -42.5383 H         1 UNK         0.3000 
    175 H175        1.4188  -10.2228  -41.5340 H         1 UNK         0.0600 
    176 H176        2.8091  -11.4356  -43.9756 H         1 UNK         0.0600 
    177 H177        2.0806   -9.8313  -43.8934 H         1 UNK         0.0600 
    178 H178        3.4733  -10.2184  -42.8974 H         1 UNK         0.0600 
    179 H179        0.4366  -12.1513  -43.5689 H         1 UNK         0.3000 
    180 H180       -2.7623  -12.3191  -42.2465 H         1 UNK         0.0600 
    181 H181       -2.1955  -10.2123  -44.3961 H         1 UNK         0.0600 
    182 H182       -3.1620   -9.9851  -42.9463 H         1 UNK         0.0600 
    183 H183       -3.7122  -11.0877  -44.1978 H         1 UNK         0.0600 
    184 H184       -1.5593  -12.5575  -44.9207 H         1 UNK         0.3000 
    185 H185       -0.3417  -15.8183  -44.3701 H         1 UNK         0.0600 
    186 H186       -2.8655  -15.1464  -45.9847 H         1 UNK         0.0600 
    187 H187       -1.8208  -16.5446  -46.2357 H         1 UNK         0.0600 
    188 H188       -2.7575  -16.3971  -44.7544 H         1 UNK         0.0600 
    189 H189       -0.6928  -14.3457  -46.7709 H         1 UNK         0.3000 
    190 H190        0.2086  -20.4647  -47.0312 H         1 UNK         0.3000 
    191 H191       -0.8974  -20.8994  -49.5872 H         1 UNK         0.0600 
    192 H192       -2.2054  -19.5388  -47.1654 H         1 UNK         0.0600 
    193 H193       -2.6270  -19.2976  -48.8568 H         1 UNK         0.0600 
    194 H194       -1.0667  -18.7655  -48.2579 H         1 UNK         0.0600 
    195 H195       -2.0555  -21.9234  -46.3702 H         1 UNK         0.3000 
    196 H196       -4.3857  -23.3109  -47.2336 H         1 UNK         0.0600 
    197 H197       -4.0942  -22.3225  -44.9676 H         1 UNK         0.0600 
    198 H198       -2.8170  -23.4856  -44.6115 H         1 UNK         0.0600 
    199 H199       -4.4715  -24.0323  -44.8559 H         1 UNK         0.0600 
    200 H200       -1.3053  -24.2907  -47.9396 H         1 UNK         0.3000 
    201 H201       -1.5032  -27.1395  -47.5540 H         1 UNK         0.0600 
    202 H202        0.6517  -25.9333  -48.0168 H         1 UNK         0.0600 
    203 H203        0.0757  -25.5393  -49.6372 H         1 UNK         0.0600 
    204 H204        0.3521  -27.2149  -49.1828 H         1 UNK         0.0600 
    205 H205       -3.0838  -24.9201  -49.6686 H         1 UNK         0.3000 
    206 H206       -4.6736  -27.0601  -50.7987 H         1 UNK         0.0600 
    207 H207       -4.4674  -26.3515  -53.1440 H         1 UNK         0.0600 
    208 H208       -3.3273  -25.0735  -52.7136 H         1 UNK         0.0600 
    209 H209       -2.8730  -26.7625  -52.5530 H         1 UNK         0.0600 
    210 H210       -5.6823  -24.8157  -52.6628 H         1 UNK         0.3000 
    211 H211       -7.9170  -24.1427  -51.1644 H         1 UNK         0.0600 
    212 H212       -6.8573  -22.8217  -53.7258 H         1 UNK         0.0600 
    213 H213       -8.5162  -22.7626  -53.1526 H         1 UNK         0.0600 
    214 H214       -7.8270  -24.2949  -53.6549 H         1 UNK         0.0600 
    215 H215       -4.9224  -22.4702  -51.0260 H         1 UNK         0.3000 
    216 H216       -4.1601  -20.5081  -50.3252 H         1 UNK         0.0600 
    217 H217       -5.1471  -19.5499  -48.2910 H         1 UNK         0.0600 
    218 H218       -5.2431  -21.2991  -48.1912 H         1 UNK         0.0600 
    219 H219       -6.6789  -20.3603  -48.5869 H         1 UNK         0.0600 
    220 H220       -5.6111  -20.4162  -52.7767 H         1 UNK         0.3000 
    221 H221       -6.0153  -17.5988  -53.1590 H         1 UNK         0.0600 
    222 H222       -8.3832  -19.5546  -53.4713 H         1 UNK         0.0600 
    223 H223       -8.2989  -18.2476  -52.2945 H         1 UNK         0.0600 
    224 H224       -8.3811  -17.8769  -54.0067 H         1 UNK         0.0600 
    225 H225       -6.5783  -17.3042  -55.5380 H         1 UNK         0.3000 
    226 H226       -4.5917  -18.3708  -57.1164 H         1 UNK         0.0600 
    227 H227       -5.6941  -16.1881  -57.4981 H         1 UNK         0.0600 
    228 H228       -5.7603  -17.1476  -58.9655 H         1 UNK         0.0600 
    229 H229       -7.1954  -16.9922  -57.9597 H         1 UNK         0.0600 
    230 H230       -7.5165  -19.9923  -56.4492 H         1 UNK         0.3000 
    231 H231       -7.8139  -21.6301  -58.7823 H         1 UNK         0.0600 
    232 H232       -9.1516  -23.0601  -57.2193 H         1 UNK         0.0600 
    233 H233       -9.6068  -21.3692  -57.0841 H         1 UNK         0.0600 
    234 H234       -8.5855  -22.1100  -55.8511 H         1 UNK         0.0600 
    235 H235       -5.5556  -21.7193  -56.0494 H         1 UNK         0.3000 
    236 H236       -3.9259  -23.6725  -57.3613 H         1 UNK         0.0600 
    237 H237       -5.3923  -24.5959  -54.8308 H         1 UNK         0.0600 
    238 H238       -5.3815  -25.3740  -56.4047 H         1 UNK         0.0600 
    239 H239       -3.9187  -25.3493  -55.4404 H         1 UNK         0.0600 
    240 H240       -4.3627  -22.9925  -53.9170 H         1 UNK         0.3000 
    241 H241       -3.2387  -21.9622  -52.3567 H         1 UNK         0.0600 
    242 H242       -0.3811  -23.8128  -51.4670 H         1 UNK         0.3800 
    243 H243       -1.8008  -22.9590  -50.9282 H         1 UNK         0.3800 
    244 H244       -1.4352  -20.4987  -54.3418 H         1 UNK         0.0800 
    245 H245       -3.0552  -19.9852  -53.9895 H         1 UNK         0.0800 
    246 H246        0.2698  -18.8036  -53.2485 H         1 UNK         0.0800 
    247 H247        0.4748  -20.4679  -52.7475 H         1 UNK         0.0800 
@<TRIPOS>BOND
     1    1    2 1    
     2    1  127 1    
     3    1  128 1    
     4    1  129 1    
     5    2    3 2    
     6    2    4 am   BACKBONE|DICT|INTERRES
     7    4    5 1    
     8    4  130 1    
     9    5    6 1    
    10    5   65 1    
    11    5  131 1    
    12    6    7 1    
    13    6  132 1    
    14    6  133 1    
    15    7    8 1    
    16    8    9 1    
    17    8  134 1    
    18    8  135 1    
    19    9   10 ar   
    20    9   14 ar   
    21   10   11 ar   
    22   10  136 1    
    23   11   12 ar   
    24   11  126 1    
    25   12   13 ar   
    26   12  137 1    
    27   13   14 ar   
    28   13   15 1    
    29   14  138 1    
    30   15   16 1    
    31   15  139 1    
    32   15  140 1    
    33   16   17 1    
    34   17   18 1    
    35   17  141 1    
    36   17  142 1    
    37   18   19 1    
    38   18   67 1    
    39   18  143 1    
    40   19   20 am   BACKBONE|DICT|INTERRES
    41   19  144 1    
    42   20   21 2    
    43   20   22 1    
    44   22   23 1    
    45   22   24 1    
    46   22  145 1    
    47   23  146 1    
    48   23  147 1    
    49   23  148 1    
    50   24   25 am   BACKBONE|DICT|INTERRES
    51   24  149 1    
    52   25   26 2    
    53   25   27 1    
    54   27   28 1    
    55   27   29 1    
    56   27  150 1    
    57   28  151 1    
    58   28  152 1    
    59   28  153 1    
    60   29   30 am   BACKBONE|DICT|INTERRES
    61   29  154 1    
    62   30   31 2    
    63   30   32 1    
    64   32   33 1    
    65   32   34 1    
    66   32  155 1    
    67   33  156 1    
    68   33  157 1    
    69   33  158 1    
    70   34   35 am   BACKBONE|DICT|INTERRES
    71   34  159 1    
    72   35   36 2    
    73   35   37 1    
    74   37   38 1    
    75   37   39 1    
    76   37  160 1    
    77   38  161 1    
    78   38  162 1    
    79   38  163 1    
    80   39   40 am   BACKBONE|DICT|INTERRES
    81   39  164 1    
    82   40   41 2    
    83   40   42 1    
    84   42   43 1    
    85   42   44 1    
    86   42  165 1    
    87   43  166 1    
    88   43  167 1    
    89   43  168 1    
    90   44   45 am   BACKBONE|DICT|INTERRES
    91   44  169 1    
    92   45   46 2    
    93   45   47 1    
    94   47   48 1    
    95   47   49 1    
    96   47  170 1    
    97   48  171 1    
    98   48  172 1    
    99   48  173 1    
   100   49   50 am   BACKBONE|DICT|INTERRES
   101   49  174 1    
   102   50   51 2    
   103   50   52 1    
   104   52   53 1    
   105   52   54 1    
   106   52  175 1    
   107   53  176 1    
   108   53  177 1    
   109   53  178 1    
   110   54   55 am   BACKBONE|DICT|INTERRES
   111   54  179 1    
   112   55   56 2    
   113   55   57 1    
   114   57   58 1    
   115   57   59 1    
   116   57  180 1    
   117   58  181 1    
   118   58  182 1    
   119   58  183 1    
   120   59   60 am   BACKBONE|DICT|INTERRES
   121   59  184 1    
   122   60   61 2    
   123   60   62 1    
   124   62   63 1    
   125   62   64 1    
   126   62  185 1    
   127   63  186 1    
   128   63  187 1    
   129   63  188 1    
   130   64   65 am   BACKBONE|DICT|INTERRES
   131   64  189 1    
   132   65   66 2    
   133   67   68 2    
   134   67   69 am   BACKBONE|DICT|INTERRES
   135   69   70 1    
   136   69  190 1    
   137   70   71 1    
   138   70   72 1    
   139   70  191 1    
   140   71  192 1    
   141   71  193 1    
   142   71  194 1    
   143   72   73 2    
   144   72   74 am   BACKBONE|DICT|INTERRES
   145   74   75 1    
   146   74  195 1    
   147   75   76 1    
   148   75   77 1    
   149   75  196 1    
   150   76  197 1    
   151   76  198 1    
   152   76  199 1    
   153   77   78 2    
   154   77   79 am   BACKBONE|DICT|INTERRES
   155   79   80 1    
   156   79  200 1    
   157   80   81 1    
   158   80   82 1    
   159   80  201 1    
   160   81  202 1    
   161   81  203 1    
   162   81  204 1    
   163   82   83 2    
   164   82   84 am   BACKBONE|DICT|INTERRES
   165   84   85 1    
   166   84  205 1    
   167   85   86 1    
   168   85   87 1    
   169   85  206 1    
   170   86  207 1    
   171   86  208 1    
   172   86  209 1    
   173   87   88 2    
   174   87   89 am   BACKBONE|DICT|INTERRES
   175   89   90 1    
   176   89  210 1    
   177   90   91 1    
   178   90   92 1    
   179   90  211 1    
   180   91  212 1    
   181   91  213 1    
   182   91  214 1    
   183   92   93 2    
   184   92   94 am   BACKBONE|DICT|INTERRES
   185   94   95 1    
   186   94  215 1    
   187   95   96 1    
   188   95   97 1    
   189   95  216 1    
   190   96  217 1    
   191   96  218 1    
   192   96  219 1    
   193   97   98 2    
   194   97   99 am   BACKBONE|DICT|INTERRES
   195   99  100 1    
   196   99  220 1    
   197  100  101 1    
   198  100  102 1    
   199  100  221 1    
   200  101  222 1    
   201  101  223 1    
   202  101  224 1    
   203  102  103 2    
   204  102  104 am   BACKBONE|DICT|INTERRES
   205  104  105 1    
   206  104  225 1    
   207  105  106 1    
   208  105  107 1    
   209  105  226 1    
   210  106  227 1    
   211  106  228 1    
   212  106  229 1    
   213  107  108 2    
   214  107  109 am   BACKBONE|DICT|INTERRES
   215  109  110 1    
   216  109  230 1    
   217  110  111 1    
   218  110  112 1    
   219  110  231 1    
   220  111  232 1    
   221  111  233 1    
   222  111  234 1    
   223  112  113 2    
   224  112  114 am   BACKBONE|DICT|INTERRES
   225  114  115 1    
   226  114  235 1    
   227  115  116 1    
   228  115  117 1    
   229  115  236 1    
   230  116  237 1    
   231  116  238 1    
   232  116  239 1    
   233  117  118 2    
   234  117  119 am   BACKBONE|DICT|INTERRES
   235  119  120 1    
   236  119  240 1    
   237  120  121 1    
   238  120  124 1    
   239  120  241 1    
   240  121  122 am   BACKBONE|DICT|INTERRES
   241  121  123 2    
   242  122  242 1    
   243  122  243 1    
   244  124  125 1    
   245  124  244 1    
   246  124  245 1    
   247  125  126 1    
   248  126  246 1    
   249  126  247 1    
@<TRIPOS>SUBSTRUCTURE
     1 UNK         1 GROUP             0       ****    0 ROOT    
