@<TRIPOS>MOLECULE
3R540
247   249    1
SMALL
USER_CHARGES


@<TRIPOS>ATOM
      1 CA          3.4405  -16.9049  -43.6655 C.3       0 UNK        -0.1800 
      2 C           3.7359  -15.7200  -44.5736 C.2       0 UNK         0.5000 
      3 O           3.6810  -14.5775  -44.1176 O.2       0 UNK        -0.5000 
      4 N           4.0330  -15.9897  -45.8535 N.am      1 UNK        -0.5000 
      5 CA          4.3158  -15.0101  -46.9114 C.3       1 UNK         0.1400 
      6 C6          4.6703  -15.6878  -48.2559 C.3       23 UNK        -0.0398 
      7 S7          3.2691  -16.6125  -48.9717 S.3       23 UNK        -0.2404 
      8 C8          2.5743  -15.3542  -50.0904 C.3       23 UNK        -0.0205 
      9 C9          1.6219  -15.9691  -51.1028 C.ar      23 UNK        -0.0193 
     10 C10         2.0613  -16.2434  -52.4023 C.ar      23 UNK        -0.1150 
     11 C11         1.1898  -16.7907  -53.3489 C.ar      23 UNK        -0.0193 
     12 C12        -0.1259  -17.0759  -52.9790 C.ar      23 UNK        -0.1150 
     13 C13        -0.5695  -16.8372  -51.6763 C.ar      23 UNK        -0.0193 
     14 C14         0.3017  -16.2591  -50.7469 C.ar      23 UNK        -0.1150 
     15 C15        -1.9873  -17.2287  -51.2862 C.3       23 UNK        -0.0205 
     16 S16        -2.0729  -18.3692  -49.8657 S.3       23 UNK        -0.2404 
     17 C17        -0.6750  -19.5103  -50.1518 C.3       23 UNK        -0.0398 
     18 CA         -0.6037  -20.7063  -49.1746 C.3       11 UNK         0.1400 
     19 N          -0.4809  -20.3086  -47.7674 N.am      11 UNK        -0.5000 
     20 C          -0.1120  -21.1524  -46.7914 C.2       10 UNK         0.5000 
     21 O           0.1818  -22.3322  -46.9847 O.2       10 UNK        -0.5000 
     22 CA         -0.1226  -20.6137  -45.3511 C.3       10 UNK         0.1400 
     23 CB          1.0916  -19.7098  -45.0861 C.3       10 UNK        -0.1800 
     24 N          -1.3554  -19.8999  -45.0251 N.am      10 UNK        -0.5000 
     25 C          -2.5836  -20.4371  -45.0404 C.2       9 UNK         0.5000 
     26 O          -2.8143  -21.6097  -45.3336 O.2       9 UNK        -0.5000 
     27 CA         -3.7518  -19.5011  -44.6921 C.3       9 UNK         0.1400 
     28 CB         -3.9516  -19.4159  -43.1711 C.3       9 UNK        -0.1800 
     29 N          -3.5308  -18.1623  -45.2353 N.am      9 UNK        -0.5000 
     30 C          -3.8174  -17.8101  -46.4955 C.2       8 UNK         0.5000 
     31 O          -4.3841  -18.5533  -47.2955 O.2       8 UNK        -0.5000 
     32 CA         -3.3978  -16.3955  -46.9420 C.3       8 UNK         0.1400 
     33 CB         -4.5426  -15.3987  -46.7090 C.3       8 UNK        -0.1800 
     34 N          -2.1927  -15.8991  -46.2748 N.am      8 UNK        -0.5000 
     35 C          -0.9643  -16.4204  -46.4113 C.2       7 UNK         0.5000 
     36 O          -0.6986  -17.3963  -47.1104 O.2       7 UNK        -0.5000 
     37 CA          0.1509  -15.7696  -45.5726 C.3       7 UNK         0.1400 
     38 CB          0.6384  -14.4893  -46.2663 C.3       7 UNK        -0.1800 
     39 N          -0.2405  -15.4413  -44.1985 N.am      7 UNK        -0.5000 
     40 C          -0.8753  -16.2451  -43.3307 C.2       6 UNK         0.5000 
     41 O          -1.1651  -17.4140  -43.5814 O.2       6 UNK        -0.5000 
     42 CA         -1.2836  -15.6607  -41.9620 C.3       6 UNK         0.1400 
     43 CB         -0.5125  -16.3627  -40.8333 C.3       6 UNK        -0.1800 
     44 N          -1.0858  -14.2163  -41.8324 N.am      6 UNK        -0.5000 
     45 C          -1.7055  -13.2516  -42.5287 C.2       5 UNK         0.5000 
     46 O          -2.6024  -13.4694  -43.3438 O.2       5 UNK        -0.5000 
     47 CA         -1.2064  -11.8060  -42.3057 C.3       5 UNK         0.1400 
     48 CB         -2.2386  -10.9974  -41.5051 C.3       5 UNK        -0.1800 
     49 N           0.0913  -11.7311  -41.6204 N.am      5 UNK        -0.5000 
     50 C           1.2562  -12.1633  -42.1236 C.2       4 UNK         0.5000 
     51 O           1.3813  -12.6048  -43.2678 O.2       4 UNK        -0.5000 
     52 CA          2.4467  -12.1666  -41.1531 C.3       4 UNK         0.1400 
     53 CB          2.2155  -13.1806  -40.0124 C.3       4 UNK        -0.1800 
     54 N           3.6768  -12.5050  -41.8632 N.am      4 UNK        -0.5000 
     55 C           4.9135  -12.2647  -41.4079 C.2       3 UNK         0.5000 
     56 O           5.1480  -11.6794  -40.3495 O.2       3 UNK        -0.5000 
     57 CA          6.0901  -12.7484  -42.2692 C.3       3 UNK         0.1400 
     58 CB          6.4088  -14.2212  -41.9659 C.3       3 UNK        -0.1800 
     59 N           5.8000  -12.5994  -43.6935 N.am      3 UNK        -0.5000 
     60 C           6.2734  -11.6163  -44.4706 C.2       2 UNK         0.5000 
     61 O           7.0260  -10.7327  -44.0565 O.2       2 UNK        -0.5000 
     62 CA          5.8233  -11.5801  -45.9489 C.3       2 UNK         0.1400 
     63 CB          7.0043  -11.3325  -46.9109 C.3       2 UNK        -0.1800 
     64 N           5.0258  -12.7359  -46.3784 N.am      2 UNK        -0.5000 
     65 C           5.4184  -14.0124  -46.5027 C.2       1 UNK         0.5000 
     66 O           6.5619  -14.4192  -46.2894 O.2       1 UNK        -0.5000 
     67 C          -1.7391  -21.7257  -49.3956 C.2       11 UNK         0.5000 
     68 O          -1.5315  -22.7041  -50.1120 O.2       11 UNK        -0.5000 
     69 N          -2.8810  -21.5265  -48.7186 N.am      12 UNK        -0.5000 
     70 CA         -4.0340  -22.4271  -48.7531 C.3       12 UNK         0.1400 
     71 CB         -5.1905  -21.8209  -47.9443 C.3       12 UNK        -0.1800 
     72 C          -3.7092  -23.8384  -48.2389 C.2       12 UNK         0.5000 
     73 O          -4.1360  -24.8191  -48.8515 O.2       12 UNK        -0.5000 
     74 N          -2.9440  -23.9065  -47.1414 N.am      13 UNK        -0.5000 
     75 CA         -2.4408  -25.1412  -46.5472 C.3       13 UNK         0.1400 
     76 CB         -1.8876  -24.8450  -45.1451 C.3       13 UNK        -0.1800 
     77 C          -1.3755  -25.8230  -47.4226 C.2       13 UNK         0.5000 
     78 O          -1.4345  -27.0397  -47.5984 O.2       13 UNK        -0.5000 
     79 N          -0.4382  -25.0347  -47.9703 N.am      14 UNK        -0.5000 
     80 CA          0.6388  -25.5074  -48.8446 C.3       14 UNK         0.1400 
     81 CB          1.6487  -24.3750  -49.0842 C.3       14 UNK        -0.1800 
     82 C           0.1254  -26.0690  -50.1825 C.2       14 UNK         0.5000 
     83 O           0.6028  -27.1141  -50.6262 O.2       14 UNK        -0.5000 
     84 N          -0.8546  -25.3830  -50.7852 N.am      15 UNK        -0.5000 
     85 CA         -1.5423  -25.8160  -52.0021 C.3       15 UNK         0.1400 
     86 CB         -2.2817  -24.6122  -52.6088 C.3       15 UNK        -0.1800 
     87 C          -2.5331  -26.9695  -51.7531 C.2       15 UNK         0.5000 
     88 O          -2.8881  -27.6703  -52.7013 O.2       15 UNK        -0.5000 
     89 N          -2.9838  -27.1151  -50.4963 N.am      16 UNK        -0.5000 
     90 CA         -4.0574  -27.9966  -50.0212 C.3       16 UNK         0.1400 
     91 CB         -3.6567  -29.4798  -50.1550 C.3       16 UNK        -0.1800 
     92 C          -5.4137  -27.6674  -50.6837 C.2       16 UNK         0.5000 
     93 O          -6.2246  -28.5615  -50.9320 O.2       16 UNK        -0.5000 
     94 N          -5.6143  -26.3779  -50.9823 N.am      17 UNK        -0.5000 
     95 CA         -6.7437  -25.8566  -51.7477 C.3       17 UNK         0.1400 
     96 CB         -6.2557  -24.6469  -52.5623 C.3       17 UNK        -0.1800 
     97 C          -7.9320  -25.4550  -50.8594 C.2       17 UNK         0.5000 
     98 O          -9.0520  -25.3729  -51.3641 O.2       17 UNK        -0.5000 
     99 N          -7.6636  -25.1775  -49.5723 N.am      18 UNK        -0.5000 
    100 CA        -8.5985  -24.6416  -48.5687 C.3       18 UNK         0.1400 
    101 CB        -9.7221  -25.6527  -48.2600 C.3       18 UNK        -0.1800 
    102 C         -9.1396  -23.2326  -48.9154 C.2       18 UNK         0.5000 
    103 O        -10.1763  -22.8170  -48.3957 O.2       18 UNK        -0.5000 
    104 N         -8.4058  -22.5181  -49.7721 N.am      19 UNK        -0.5000 
    105 CA        -8.6209  -21.1517  -50.2224 C.3       19 UNK         0.1400 
    106 CB        -9.5980  -21.1380  -51.4093 C.3       19 UNK        -0.1800 
    107 C         -7.2426  -20.6120  -50.6258 C.2       19 UNK         0.5000 
    108 O         -6.3532  -21.4099  -50.9368 O.2       19 UNK        -0.5000 
    109 N         -7.0731  -19.2856  -50.5950 N.am      20 UNK        -0.5000 
    110 CA        -5.7972  -18.5865  -50.7835 C.3       20 UNK         0.1400 
    111 CB        -5.9245  -17.1676  -50.1997 C.3       20 UNK        -0.1800 
    112 C         -5.2902  -18.5878  -52.2448 C.2       20 UNK         0.5000 
    113 O         -5.1076  -17.5258  -52.8429 O.2       20 UNK        -0.5000 
    114 N         -5.0637  -19.7853  -52.7890 N.am      21 UNK        -0.5000 
    115 CA        -4.3865  -20.0416  -54.0552 C.3       21 UNK         0.1400 
    116 CB        -5.0466  -21.2594  -54.7209 C.3       21 UNK        -0.1800 
    117 C         -2.8974  -20.3219  -53.7911 C.2       21 UNK         0.5000 
    118 O         -2.5557  -20.8510  -52.7332 O.2       21 UNK        -0.5000 
    119 N         -2.0412  -19.9892  -54.7648 N.am      22 UNK        -0.5000 
    120 CA        -0.5869  -20.2338  -54.7098 C.3       22 UNK         0.1400 
    121 C         -0.1743  -21.7265  -54.8977 C.2       22 UNK         0.5000 
    122 N         -1.0384  -22.5924  -55.4145 N.am      22 UNK        -0.7600 
    123 O          0.9438  -22.1087  -54.5655 O.2       22 UNK        -0.5000 
    124 C124        0.1703  -19.3029  -55.6977 C.3       23 UNK        -0.0398 
    125 S125        1.8450  -18.8341  -55.1286 S.3       23 UNK        -0.2404 
    126 C126        1.6645  -17.0543  -54.7719 C.3       23 UNK        -0.0205 
    127 H127        2.4405  -16.8103  -43.2419 H         1 UNK         0.0600 
    128 H128        3.4937  -17.8517  -44.2032 H         1 UNK         0.0600 
    129 H129        4.1573  -16.9370  -42.8453 H         1 UNK         0.0600 
    130 H130        4.0711  -16.9535  -46.1515 H         1 UNK         0.3000 
    131 H131        3.3991  -14.4408  -47.0669 H         1 UNK         0.0600 
    132 H132        5.5032  -16.3804  -48.1218 H         1 UNK         0.0800 
    133 H133        5.0153  -14.9520  -48.9846 H         1 UNK         0.0800 
    134 H134        3.3801  -14.8391  -50.6155 H         1 UNK         0.0800 
    135 H135        2.0546  -14.5941  -49.5059 H         1 UNK         0.0800 
    136 H136        3.0827  -16.0219  -52.6790 H         1 UNK         0.1150 
    137 H137       -0.8051  -17.4982  -53.7041 H         1 UNK         0.1150 
    138 H138       -0.0388  -16.0693  -49.7381 H         1 UNK         0.1150 
    139 H139       -2.5584  -16.3289  -51.0561 H         1 UNK         0.0800 
    140 H140       -2.4878  -17.7050  -52.1287 H         1 UNK         0.0800 
    141 H141        0.2514  -18.9426  -50.0619 H         1 UNK         0.0800 
    142 H142       -0.7066  -19.8619  -51.1834 H         1 UNK         0.0800 
    143 H143        0.3205  -21.2330  -49.4214 H         1 UNK         0.0600 
    144 H144       -0.6984  -19.3407  -47.5428 H         1 UNK         0.3000 
    145 H145       -0.0573  -21.4702  -44.6770 H         1 UNK         0.0600 
    146 H146        1.0893  -19.3321  -44.0634 H         1 UNK         0.0600 
    147 H147        2.0224  -20.2597  -45.2291 H         1 UNK         0.0600 
    148 H148        1.1139  -18.8539  -45.7595 H         1 UNK         0.0600 
    149 H149       -1.2557  -18.9365  -44.7194 H         1 UNK         0.3000 
    150 H150       -4.6621  -19.9213  -45.1250 H         1 UNK         0.0600 
    151 H151       -4.1595  -20.4013  -42.7523 H         1 UNK         0.0600 
    152 H152       -4.7945  -18.7717  -42.9204 H         1 UNK         0.0600 
    153 H153       -3.0691  -19.0257  -42.6637 H         1 UNK         0.0600 
    154 H154       -2.9983  -17.5242  -44.6584 H         1 UNK         0.3000 
    155 H155       -3.1964  -16.4314  -48.0135 H         1 UNK         0.0600 
    156 H156       -4.7672  -15.2851  -45.6476 H         1 UNK         0.0600 
    157 H157       -5.4562  -15.7288  -47.2050 H         1 UNK         0.0600 
    158 H158       -4.2957  -14.4145  -47.1075 H         1 UNK         0.0600 
    159 H159       -2.3115  -15.1123  -45.6519 H         1 UNK         0.3000 
    160 H160        0.9807  -16.4746  -45.5183 H         1 UNK         0.0600 
    161 H161        1.4616  -14.0303  -45.7201 H         1 UNK         0.0600 
    162 H162       -0.1562  -13.7464  -46.3452 H         1 UNK         0.0600 
    163 H163        0.9887  -14.7043  -47.2761 H         1 UNK         0.0600 
    164 H164       -0.0098  -14.5066  -43.8889 H         1 UNK         0.3000 
    165 H165       -2.3481  -15.8649  -41.8317 H         1 UNK         0.0600 
    166 H166       -0.8343  -16.0088  -39.8537 H         1 UNK         0.0600 
    167 H167       -0.6781  -17.4408  -40.8565 H         1 UNK         0.0600 
    168 H168        0.5621  -16.1951  -40.9165 H         1 UNK         0.0600 
    169 H169       -0.3678  -13.9273  -41.1860 H         1 UNK         0.3000 
    170 H170       -1.0968  -11.3457  -43.2899 H         1 UNK         0.0600 
    171 H171       -3.2099  -11.0017  -42.0018 H         1 UNK         0.0600 
    172 H172       -2.3805  -11.4055  -40.5036 H         1 UNK         0.0600 
    173 H173       -1.9325   -9.9560  -41.4043 H         1 UNK         0.0600 
    174 H174        0.0716  -11.3779  -40.6741 H         1 UNK         0.3000 
    175 H175        2.5386  -11.1607  -40.7381 H         1 UNK         0.0600 
    176 H176        2.1328  -14.1985  -40.3953 H         1 UNK         0.0600 
    177 H177        3.0337  -13.1644  -39.2924 H         1 UNK         0.0600 
    178 H178        1.3039  -12.9611  -39.4559 H         1 UNK         0.0600 
    179 H179        3.5387  -12.9876  -42.7474 H         1 UNK         0.3000 
    180 H180        6.9677  -12.1585  -41.9969 H         1 UNK         0.0600 
    181 H181        5.5542  -14.8700  -42.1572 H         1 UNK         0.0600 
    182 H182        6.6883  -14.3504  -40.9197 H         1 UNK         0.0600 
    183 H183        7.2418  -14.5769  -42.5725 H         1 UNK         0.0600 
    184 H184        5.1537  -13.2743  -44.0907 H         1 UNK         0.3000 
    185 H185        5.1567  -10.7202  -46.0286 H         1 UNK         0.0600 
    186 H186        7.4909  -10.3804  -46.6961 H         1 UNK         0.0600 
    187 H187        7.7649  -12.1093  -46.8306 H         1 UNK         0.0600 
    188 H188        6.6688  -11.2956  -47.9473 H         1 UNK         0.0600 
    189 H189        4.0497  -12.5292  -46.5398 H         1 UNK         0.3000 
    190 H190       -2.9664  -20.6974  -48.1473 H         1 UNK         0.3000 
    191 H191       -4.3410  -22.5209  -49.7956 H         1 UNK         0.0600 
    192 H192       -4.9471  -21.7338  -46.8862 H         1 UNK         0.0600 
    193 H193       -6.0849  -22.4388  -48.0218 H         1 UNK         0.0600 
    194 H194       -5.4474  -20.8262  -48.3056 H         1 UNK         0.0600 
    195 H195       -2.6921  -23.0419  -46.6707 H         1 UNK         0.3000 
    196 H196       -3.2799  -25.8323  -46.4423 H         1 UNK         0.0600 
    197 H197       -1.5136  -25.7534  -44.6714 H         1 UNK         0.0600 
    198 H198       -2.6614  -24.4338  -44.4964 H         1 UNK         0.0600 
    199 H199       -1.0666  -24.1278  -45.1787 H         1 UNK         0.0600 
    200 H200       -0.4334  -24.0446  -47.7424 H         1 UNK         0.3000 
    201 H201        1.1570  -26.3156  -48.3243 H         1 UNK         0.0600 
    202 H202        2.0825  -24.0285  -48.1461 H         1 UNK         0.0600 
    203 H203        1.1839  -23.5198  -49.5750 H         1 UNK         0.0600 
    204 H204        2.4703  -24.7112  -49.7177 H         1 UNK         0.0600 
    205 H205       -1.1499  -24.4902  -50.3927 H         1 UNK         0.3000 
    206 H206       -0.7969  -26.1611  -52.7216 H         1 UNK         0.0600 
    207 H207       -1.5961  -23.7896  -52.8130 H         1 UNK         0.0600 
    208 H208       -2.7620  -24.8780  -53.5511 H         1 UNK         0.0600 
    209 H209       -3.0564  -24.2356  -51.9392 H         1 UNK         0.0600 
    210 H210       -2.6273  -26.4706  -49.8035 H         1 UNK         0.3000 
    211 H211       -4.1776  -27.7813  -48.9584 H         1 UNK         0.0600 
    212 H212       -3.5839  -29.7894  -51.1978 H         1 UNK         0.0600 
    213 H213       -4.3900  -30.1271  -49.6728 H         1 UNK         0.0600 
    214 H214       -2.6944  -29.6703  -49.6796 H         1 UNK         0.0600 
    215 H215       -4.9155  -25.7121  -50.6756 H         1 UNK         0.3000 
    216 H216       -7.0952  -26.6182  -52.4471 H         1 UNK         0.0600 
    217 H217       -7.0707  -24.1982  -53.1320 H         1 UNK         0.0600 
    218 H218       -5.4849  -24.9396  -53.2755 H         1 UNK         0.0600 
    219 H219       -5.8369  -23.8706  -51.9211 H         1 UNK         0.0600 
    220 H220       -6.7070  -25.2907  -49.2643 H         1 UNK         0.3000 
    221 H221       -8.0146  -24.5166  -47.6558 H         1 UNK         0.0600 
    222 H222      -10.4063  -25.7700  -49.1006 H         1 UNK         0.0600 
    223 H223       -9.3141  -26.6343  -48.0193 H         1 UNK         0.0600 
    224 H224      -10.3138  -25.3299  -47.4027 H         1 UNK         0.0600 
    225 H225       -7.5430  -22.9135  -50.1245 H         1 UNK         0.3000 
    226 H226       -9.0147  -20.5512  -49.4000 H         1 UNK         0.0600 
    227 H227       -9.2212  -21.7300  -52.2446 H         1 UNK         0.0600 
    228 H228      -10.5694  -21.5430  -51.1250 H         1 UNK         0.0600 
    229 H229       -9.7617  -20.1224  -51.7710 H         1 UNK         0.0600 
    230 H230       -7.8643  -18.7010  -50.3680 H         1 UNK         0.3000 
    231 H231       -5.0411  -19.1091  -50.1931 H         1 UNK         0.0600 
    232 H232       -6.2054  -17.2011  -49.1470 H         1 UNK         0.0600 
    233 H233       -6.6722  -16.5774  -50.7305 H         1 UNK         0.0600 
    234 H234       -4.9758  -16.6331  -50.2598 H         1 UNK         0.0600 
    235 H235       -5.2504  -20.5990  -52.2083 H         1 UNK         0.3000 
    236 H236       -4.4820  -19.1779  -54.7164 H         1 UNK         0.0600 
    237 H237       -4.5894  -21.4751  -55.6872 H         1 UNK         0.0600 
    238 H238       -4.9533  -22.1548  -54.1042 H         1 UNK         0.0600 
    239 H239       -6.1085  -21.0847  -54.8954 H         1 UNK         0.0600 
    240 H240       -2.3965  -19.5851  -55.6192 H         1 UNK         0.3000 
    241 H241       -0.2711  -19.9679  -53.6990 H         1 UNK         0.0600 
    242 H242       -0.7613  -23.5535  -55.5333 H         1 UNK         0.3800 
    243 H243       -1.9608  -22.2986  -55.6895 H         1 UNK         0.3800 
    244 H244        0.2537  -19.7645  -56.6833 H         1 UNK         0.0800 
    245 H245       -0.3989  -18.3886  -55.8660 H         1 UNK         0.0800 
    246 H246        2.6330  -16.5787  -54.9343 H         1 UNK         0.0800 
    247 H247        0.9839  -16.5865  -55.4843 H         1 UNK         0.0800 
@<TRIPOS>BOND
     1    1    2 1    
     2    1  127 1    
     3    1  128 1    
     4    1  129 1    
     5    2    3 2    
     6    2    4 am   BACKBONE|DICT|INTERRES
     7    4    5 1    
     8    4  130 1    
     9    5    6 1    
    10    5   65 1    
    11    5  131 1    
    12    6    7 1    
    13    6  132 1    
    14    6  133 1    
    15    7    8 1    
    16    8    9 1    
    17    8  134 1    
    18    8  135 1    
    19    9   10 ar   
    20    9   14 ar   
    21   10   11 ar   
    22   10  136 1    
    23   11   12 ar   
    24   11  126 1    
    25   12   13 ar   
    26   12  137 1    
    27   13   14 ar   
    28   13   15 1    
    29   14  138 1    
    30   15   16 1    
    31   15  139 1    
    32   15  140 1    
    33   16   17 1    
    34   17   18 1    
    35   17  141 1    
    36   17  142 1    
    37   18   19 1    
    38   18   67 1    
    39   18  143 1    
    40   19   20 am   BACKBONE|DICT|INTERRES
    41   19  144 1    
    42   20   21 2    
    43   20   22 1    
    44   22   23 1    
    45   22   24 1    
    46   22  145 1    
    47   23  146 1    
    48   23  147 1    
    49   23  148 1    
    50   24   25 am   BACKBONE|DICT|INTERRES
    51   24  149 1    
    52   25   26 2    
    53   25   27 1    
    54   27   28 1    
    55   27   29 1    
    56   27  150 1    
    57   28  151 1    
    58   28  152 1    
    59   28  153 1    
    60   29   30 am   BACKBONE|DICT|INTERRES
    61   29  154 1    
    62   30   31 2    
    63   30   32 1    
    64   32   33 1    
    65   32   34 1    
    66   32  155 1    
    67   33  156 1    
    68   33  157 1    
    69   33  158 1    
    70   34   35 am   BACKBONE|DICT|INTERRES
    71   34  159 1    
    72   35   36 2    
    73   35   37 1    
    74   37   38 1    
    75   37   39 1    
    76   37  160 1    
    77   38  161 1    
    78   38  162 1    
    79   38  163 1    
    80   39   40 am   BACKBONE|DICT|INTERRES
    81   39  164 1    
    82   40   41 2    
    83   40   42 1    
    84   42   43 1    
    85   42   44 1    
    86   42  165 1    
    87   43  166 1    
    88   43  167 1    
    89   43  168 1    
    90   44   45 am   BACKBONE|DICT|INTERRES
    91   44  169 1    
    92   45   46 2    
    93   45   47 1    
    94   47   48 1    
    95   47   49 1    
    96   47  170 1    
    97   48  171 1    
    98   48  172 1    
    99   48  173 1    
   100   49   50 am   BACKBONE|DICT|INTERRES
   101   49  174 1    
   102   50   51 2    
   103   50   52 1    
   104   52   53 1    
   105   52   54 1    
   106   52  175 1    
   107   53  176 1    
   108   53  177 1    
   109   53  178 1    
   110   54   55 am   BACKBONE|DICT|INTERRES
   111   54  179 1    
   112   55   56 2    
   113   55   57 1    
   114   57   58 1    
   115   57   59 1    
   116   57  180 1    
   117   58  181 1    
   118   58  182 1    
   119   58  183 1    
   120   59   60 am   BACKBONE|DICT|INTERRES
   121   59  184 1    
   122   60   61 2    
   123   60   62 1    
   124   62   63 1    
   125   62   64 1    
   126   62  185 1    
   127   63  186 1    
   128   63  187 1    
   129   63  188 1    
   130   64   65 am   BACKBONE|DICT|INTERRES
   131   64  189 1    
   132   65   66 2    
   133   67   68 2    
   134   67   69 am   BACKBONE|DICT|INTERRES
   135   69   70 1    
   136   69  190 1    
   137   70   71 1    
   138   70   72 1    
   139   70  191 1    
   140   71  192 1    
   141   71  193 1    
   142   71  194 1    
   143   72   73 2    
   144   72   74 am   BACKBONE|DICT|INTERRES
   145   74   75 1    
   146   74  195 1    
   147   75   76 1    
   148   75   77 1    
   149   75  196 1    
   150   76  197 1    
   151   76  198 1    
   152   76  199 1    
   153   77   78 2    
   154   77   79 am   BACKBONE|DICT|INTERRES
   155   79   80 1    
   156   79  200 1    
   157   80   81 1    
   158   80   82 1    
   159   80  201 1    
   160   81  202 1    
   161   81  203 1    
   162   81  204 1    
   163   82   83 2    
   164   82   84 am   BACKBONE|DICT|INTERRES
   165   84   85 1    
   166   84  205 1    
   167   85   86 1    
   168   85   87 1    
   169   85  206 1    
   170   86  207 1    
   171   86  208 1    
   172   86  209 1    
   173   87   88 2    
   174   87   89 am   BACKBONE|DICT|INTERRES
   175   89   90 1    
   176   89  210 1    
   177   90   91 1    
   178   90   92 1    
   179   90  211 1    
   180   91  212 1    
   181   91  213 1    
   182   91  214 1    
   183   92   93 2    
   184   92   94 am   BACKBONE|DICT|INTERRES
   185   94   95 1    
   186   94  215 1    
   187   95   96 1    
   188   95   97 1    
   189   95  216 1    
   190   96  217 1    
   191   96  218 1    
   192   96  219 1    
   193   97   98 2    
   194   97   99 am   BACKBONE|DICT|INTERRES
   195   99  100 1    
   196   99  220 1    
   197  100  101 1    
   198  100  102 1    
   199  100  221 1    
   200  101  222 1    
   201  101  223 1    
   202  101  224 1    
   203  102  103 2    
   204  102  104 am   BACKBONE|DICT|INTERRES
   205  104  105 1    
   206  104  225 1    
   207  105  106 1    
   208  105  107 1    
   209  105  226 1    
   210  106  227 1    
   211  106  228 1    
   212  106  229 1    
   213  107  108 2    
   214  107  109 am   BACKBONE|DICT|INTERRES
   215  109  110 1    
   216  109  230 1    
   217  110  111 1    
   218  110  112 1    
   219  110  231 1    
   220  111  232 1    
   221  111  233 1    
   222  111  234 1    
   223  112  113 2    
   224  112  114 am   BACKBONE|DICT|INTERRES
   225  114  115 1    
   226  114  235 1    
   227  115  116 1    
   228  115  117 1    
   229  115  236 1    
   230  116  237 1    
   231  116  238 1    
   232  116  239 1    
   233  117  118 2    
   234  117  119 am   BACKBONE|DICT|INTERRES
   235  119  120 1    
   236  119  240 1    
   237  120  121 1    
   238  120  124 1    
   239  120  241 1    
   240  121  122 am   BACKBONE|DICT|INTERRES
   241  121  123 2    
   242  122  242 1    
   243  122  243 1    
   244  124  125 1    
   245  124  244 1    
   246  124  245 1    
   247  125  126 1    
   248  126  246 1    
   249  126  247 1    
@<TRIPOS>SUBSTRUCTURE
     1 UNK         1 GROUP             0       ****    0 ROOT    
