@<TRIPOS>MOLECULE
3R540
247   249    1
SMALL
USER_CHARGES


@<TRIPOS>ATOM
      1 CA          2.1491  -16.2472  -46.7494 C.3       0 UNK        -0.1800 
      2 C           1.4929  -15.0411  -47.4020 C.2       0 UNK         0.5000 
      3 O           2.1878  -14.1082  -47.8037 O.2       0 UNK        -0.5000 
      4 N           0.1589  -15.0641  -47.5133 N.am      1 UNK        -0.5000 
      5 CA         -0.6970  -14.0574  -48.1556 C.3       1 UNK         0.1400 
      6 C6         -0.5024  -13.9582  -49.6959 C.3       23 UNK        -0.0398 
      7 S7         -0.7078  -15.5714  -50.5260 S.3       23 UNK        -0.2404 
      8 C8          0.9931  -15.8752  -51.0989 C.3       23 UNK        -0.0205 
      9 C9          1.2351  -17.3501  -51.3708 C.ar      23 UNK        -0.0193 
     10 C10         0.8573  -17.9158  -52.5902 C.ar      23 UNK        -0.1150 
     11 C11         1.0977  -19.2679  -52.8497 C.ar      23 UNK        -0.0193 
     12 C12         1.7134  -20.0568  -51.8732 C.ar      23 UNK        -0.1150 
     13 C13         2.0969  -19.5054  -50.6457 C.ar      23 UNK        -0.0193 
     14 C14         1.8604  -18.1460  -50.4078 C.ar      23 UNK        -0.1150 
     15 C15         2.7874  -20.3911  -49.6077 C.3       23 UNK        -0.0205 
     16 S16         2.3830  -19.9935  -47.8695 S.3       23 UNK        -0.2404 
     17 C17         0.5808  -20.2609  -47.8526 C.3       23 UNK        -0.0398 
     18 CA          0.1979  -21.6342  -47.2641 C.3       11 UNK         0.1400 
     19 N           0.4282  -21.7098  -45.8186 N.am      11 UNK        -0.5000 
     20 C           0.3724  -22.8403  -45.1027 C.2       10 UNK         0.5000 
     21 O           0.1394  -23.9435  -45.5938 O.2       10 UNK        -0.5000 
     22 CA          0.5403  -22.7161  -43.5788 C.3       10 UNK         0.1400 
     23 CB          2.0156  -22.5283  -43.1960 C.3       10 UNK        -0.1800 
     24 N          -0.2701  -21.6340  -43.0191 N.am      10 UNK        -0.5000 
     25 C          -1.6111  -21.6092  -43.0449 C.2       9 UNK         0.5000 
     26 O          -2.3018  -22.5234  -43.4952 O.2       9 UNK        -0.5000 
     27 CA         -2.2985  -20.3375  -42.5164 C.3       9 UNK         0.1400 
     28 CB         -2.4085  -20.3779  -40.9851 C.3       9 UNK        -0.1800 
     29 N          -1.6217  -19.1080  -42.9322 N.am      9 UNK        -0.5000 
     30 C          -1.4882  -18.7046  -44.2039 C.2       8 UNK         0.5000 
     31 O          -1.9573  -19.3090  -45.1667 O.2       8 UNK        -0.5000 
     32 CA         -0.6292  -17.4528  -44.4549 C.3       8 UNK         0.1400 
     33 CB         -1.4100  -16.1637  -44.1638 C.3       8 UNK        -0.1800 
     34 N           0.6156  -17.4636  -43.6885 N.am      8 UNK        -0.5000 
     35 C           1.5724  -18.3944  -43.8117 C.2       7 UNK         0.5000 
     36 O           1.5230  -19.3221  -44.6174 O.2       7 UNK        -0.5000 
     37 CA          2.7545  -18.3014  -42.8346 C.3       7 UNK         0.1400 
     38 CB          3.7758  -17.2492  -43.2955 C.3       7 UNK        -0.1800 
     39 N           2.3035  -17.9991  -41.4766 N.am      7 UNK        -0.5000 
     40 C           1.6225  -18.8553  -40.7013 C.2       6 UNK         0.5000 
     41 O           1.3423  -20.0065  -41.0352 O.2       6 UNK        -0.5000 
     42 CA          1.1394  -18.3197  -39.3410 C.3       6 UNK         0.1400 
     43 CB          2.2644  -18.3931  -38.2979 C.3       6 UNK        -0.1800 
     44 N           0.6408  -16.9458  -39.4223 N.am      6 UNK        -0.5000 
     45 C          -0.4618  -16.5810  -40.0916 C.2       5 UNK         0.5000 
     46 O          -1.1944  -17.3715  -40.6838 O.2       5 UNK        -0.5000 
     47 CA         -0.7745  -15.0748  -40.1500 C.3       5 UNK         0.1400 
     48 CB         -1.6022  -14.6492  -38.9283 C.3       5 UNK        -0.1800 
     49 N           0.4159  -14.2255  -40.2507 N.am      5 UNK        -0.5000 
     50 C           1.3180  -14.2816  -41.2395 C.2       4 UNK         0.5000 
     51 O           1.2909  -15.1167  -42.1467 O.2       4 UNK        -0.5000 
     52 CA          2.4718  -13.2638  -41.1625 C.3       4 UNK         0.1400 
     53 CB          3.6184  -13.8379  -40.3154 C.3       4 UNK        -0.1800 
     54 N           3.0043  -12.8888  -42.4745 N.am      4 UNK        -0.5000 
     55 C           2.3056  -12.3342  -43.4749 C.2       3 UNK         0.5000 
     56 O           1.1094  -12.0458  -43.3859 O.2       3 UNK        -0.5000 
     57 CA          3.0960  -12.0393  -44.7720 C.3       3 UNK         0.1400 
     58 CB          4.0411  -13.1946  -45.1544 C.3       3 UNK        -0.1800 
     59 N           2.2219  -11.7501  -45.9110 N.am      3 UNK        -0.5000 
     60 C           1.5630  -10.5984  -46.1085 C.2       2 UNK         0.5000 
     61 O           1.6904   -9.6091  -45.3846 O.2       2 UNK        -0.5000 
     62 CA          0.6160  -10.5168  -47.3241 C.3       2 UNK         0.1400 
     63 CB          1.2195   -9.6210  -48.4179 C.3       2 UNK        -0.1800 
     64 N           0.3132  -11.8237  -47.9090 N.am      2 UNK        -0.5000 
     65 C          -0.5935  -12.6916  -47.4393 C.2       1 UNK         0.5000 
     66 O          -1.3231  -12.4606  -46.4745 O.2       1 UNK        -0.5000 
     67 C          -1.2473  -22.0059  -47.6527 C.2       11 UNK         0.5000 
     68 O          -1.4403  -22.6711  -48.6702 O.2       11 UNK        -0.5000 
     69 N          -2.2369  -21.6094  -46.8422 N.am      12 UNK        -0.5000 
     70 CA         -3.6430  -21.9770  -47.0246 C.3       12 UNK         0.1400 
     71 CB         -4.5229  -21.1418  -46.0840 C.3       12 UNK        -0.1800 
     72 C          -3.9083  -23.4832  -46.8328 C.2       12 UNK         0.5000 
     73 O          -4.8321  -24.0140  -47.4485 O.2       12 UNK        -0.5000 
     74 N          -3.0925  -24.1497  -46.0071 N.am      13 UNK        -0.5000 
     75 CA         -3.1305  -25.5952  -45.8095 C.3       13 UNK         0.1400 
     76 CB         -2.5816  -25.9349  -44.4142 C.3       13 UNK        -0.1800 
     77 C          -2.3528  -26.3431  -46.9076 C.2       13 UNK         0.5000 
     78 O          -2.8894  -27.2807  -47.4985 O.2       13 UNK        -0.5000 
     79 N          -1.0966  -25.9385  -47.1393 N.am      14 UNK        -0.5000 
     80 CA         -0.1444  -26.6546  -47.9877 C.3       14 UNK         0.1400 
     81 CB          1.2874  -26.2745  -47.5766 C.3       14 UNK        -0.1800 
     82 C          -0.3537  -26.4129  -49.4910 C.2       14 UNK         0.5000 
     83 O          -0.3994  -27.3762  -50.2573 O.2       14 UNK        -0.5000 
     84 N          -0.4439  -25.1384  -49.8895 N.am      15 UNK        -0.5000 
     85 CA         -0.5213  -24.7158  -51.2909 C.3       15 UNK         0.1400 
     86 CB          0.3774  -23.4817  -51.4826 C.3       15 UNK        -0.1800 
     87 C          -1.9581  -24.3917  -51.7314 C.2       15 UNK         0.5000 
     88 O          -2.2132  -24.3172  -52.9334 O.2       15 UNK        -0.5000 
     89 N          -2.8528  -24.1757  -50.7563 N.am      16 UNK        -0.5000 
     90 CA         -4.2010  -23.6265  -50.9096 C.3       16 UNK         0.1400 
     91 CB         -5.1593  -24.6256  -51.5887 C.3       16 UNK        -0.1800 
     92 C          -4.1795  -22.1980  -51.4937 C.2       16 UNK         0.5000 
     93 O          -4.9510  -21.8540  -52.3940 O.2       16 UNK        -0.5000 
     94 N          -3.2865  -21.3783  -50.9200 N.am      17 UNK        -0.5000 
     95 CA         -3.2662  -19.9241  -51.0670 C.3       17 UNK         0.1400 
     96 CB         -1.9777  -19.3836  -50.4380 C.3       17 UNK        -0.1800 
     97 C          -4.5002  -19.2854  -50.3995 C.2       17 UNK         0.5000 
     98 O          -5.1518  -19.9246  -49.5700 O.2       17 UNK        -0.5000 
     99 N          -4.8323  -18.0524  -50.8059 N.am      18 UNK        -0.5000 
    100 CA        -6.0330  -17.2720  -50.4502 C.3       18 UNK         0.1400 
    101 CB        -6.1638  -17.0601  -48.9292 C.3       18 UNK        -0.1800 
    102 C         -7.3341  -17.8340  -51.0646 C.2       18 UNK         0.5000 
    103 O         -8.1562  -17.0595  -51.5541 O.2       18 UNK        -0.5000 
    104 N         -7.4571  -19.1675  -51.1116 N.am      19 UNK        -0.5000 
    105 CA        -8.4044  -19.9128  -51.9454 C.3       19 UNK         0.1400 
    106 CB        -8.4658  -21.3658  -51.4486 C.3       19 UNK        -0.1800 
    107 C         -8.0387  -19.8622  -53.4469 C.2       19 UNK         0.5000 
    108 O         -8.8861  -20.1711  -54.2852 O.2       19 UNK        -0.5000 
    109 N         -6.7971  -19.4489  -53.7474 N.am      20 UNK        -0.5000 
    110 CA        -6.2261  -19.1798  -55.0685 C.3       20 UNK         0.1400 
    111 CB        -6.9819  -18.0339  -55.7742 C.3       20 UNK        -0.1800 
    112 C         -6.0731  -20.4404  -55.9405 C.2       20 UNK         0.5000 
    113 O         -6.2920  -20.3844  -57.1519 O.2       20 UNK        -0.5000 
    114 N         -5.6610  -21.5525  -55.3164 N.am      21 UNK        -0.5000 
    115 CA        -5.3195  -22.7975  -56.0120 C.3       21 UNK         0.1400 
    116 CB        -5.4175  -23.9592  -55.0200 C.3       21 UNK        -0.1800 
    117 C         -3.9134  -22.7662  -56.6490 C.2       21 UNK         0.5000 
    118 O         -3.5964  -23.6551  -57.4409 O.2       21 UNK        -0.5000 
    119 N         -3.1017  -21.7644  -56.2801 N.am      22 UNK        -0.5000 
    120 CA        -1.7476  -21.4831  -56.7810 C.3       22 UNK         0.1400 
    121 C         -1.6527  -21.4417  -58.3344 C.2       22 UNK         0.5000 
    122 N         -0.6414  -22.0692  -58.9194 N.am      22 UNK        -0.7600 
    123 O         -2.4590  -20.8026  -59.0068 O.2       22 UNK        -0.5000 
    124 C124       -1.2167  -20.1469  -56.2023 C.3       23 UNK        -0.0398 
    125 S125       -1.0552  -20.1360  -54.3806 S.3       23 UNK        -0.2404 
    126 C126        0.7363  -19.8520  -54.2063 C.3       23 UNK        -0.0205 
    127 H127        1.5668  -17.1537  -46.9116 H         1 UNK         0.0600 
    128 H128        3.1441  -16.4118  -47.1629 H         1 UNK         0.0600 
    129 H129        2.2453  -16.0848  -45.6772 H         1 UNK         0.0600 
    130 H130       -0.3418  -15.8608  -47.1511 H         1 UNK         0.3000 
    131 H131       -1.7196  -14.4012  -47.9905 H         1 UNK         0.0600 
    132 H132       -1.2362  -13.2718  -50.1218 H         1 UNK         0.0800 
    133 H133        0.4756  -13.5481  -49.9499 H         1 UNK         0.0800 
    134 H134        1.7069  -15.5206  -50.3543 H         1 UNK         0.0800 
    135 H135        1.1788  -15.2924  -52.0022 H         1 UNK         0.0800 
    136 H136        0.3820  -17.3014  -53.3421 H         1 UNK         0.1150 
    137 H137        1.9094  -21.0997  -52.0769 H         1 UNK         0.1150 
    138 H138        2.1638  -17.7015  -49.4711 H         1 UNK         0.1150 
    139 H139        2.5401  -21.4394  -49.7831 H         1 UNK         0.0800 
    140 H140        3.8659  -20.3015  -49.7421 H         1 UNK         0.0800 
    141 H141        0.2153  -20.1654  -48.8732 H         1 UNK         0.0800 
    142 H142        0.1116  -19.4545  -47.2865 H         1 UNK         0.0800 
    143 H143        0.8380  -22.3861  -47.7313 H         1 UNK         0.0600 
    144 H144        0.6748  -20.8402  -45.3507 H         1 UNK         0.3000 
    145 H145        0.1961  -23.6515  -43.1327 H         1 UNK         0.0600 
    146 H146        2.1422  -22.5123  -42.1134 H         1 UNK         0.0600 
    147 H147        2.6248  -23.3462  -43.5827 H         1 UNK         0.0600 
    148 H148        2.4245  -21.5999  -43.5935 H         1 UNK         0.0600 
    149 H149        0.2300  -20.8615  -42.5935 H         1 UNK         0.3000 
    150 H150       -3.3097  -20.3134  -42.9271 H         1 UNK         0.0600 
    151 H151       -2.9128  -21.2861  -40.6526 H         1 UNK         0.0600 
    152 H152       -2.9834  -19.5313  -40.6096 H         1 UNK         0.0600 
    153 H153       -1.4272  -20.3529  -40.5102 H         1 UNK         0.0600 
    154 H154       -1.2476  -18.5247  -42.1882 H         1 UNK         0.3000 
    155 H155       -0.3632  -17.4520  -45.5126 H         1 UNK         0.0600 
    156 H156       -1.7160  -16.1066  -43.1196 H         1 UNK         0.0600 
    157 H157       -2.3124  -16.1082  -44.7737 H         1 UNK         0.0600 
    158 H158       -0.8109  -15.2796  -44.3856 H         1 UNK         0.0600 
    159 H159        0.7564  -16.7061  -43.0243 H         1 UNK         0.3000 
    160 H160        3.2540  -19.2724  -42.8209 H         1 UNK         0.0600 
    161 H161        4.6392  -17.2211  -42.6308 H         1 UNK         0.0600 
    162 H162        3.3472  -16.2476  -43.3285 H         1 UNK         0.0600 
    163 H163        4.1436  -17.4790  -44.2964 H         1 UNK         0.0600 
    164 H164        2.4294  -17.0497  -41.1582 H         1 UNK         0.3000 
    165 H165        0.3199  -18.9586  -39.0046 H         1 UNK         0.0600 
    166 H166        1.9086  -18.0907  -37.3128 H         1 UNK         0.0600 
    167 H167        2.6451  -19.4112  -38.2063 H         1 UNK         0.0600 
    168 H168        3.1049  -17.7507  -38.5635 H         1 UNK         0.0600 
    169 H169        1.1859  -16.2305  -38.9646 H         1 UNK         0.3000 
    170 H170       -1.3762  -14.8999  -41.0438 H         1 UNK         0.0600 
    171 H171       -2.5067  -15.2527  -38.8401 H         1 UNK         0.0600 
    172 H172       -1.0400  -14.7627  -38.0006 H         1 UNK         0.0600 
    173 H173       -1.9154  -13.6079  -39.0068 H         1 UNK         0.0600 
    174 H174        0.5223  -13.5221  -39.5340 H         1 UNK         0.3000 
    175 H175        2.1007  -12.3547  -40.6853 H         1 UNK         0.0600 
    176 H176        4.0403  -14.7372  -40.7668 H         1 UNK         0.0600 
    177 H177        4.4237  -13.1127  -40.1968 H         1 UNK         0.0600 
    178 H178        3.2751  -14.1034  -39.3146 H         1 UNK         0.0600 
    179 H179        3.9753  -13.1102  -42.6353 H         1 UNK         0.3000 
    180 H180        3.7082  -11.1554  -44.5824 H         1 UNK         0.0600 
    181 H181        3.5150  -14.1478  -45.1894 H         1 UNK         0.0600 
    182 H182        4.8581  -13.2966  -44.4398 H         1 UNK         0.0600 
    183 H183        4.4952  -13.0288  -46.1318 H         1 UNK         0.0600 
    184 H184        2.0699  -12.5112  -46.5639 H         1 UNK         0.3000 
    185 H185       -0.3146  -10.0580  -46.9834 H         1 UNK         0.0600 
    186 H186        1.4276   -8.6211  -48.0348 H         1 UNK         0.0600 
    187 H187        2.1570  -10.0280  -48.7992 H         1 UNK         0.0600 
    188 H188        0.5346   -9.5087  -49.2586 H         1 UNK         0.0600 
    189 H189        0.9228  -12.1255  -48.6559 H         1 UNK         0.3000 
    190 H190       -2.0259  -20.9932  -46.0614 H         1 UNK         0.3000 
    191 H191       -3.9213  -21.7291  -48.0496 H         1 UNK         0.0600 
    192 H192       -4.2736  -21.3178  -45.0377 H         1 UNK         0.0600 
    193 H193       -5.5777  -21.3845  -46.2182 H         1 UNK         0.0600 
    194 H194       -4.4089  -20.0762  -46.2841 H         1 UNK         0.0600 
    195 H195       -2.3857  -23.6340  -45.4977 H         1 UNK         0.3000 
    196 H196       -4.1684  -25.9337  -45.8443 H         1 UNK         0.0600 
    197 H197       -2.6099  -27.0103  -44.2348 H         1 UNK         0.0600 
    198 H198       -3.1749  -25.4584  -43.6336 H         1 UNK         0.0600 
    199 H199       -1.5489  -25.6081  -44.2901 H         1 UNK         0.0600 
    200 H200       -0.7194  -25.1661  -46.5922 H         1 UNK         0.3000 
    201 H201       -0.2633  -27.7253  -47.8064 H         1 UNK         0.0600 
    202 H202        1.4735  -26.5174  -46.5302 H         1 UNK         0.0600 
    203 H203        1.4779  -25.2087  -47.7092 H         1 UNK         0.0600 
    204 H204        2.0229  -26.8166  -48.1722 H         1 UNK         0.0600 
    205 H205       -0.4640  -24.3986  -49.1975 H         1 UNK         0.3000 
    206 H206       -0.1480  -25.5058  -51.9459 H         1 UNK         0.0600 
    207 H207        1.4094  -23.6977  -51.2062 H         1 UNK         0.0600 
    208 H208        0.3806  -23.1600  -52.5250 H         1 UNK         0.0600 
    209 H209        0.0402  -22.6347  -50.8843 H         1 UNK         0.0600 
    210 H210       -2.5048  -24.2159  -49.8073 H         1 UNK         0.3000 
    211 H211       -4.5866  -23.4841  -49.9025 H         1 UNK         0.0600 
    212 H212       -4.7230  -25.0933  -52.4681 H         1 UNK         0.0600 
    213 H213       -6.0961  -24.1520  -51.8839 H         1 UNK         0.0600 
    214 H214       -5.4140  -25.4304  -50.8992 H         1 UNK         0.0600 
    215 H215       -2.6860  -21.7626  -50.2016 H         1 UNK         0.3000 
    216 H216       -3.2726  -19.6861  -52.1325 H         1 UNK         0.0600 
    217 H217       -1.8614  -18.3192  -50.6398 H         1 UNK         0.0600 
    218 H218       -1.1009  -19.8853  -50.8470 H         1 UNK         0.0600 
    219 H219       -1.9779  -19.5137  -49.3557 H         1 UNK         0.0600 
    220 H220       -4.2295  -17.6035  -51.4819 H         1 UNK         0.3000 
    221 H221       -5.8804  -16.2886  -50.8980 H         1 UNK         0.0600 
    222 H222       -6.4000  -17.9842  -48.4014 H         1 UNK         0.0600 
    223 H223       -5.2434  -16.6573  -48.5065 H         1 UNK         0.0600 
    224 H224       -6.9619  -16.3509  -48.7069 H         1 UNK         0.0600 
    225 H225       -6.7497  -19.7117  -50.6259 H         1 UNK         0.3000 
    226 H226       -9.3939  -19.4658  -51.8307 H         1 UNK         0.0600 
    227 H227       -8.7799  -21.4127  -50.4058 H         1 UNK         0.0600 
    228 H228       -9.1814  -21.9483  -52.0301 H         1 UNK         0.0600 
    229 H229       -7.4980  -21.8609  -51.5291 H         1 UNK         0.0600 
    230 H230       -6.1826  -19.2765  -52.9667 H         1 UNK         0.3000 
    231 H231       -5.2103  -18.8264  -54.8854 H         1 UNK         0.0600 
    232 H232       -7.0537  -17.1553  -55.1329 H         1 UNK         0.0600 
    233 H233       -7.9935  -18.3272  -56.0560 H         1 UNK         0.0600 
    234 H234       -6.4659  -17.7278  -56.6849 H         1 UNK         0.0600 
    235 H235       -5.5119  -21.5400  -54.3109 H         1 UNK         0.3000 
    236 H236       -6.0455  -22.9697  -56.8093 H         1 UNK         0.0600 
    237 H237       -5.3080  -24.9194  -55.5251 H         1 UNK         0.0600 
    238 H238       -4.6217  -23.8850  -54.2812 H         1 UNK         0.0600 
    239 H239       -6.3747  -23.9662  -54.4984 H         1 UNK         0.0600 
    240 H240       -3.4542  -21.1111  -55.5983 H         1 UNK         0.3000 
    241 H241       -1.1076  -22.2913  -56.4224 H         1 UNK         0.0600 
    242 H242       -0.5601  -22.0356  -59.9240 H         1 UNK         0.3800 
    243 H243        0.0362  -22.5941  -58.3877 H         1 UNK         0.3800 
    244 H244       -0.2491  -19.9096  -56.6476 H         1 UNK         0.0800 
    245 H245       -1.8774  -19.3251  -56.4842 H         1 UNK         0.0800 
    246 H246        1.2654  -20.7904  -54.3793 H         1 UNK         0.0800 
    247 H247        1.0814  -19.1582  -54.9741 H         1 UNK         0.0800 
@<TRIPOS>BOND
     1    1    2 1    
     2    1  127 1    
     3    1  128 1    
     4    1  129 1    
     5    2    3 2    
     6    2    4 am   BACKBONE|DICT|INTERRES
     7    4    5 1    
     8    4  130 1    
     9    5    6 1    
    10    5   65 1    
    11    5  131 1    
    12    6    7 1    
    13    6  132 1    
    14    6  133 1    
    15    7    8 1    
    16    8    9 1    
    17    8  134 1    
    18    8  135 1    
    19    9   10 ar   
    20    9   14 ar   
    21   10   11 ar   
    22   10  136 1    
    23   11   12 ar   
    24   11  126 1    
    25   12   13 ar   
    26   12  137 1    
    27   13   14 ar   
    28   13   15 1    
    29   14  138 1    
    30   15   16 1    
    31   15  139 1    
    32   15  140 1    
    33   16   17 1    
    34   17   18 1    
    35   17  141 1    
    36   17  142 1    
    37   18   19 1    
    38   18   67 1    
    39   18  143 1    
    40   19   20 am   BACKBONE|DICT|INTERRES
    41   19  144 1    
    42   20   21 2    
    43   20   22 1    
    44   22   23 1    
    45   22   24 1    
    46   22  145 1    
    47   23  146 1    
    48   23  147 1    
    49   23  148 1    
    50   24   25 am   BACKBONE|DICT|INTERRES
    51   24  149 1    
    52   25   26 2    
    53   25   27 1    
    54   27   28 1    
    55   27   29 1    
    56   27  150 1    
    57   28  151 1    
    58   28  152 1    
    59   28  153 1    
    60   29   30 am   BACKBONE|DICT|INTERRES
    61   29  154 1    
    62   30   31 2    
    63   30   32 1    
    64   32   33 1    
    65   32   34 1    
    66   32  155 1    
    67   33  156 1    
    68   33  157 1    
    69   33  158 1    
    70   34   35 am   BACKBONE|DICT|INTERRES
    71   34  159 1    
    72   35   36 2    
    73   35   37 1    
    74   37   38 1    
    75   37   39 1    
    76   37  160 1    
    77   38  161 1    
    78   38  162 1    
    79   38  163 1    
    80   39   40 am   BACKBONE|DICT|INTERRES
    81   39  164 1    
    82   40   41 2    
    83   40   42 1    
    84   42   43 1    
    85   42   44 1    
    86   42  165 1    
    87   43  166 1    
    88   43  167 1    
    89   43  168 1    
    90   44   45 am   BACKBONE|DICT|INTERRES
    91   44  169 1    
    92   45   46 2    
    93   45   47 1    
    94   47   48 1    
    95   47   49 1    
    96   47  170 1    
    97   48  171 1    
    98   48  172 1    
    99   48  173 1    
   100   49   50 am   BACKBONE|DICT|INTERRES
   101   49  174 1    
   102   50   51 2    
   103   50   52 1    
   104   52   53 1    
   105   52   54 1    
   106   52  175 1    
   107   53  176 1    
   108   53  177 1    
   109   53  178 1    
   110   54   55 am   BACKBONE|DICT|INTERRES
   111   54  179 1    
   112   55   56 2    
   113   55   57 1    
   114   57   58 1    
   115   57   59 1    
   116   57  180 1    
   117   58  181 1    
   118   58  182 1    
   119   58  183 1    
   120   59   60 am   BACKBONE|DICT|INTERRES
   121   59  184 1    
   122   60   61 2    
   123   60   62 1    
   124   62   63 1    
   125   62   64 1    
   126   62  185 1    
   127   63  186 1    
   128   63  187 1    
   129   63  188 1    
   130   64   65 am   BACKBONE|DICT|INTERRES
   131   64  189 1    
   132   65   66 2    
   133   67   68 2    
   134   67   69 am   BACKBONE|DICT|INTERRES
   135   69   70 1    
   136   69  190 1    
   137   70   71 1    
   138   70   72 1    
   139   70  191 1    
   140   71  192 1    
   141   71  193 1    
   142   71  194 1    
   143   72   73 2    
   144   72   74 am   BACKBONE|DICT|INTERRES
   145   74   75 1    
   146   74  195 1    
   147   75   76 1    
   148   75   77 1    
   149   75  196 1    
   150   76  197 1    
   151   76  198 1    
   152   76  199 1    
   153   77   78 2    
   154   77   79 am   BACKBONE|DICT|INTERRES
   155   79   80 1    
   156   79  200 1    
   157   80   81 1    
   158   80   82 1    
   159   80  201 1    
   160   81  202 1    
   161   81  203 1    
   162   81  204 1    
   163   82   83 2    
   164   82   84 am   BACKBONE|DICT|INTERRES
   165   84   85 1    
   166   84  205 1    
   167   85   86 1    
   168   85   87 1    
   169   85  206 1    
   170   86  207 1    
   171   86  208 1    
   172   86  209 1    
   173   87   88 2    
   174   87   89 am   BACKBONE|DICT|INTERRES
   175   89   90 1    
   176   89  210 1    
   177   90   91 1    
   178   90   92 1    
   179   90  211 1    
   180   91  212 1    
   181   91  213 1    
   182   91  214 1    
   183   92   93 2    
   184   92   94 am   BACKBONE|DICT|INTERRES
   185   94   95 1    
   186   94  215 1    
   187   95   96 1    
   188   95   97 1    
   189   95  216 1    
   190   96  217 1    
   191   96  218 1    
   192   96  219 1    
   193   97   98 2    
   194   97   99 am   BACKBONE|DICT|INTERRES
   195   99  100 1    
   196   99  220 1    
   197  100  101 1    
   198  100  102 1    
   199  100  221 1    
   200  101  222 1    
   201  101  223 1    
   202  101  224 1    
   203  102  103 2    
   204  102  104 am   BACKBONE|DICT|INTERRES
   205  104  105 1    
   206  104  225 1    
   207  105  106 1    
   208  105  107 1    
   209  105  226 1    
   210  106  227 1    
   211  106  228 1    
   212  106  229 1    
   213  107  108 2    
   214  107  109 am   BACKBONE|DICT|INTERRES
   215  109  110 1    
   216  109  230 1    
   217  110  111 1    
   218  110  112 1    
   219  110  231 1    
   220  111  232 1    
   221  111  233 1    
   222  111  234 1    
   223  112  113 2    
   224  112  114 am   BACKBONE|DICT|INTERRES
   225  114  115 1    
   226  114  235 1    
   227  115  116 1    
   228  115  117 1    
   229  115  236 1    
   230  116  237 1    
   231  116  238 1    
   232  116  239 1    
   233  117  118 2    
   234  117  119 am   BACKBONE|DICT|INTERRES
   235  119  120 1    
   236  119  240 1    
   237  120  121 1    
   238  120  124 1    
   239  120  241 1    
   240  121  122 am   BACKBONE|DICT|INTERRES
   241  121  123 2    
   242  122  242 1    
   243  122  243 1    
   244  124  125 1    
   245  124  244 1    
   246  124  245 1    
   247  125  126 1    
   248  126  246 1    
   249  126  247 1    
@<TRIPOS>SUBSTRUCTURE
     1 UNK         1 GROUP             0       ****    0 ROOT    
