@<TRIPOS>MOLECULE
3R540
247   249    1
SMALL
USER_CHARGES


@<TRIPOS>ATOM
      1 CA          1.8049  -15.5501  -51.5331 C.3       0 UNK        -0.1800 
      2 C           2.3217  -15.2195  -50.1400 C.2       0 UNK         0.5000 
      3 O           3.5180  -14.9883  -49.9659 O.2       0 UNK        -0.5000 
      4 N           1.4226  -15.1962  -49.1497 N.am      1 UNK        -0.5000 
      5 CA          1.7154  -14.9097  -47.7412 C.3       1 UNK         0.1400 
      6 C6          0.5630  -15.3481  -46.7961 C.3       23 UNK        -0.0398 
      7 S7         -1.1002  -14.8040  -47.3371 S.3       23 UNK        -0.2404 
      8 C8         -1.9363  -16.3822  -47.7002 C.3       23 UNK        -0.0205 
      9 C9         -1.4089  -17.0592  -48.9579 C.ar      23 UNK        -0.0193 
     10 C10        -2.0426  -16.8567  -50.1860 C.ar      23 UNK        -0.1150 
     11 C11        -1.6049  -17.5300  -51.3304 C.ar      23 UNK        -0.0193 
     12 C12        -0.4971  -18.3782  -51.2432 C.ar      23 UNK        -0.1150 
     13 C13         0.1662  -18.5745  -50.0312 C.ar      23 UNK        -0.0193 
     14 C14        -0.3105  -17.9199  -48.8899 C.ar      23 UNK        -0.1150 
     15 C15         1.3934  -19.4883  -50.0063 C.3       23 UNK        -0.0205 
     16 S16         1.8133  -20.1986  -48.3775 S.3       23 UNK        -0.2404 
     17 C17         0.2488  -21.0273  -47.9402 C.3       23 UNK        -0.0398 
     18 CA          0.4653  -22.4021  -47.2778 C.3       11 UNK         0.1400 
     19 N           1.1727  -22.2973  -45.9955 N.am      11 UNK        -0.5000 
     20 C           1.6733  -23.3294  -45.3020 C.2       10 UNK         0.5000 
     21 O           1.5752  -24.5037  -45.6601 O.2       10 UNK        -0.5000 
     22 CA          2.3494  -22.9938  -43.9612 C.3       10 UNK         0.1400 
     23 CB          3.7579  -22.4174  -44.1739 C.3       10 UNK        -0.1800 
     24 N           1.5405  -22.0581  -43.1796 N.am      10 UNK        -0.5000 
     25 C           0.4380  -22.4089  -42.5026 C.2       9 UNK         0.5000 
     26 O           0.0457  -23.5711  -42.4016 O.2       9 UNK        -0.5000 
     27 CA         -0.3778  -21.2827  -41.8379 C.3       9 UNK         0.1400 
     28 CB          0.0907  -21.0642  -40.3916 C.3       9 UNK        -0.1800 
     29 N          -0.3231  -20.0115  -42.5610 N.am      9 UNK        -0.5000 
     30 C          -0.8158  -19.8068  -43.7905 C.2       8 UNK         0.5000 
     31 O          -1.4077  -20.6656  -44.4427 O.2       8 UNK        -0.5000 
     32 CA         -0.5445  -18.4301  -44.4264 C.3       8 UNK         0.1400 
     33 CB         -1.5743  -17.3922  -43.9583 C.3       8 UNK        -0.1800 
     34 N           0.8073  -17.9316  -44.1657 N.am      8 UNK        -0.5000 
     35 C           1.9308  -18.5680  -44.5276 C.2       7 UNK         0.5000 
     36 O           1.9416  -19.6413  -45.1266 O.2       7 UNK        -0.5000 
     37 CA          3.2600  -17.9337  -44.0934 C.3       7 UNK         0.1400 
     38 CB          3.6390  -16.7595  -45.0060 C.3       7 UNK        -0.1800 
     39 N           3.2002  -17.4871  -42.7037 N.am      7 UNK        -0.5000 
     40 C           3.2262  -18.3162  -41.6506 C.2       6 UNK         0.5000 
     41 O           3.3672  -19.5360  -41.7421 O.2       6 UNK        -0.5000 
     42 CA          3.0290  -17.6756  -40.2643 C.3       6 UNK         0.1400 
     43 CB          4.3684  -17.1741  -39.7042 C.3       6 UNK        -0.1800 
     44 N           2.0670  -16.5716  -40.2799 N.am      6 UNK        -0.5000 
     45 C           0.7582  -16.7126  -40.5323 C.2       5 UNK         0.5000 
     46 O           0.2204  -17.7934  -40.7689 O.2       5 UNK        -0.5000 
     47 CA         -0.0842  -15.4249  -40.5668 C.3       5 UNK         0.1400 
     48 CB         -0.5697  -15.0607  -39.1560 C.3       5 UNK        -0.1800 
     49 N           0.6141  -14.2769  -41.1520 N.am      5 UNK        -0.5000 
     50 C           1.0644  -14.2185  -42.4117 C.2       4 UNK         0.5000 
     51 O           1.0104  -15.1630  -43.2035 O.2       4 UNK        -0.5000 
     52 CA          1.6894  -12.8862  -42.8590 C.3       4 UNK         0.1400 
     53 CB          3.1709  -13.0709  -43.2201 C.3       4 UNK        -0.1800 
     54 N           0.9584  -12.3412  -44.0038 N.am      4 UNK        -0.5000 
     55 C          -0.2445  -11.7531  -43.9049 C.2       3 UNK         0.5000 
     56 O          -0.7989  -11.5524  -42.8225 O.2       3 UNK        -0.5000 
     57 CA         -0.9800  -11.3442  -45.2018 C.3       3 UNK         0.1400 
     58 CB         -1.6807   -9.9750  -45.0756 C.3       3 UNK        -0.1800 
     59 N          -0.1706  -11.4162  -46.4223 N.am      3 UNK        -0.5000 
     60 C           0.8715  -10.6507  -46.7836 C.2       2 UNK         0.5000 
     61 O           1.2930   -9.7006  -46.1228 O.2       2 UNK        -0.5000 
     62 CA          1.5695  -11.0596  -48.1039 C.3       2 UNK         0.1400 
     63 CB          2.9994  -10.4944  -48.2321 C.3       2 UNK        -0.1800 
     64 N           1.5613  -12.5160  -48.3103 N.am      2 UNK        -0.5000 
     65 C           2.0700  -13.4352  -47.4738 C.2       1 UNK         0.5000 
     66 O           2.7267  -13.1563  -46.4717 O.2       1 UNK        -0.5000 
     67 C          -0.8826  -23.1440  -47.1748 C.2       11 UNK         0.5000 
     68 O          -1.3677  -23.6375  -48.1931 O.2       11 UNK        -0.5000 
     69 N          -1.4583  -23.2433  -45.9677 N.am      12 UNK        -0.5000 
     70 CA         -2.6802  -23.9937  -45.6645 C.3       12 UNK         0.1400 
     71 CB         -3.0445  -23.8012  -44.1861 C.3       12 UNK        -0.1800 
     72 C          -2.5952  -25.4943  -46.0111 C.2       12 UNK         0.5000 
     73 O          -3.6267  -26.1006  -46.2992 O.2       12 UNK        -0.5000 
     74 N          -1.3754  -26.0522  -46.0577 N.am      13 UNK        -0.5000 
     75 CA         -1.0890  -27.3992  -46.5627 C.3       13 UNK         0.1400 
     76 CB          0.3780  -27.7413  -46.2642 C.3       13 UNK        -0.1800 
     77 C          -1.3857  -27.5665  -48.0701 C.2       13 UNK         0.5000 
     78 O          -1.6444  -28.6850  -48.5148 O.2       13 UNK        -0.5000 
     79 N          -1.3710  -26.4537  -48.8157 N.am      14 UNK        -0.5000 
     80 CA         -1.7554  -26.3444  -50.2228 C.3       14 UNK         0.1400 
     81 CB         -0.6071  -25.6647  -50.9901 C.3       14 UNK        -0.1800 
     82 C          -3.0879  -25.5774  -50.3779 C.2       14 UNK         0.5000 
     83 O          -3.3848  -25.0944  -51.4692 O.2       14 UNK        -0.5000 
     84 N          -3.8617  -25.4787  -49.2847 N.am      15 UNK        -0.5000 
     85 CA         -5.1753  -24.8393  -49.1437 C.3       15 UNK         0.1400 
     86 CB         -6.2179  -25.4813  -50.0837 C.3       15 UNK        -0.1800 
     87 C          -5.1728  -23.2951  -49.2047 C.2       15 UNK         0.5000 
     88 O          -6.2522  -22.7045  -49.2401 O.2       15 UNK        -0.5000 
     89 N          -3.9864  -22.6698  -49.1511 N.am      16 UNK        -0.5000 
     90 CA         -3.7346  -21.2255  -49.0799 C.3       16 UNK         0.1400 
     91 CB         -4.0460  -20.6914  -47.6647 C.3       16 UNK        -0.1800 
     92 C          -4.4081  -20.4166  -50.2093 C.2       16 UNK         0.5000 
     93 O          -3.8897  -20.4104  -51.3238 O.2       16 UNK        -0.5000 
     94 N          -5.5227  -19.7429  -49.9059 N.am      17 UNK        -0.5000 
     95 CA         -6.2727  -18.8603  -50.7956 C.3       17 UNK         0.1400 
     96 CB         -5.7510  -17.4278  -50.5880 C.3       17 UNK        -0.1800 
     97 C          -7.7755  -18.9647  -50.4565 C.2       17 UNK         0.5000 
     98 O          -8.1011  -19.4127  -49.3550 O.2       17 UNK        -0.5000 
     99 N          -8.7089  -18.5330  -51.3204 N.am      18 UNK        -0.5000 
    100 CA        -8.5407  -18.0054  -52.6793 C.3       18 UNK         0.1400 
    101 CB        -9.8654  -17.3616  -53.1174 C.3       18 UNK        -0.1800 
    102 C         -8.1215  -19.0896  -53.6863 C.2       18 UNK         0.5000 
    103 O         -8.4379  -20.2637  -53.4837 O.2       18 UNK        -0.5000 
    104 N         -7.4125  -18.6626  -54.7430 N.am      19 UNK        -0.5000 
    105 CA        -6.7390  -19.4980  -55.7445 C.3       19 UNK         0.1400 
    106 CB        -7.7657  -20.2276  -56.6406 C.3       19 UNK        -0.1800 
    107 C         -5.7154  -20.4191  -55.0514 C.2       19 UNK         0.5000 
    108 O         -4.7823  -19.8958  -54.4407 O.2       19 UNK        -0.5000 
    109 N         -5.9372  -21.7406  -55.1090 N.am      20 UNK        -0.5000 
    110 CA        -5.2663  -22.7829  -54.3285 C.3       20 UNK         0.1400 
    111 CB        -5.7865  -22.7538  -52.8772 C.3       20 UNK        -0.1800 
    112 C         -3.7306  -22.7396  -54.4607 C.2       20 UNK         0.5000 
    113 O         -3.2194  -23.0982  -55.5234 O.2       20 UNK        -0.5000 
    114 N         -3.0196  -22.2755  -53.4240 N.am      21 UNK        -0.5000 
    115 CA        -1.5592  -22.1699  -53.4056 C.3       21 UNK         0.1400 
    116 CB        -1.0822  -21.9529  -51.9615 C.3       21 UNK        -0.1800 
    117 C         -1.0143  -21.0785  -54.3520 C.2       21 UNK         0.5000 
    118 O          0.1535  -21.1502  -54.7368 O.2       21 UNK        -0.5000 
    119 N         -1.8671  -20.1210  -54.7395 N.am      22 UNK        -0.5000 
    120 CA        -1.6143  -19.1344  -55.8025 C.3       22 UNK         0.1400 
    121 C         -2.1318  -19.5973  -57.1985 C.2       22 UNK         0.5000 
    122 N         -2.6738  -20.7997  -57.3613 N.am      22 UNK        -0.7600 
    123 O         -2.0237  -18.8546  -58.1705 O.2       22 UNK        -0.5000 
    124 C124       -2.1658  -17.7312  -55.4295 C.3       23 UNK        -0.0398 
    125 S125       -1.2590  -16.9787  -54.0370 S.3       23 UNK        -0.2404 
    126 C126       -2.3585  -17.3913  -52.6458 C.3       23 UNK        -0.0205 
    127 H127        0.7153  -15.5777  -51.5639 H         1 UNK         0.0600 
    128 H128        2.1776  -16.5239  -51.8506 H         1 UNK         0.0600 
    129 H129        2.1437  -14.8022  -52.2498 H         1 UNK         0.0600 
    130 H130        0.4564  -15.4176  -49.3502 H         1 UNK         0.3000 
    131 H131        2.6006  -15.4884  -47.4726 H         1 UNK         0.0600 
    132 H132        0.5796  -16.4271  -46.6728 H         1 UNK         0.0800 
    133 H133        0.7218  -14.9688  -45.7858 H         1 UNK         0.0800 
    134 H134       -1.8478  -17.0532  -46.8473 H         1 UNK         0.0800 
    135 H135       -3.0041  -16.1874  -47.8109 H         1 UNK         0.0800 
    136 H136       -2.8936  -16.1935  -50.2412 H         1 UNK         0.1150 
    137 H137       -0.1528  -18.8928  -52.1294 H         1 UNK         0.1150 
    138 H138        0.1763  -18.0809  -47.9423 H         1 UNK         0.1150 
    139 H139        1.2572  -20.3096  -50.7105 H         1 UNK         0.0800 
    140 H140        2.2514  -18.9171  -50.3623 H         1 UNK         0.0800 
    141 H141       -0.3251  -20.3739  -47.2812 H         1 UNK         0.0800 
    142 H142       -0.3378  -21.1390  -48.8536 H         1 UNK         0.0800 
    143 H143        1.0913  -22.9997  -47.9438 H         1 UNK         0.0600 
    144 H144        1.3383  -21.3538  -45.6517 H         1 UNK         0.3000 
    145 H145        2.4537  -23.9225  -43.3959 H         1 UNK         0.0600 
    146 H146        4.2388  -22.1930  -43.2216 H         1 UNK         0.0600 
    147 H147        4.3929  -23.1311  -44.7000 H         1 UNK         0.0600 
    148 H148        3.7422  -21.5006  -44.7626 H         1 UNK         0.0600 
    149 H149        1.7953  -21.0806  -43.2298 H         1 UNK         0.3000 
    150 H150       -1.4206  -21.6059  -41.8132 H         1 UNK         0.0600 
    151 H151        0.0559  -21.9941  -39.8226 H         1 UNK         0.0600 
    152 H152       -0.5455  -20.3446  -39.8760 H         1 UNK         0.0600 
    153 H153        1.1154  -20.6923  -40.3539 H         1 UNK         0.0600 
    154 H154        0.0951  -19.2281  -42.0667 H         1 UNK         0.3000 
    155 H155       -0.6420  -18.5484  -45.5065 H         1 UNK         0.0600 
    156 H156       -1.5456  -17.2584  -42.8773 H         1 UNK         0.0600 
    157 H157       -1.3969  -16.4201  -44.4192 H         1 UNK         0.0600 
    158 H158       -2.5861  -17.7008  -44.2239 H         1 UNK         0.0600 
    159 H159        0.8817  -17.0395  -43.6845 H         1 UNK         0.3000 
    160 H160        4.0398  -18.6934  -44.1823 H         1 UNK         0.0600 
    161 H161        2.8925  -15.9668  -44.9782 H         1 UNK         0.0600 
    162 H162        3.7321  -17.0910  -46.0408 H         1 UNK         0.0600 
    163 H163        4.5966  -16.3269  -44.7162 H         1 UNK         0.0600 
    164 H164        3.0252  -16.5055  -42.5464 H         1 UNK         0.3000 
    165 H165        2.6459  -18.4484  -39.5943 H         1 UNK         0.0600 
    166 H166        4.7908  -16.3783  -40.3190 H         1 UNK         0.0600 
    167 H167        4.2530  -16.7906  -38.6903 H         1 UNK         0.0600 
    168 H168        5.1008  -17.9816  -39.6635 H         1 UNK         0.0600 
    169 H169        2.4262  -15.6461  -40.0983 H         1 UNK         0.3000 
    170 H170       -0.9617  -15.6242  -41.1846 H         1 UNK         0.0600 
    171 H171       -1.1121  -15.8919  -38.7032 H         1 UNK         0.0600 
    172 H172        0.2613  -14.8117  -38.4949 H         1 UNK         0.0600 
    173 H173       -1.2478  -14.2074  -39.1802 H         1 UNK         0.0600 
    174 H174        0.6881  -13.4547  -40.5703 H         1 UNK         0.3000 
    175 H175        1.6368  -12.1680  -42.0379 H         1 UNK         0.0600 
    176 H176        3.6113  -12.1371  -43.5701 H         1 UNK         0.0600 
    177 H177        3.7448  -13.3975  -42.3522 H         1 UNK         0.0600 
    178 H178        3.3101  -13.8178  -44.0008 H         1 UNK         0.0600 
    179 H179        1.3716  -12.4920  -44.9158 H         1 UNK         0.3000 
    180 H180       -1.7628  -12.0925  -45.3339 H         1 UNK         0.0600 
    181 H181       -2.2032   -9.7122  -45.9954 H         1 UNK         0.0600 
    182 H182       -2.4227   -9.9869  -44.2765 H         1 UNK         0.0600 
    183 H183       -0.9746   -9.1758  -44.8491 H         1 UNK         0.0600 
    184 H184       -0.4141  -12.1769  -47.0419 H         1 UNK         0.3000 
    185 H185        0.9717  -10.6302  -48.9091 H         1 UNK         0.0600 
    186 H186        3.4632  -10.8055  -49.1682 H         1 UNK         0.0600 
    187 H187        2.9905   -9.4039  -48.2218 H         1 UNK         0.0600 
    188 H188        3.6418  -10.8226  -47.4145 H         1 UNK         0.0600 
    189 H189        1.0329  -12.8485  -49.1049 H         1 UNK         0.3000 
    190 H190       -1.0428  -22.7300  -45.2005 H         1 UNK         0.3000 
    191 H191       -3.4823  -23.5679  -46.2699 H         1 UNK         0.0600 
    192 H192       -3.9873  -24.2959  -43.9492 H         1 UNK         0.0600 
    193 H193       -3.1621  -22.7457  -43.9405 H         1 UNK         0.0600 
    194 H194       -2.2823  -24.2182  -43.5282 H         1 UNK         0.0600 
    195 H195       -0.5738  -25.4838  -45.8137 H         1 UNK         0.3000 
    196 H196       -1.7237  -28.1038  -46.0215 H         1 UNK         0.0600 
    197 H197        0.6166  -28.7559  -46.5856 H         1 UNK         0.0600 
    198 H198        0.5888  -27.6804  -45.1963 H         1 UNK         0.0600 
    199 H199        1.0606  -27.0641  -46.7794 H         1 UNK         0.0600 
    200 H200       -1.1792  -25.5652  -48.3633 H         1 UNK         0.3000 
    201 H201       -1.9125  -27.3347  -50.6540 H         1 UNK         0.0600 
    202 H202        0.3069  -26.2552  -50.9273 H         1 UNK         0.0600 
    203 H203       -0.3889  -24.6741  -50.5912 H         1 UNK         0.0600 
    204 H204       -0.8454  -25.5511  -52.0483 H         1 UNK         0.0600 
    205 H205       -3.5187  -25.9095  -48.4347 H         1 UNK         0.3000 
    206 H206       -5.4920  -25.0722  -48.1263 H         1 UNK         0.0600 
    207 H207       -6.2620  -26.5607  -49.9389 H         1 UNK         0.0600 
    208 H208       -7.2175  -25.0911  -49.8893 H         1 UNK         0.0600 
    209 H209       -5.9970  -25.2962  -51.1337 H         1 UNK         0.0600 
    210 H210       -3.1540  -23.2479  -49.1113 H         1 UNK         0.3000 
    211 H211       -2.6632  -21.1015  -49.2366 H         1 UNK         0.0600 
    212 H212       -5.0797  -20.8769  -47.3719 H         1 UNK         0.0600 
    213 H213       -3.8687  -19.6166  -47.6031 H         1 UNK         0.0600 
    214 H214       -3.4030  -21.1600  -46.9201 H         1 UNK         0.0600 
    215 H215       -5.9639  -19.8984  -49.0086 H         1 UNK         0.3000 
    216 H216       -6.1095  -19.1693  -51.8280 H         1 UNK         0.0600 
    217 H217       -6.3316  -16.6845  -51.1306 H         1 UNK         0.0600 
    218 H218       -4.7256  -17.3489  -50.9384 H         1 UNK         0.0600 
    219 H219       -5.7682  -17.1435  -49.5352 H         1 UNK         0.0600 
    220 H220       -9.6710  -18.6447  -51.0388 H         1 UNK         0.3000 
    221 H221       -7.7789  -17.2272  -52.6717 H         1 UNK         0.0600 
    222 H222      -10.6775  -18.0895  -53.1435 H         1 UNK         0.0600 
    223 H223      -10.1567  -16.5578  -52.4408 H         1 UNK         0.0600 
    224 H224       -9.7819  -16.9288  -54.1152 H         1 UNK         0.0600 
    225 H225       -7.2057  -17.6759  -54.8096 H         1 UNK         0.3000 
    226 H226       -6.1624  -18.8255  -56.3815 H         1 UNK         0.0600 
    227 H227       -8.4223  -19.5122  -57.1357 H         1 UNK         0.0600 
    228 H228       -7.2661  -20.7973  -57.4252 H         1 UNK         0.0600 
    229 H229       -8.3979  -20.9158  -56.0789 H         1 UNK         0.0600 
    230 H230       -6.7229  -22.0548  -55.6598 H         1 UNK         0.3000 
    231 H231       -5.5685  -23.7392  -54.7578 H         1 UNK         0.0600 
    232 H232       -5.2007  -23.4011  -52.2281 H         1 UNK         0.0600 
    233 H233       -6.8191  -23.0990  -52.8293 H         1 UNK         0.0600 
    234 H234       -5.7668  -21.7515  -52.4544 H         1 UNK         0.0600 
    235 H235       -3.5077  -21.8738  -52.6287 H         1 UNK         0.3000 
    236 H236       -1.1568  -23.1263  -53.7459 H         1 UNK         0.0600 
    237 H237       -1.3673  -20.9715  -51.5875 H         1 UNK         0.0600 
    238 H238       -1.5060  -22.6974  -51.2880 H         1 UNK         0.0600 
    239 H239        0.0031  -22.0298  -51.8954 H         1 UNK         0.0600 
    240 H240       -2.8222  -20.1501  -54.3925 H         1 UNK         0.3000 
    241 H241       -0.5357  -19.0276  -55.9304 H         1 UNK         0.0600 
    242 H242       -2.7505  -21.4591  -56.5954 H         1 UNK         0.3800 
    243 H243       -2.9847  -21.0734  -58.2797 H         1 UNK         0.3800 
    244 H244       -2.0662  -17.0416  -56.2692 H         1 UNK         0.0800 
    245 H245       -3.2325  -17.7773  -55.2052 H         1 UNK         0.0800 
    246 H246       -3.1311  -16.6247  -52.5781 H         1 UNK         0.0800 
    247 H247       -2.8721  -18.3341  -52.8378 H         1 UNK         0.0800 
@<TRIPOS>BOND
     1    1    2 1    
     2    1  127 1    
     3    1  128 1    
     4    1  129 1    
     5    2    3 2    
     6    2    4 am   BACKBONE|DICT|INTERRES
     7    4    5 1    
     8    4  130 1    
     9    5    6 1    
    10    5   65 1    
    11    5  131 1    
    12    6    7 1    
    13    6  132 1    
    14    6  133 1    
    15    7    8 1    
    16    8    9 1    
    17    8  134 1    
    18    8  135 1    
    19    9   10 ar   
    20    9   14 ar   
    21   10   11 ar   
    22   10  136 1    
    23   11   12 ar   
    24   11  126 1    
    25   12   13 ar   
    26   12  137 1    
    27   13   14 ar   
    28   13   15 1    
    29   14  138 1    
    30   15   16 1    
    31   15  139 1    
    32   15  140 1    
    33   16   17 1    
    34   17   18 1    
    35   17  141 1    
    36   17  142 1    
    37   18   19 1    
    38   18   67 1    
    39   18  143 1    
    40   19   20 am   BACKBONE|DICT|INTERRES
    41   19  144 1    
    42   20   21 2    
    43   20   22 1    
    44   22   23 1    
    45   22   24 1    
    46   22  145 1    
    47   23  146 1    
    48   23  147 1    
    49   23  148 1    
    50   24   25 am   BACKBONE|DICT|INTERRES
    51   24  149 1    
    52   25   26 2    
    53   25   27 1    
    54   27   28 1    
    55   27   29 1    
    56   27  150 1    
    57   28  151 1    
    58   28  152 1    
    59   28  153 1    
    60   29   30 am   BACKBONE|DICT|INTERRES
    61   29  154 1    
    62   30   31 2    
    63   30   32 1    
    64   32   33 1    
    65   32   34 1    
    66   32  155 1    
    67   33  156 1    
    68   33  157 1    
    69   33  158 1    
    70   34   35 am   BACKBONE|DICT|INTERRES
    71   34  159 1    
    72   35   36 2    
    73   35   37 1    
    74   37   38 1    
    75   37   39 1    
    76   37  160 1    
    77   38  161 1    
    78   38  162 1    
    79   38  163 1    
    80   39   40 am   BACKBONE|DICT|INTERRES
    81   39  164 1    
    82   40   41 2    
    83   40   42 1    
    84   42   43 1    
    85   42   44 1    
    86   42  165 1    
    87   43  166 1    
    88   43  167 1    
    89   43  168 1    
    90   44   45 am   BACKBONE|DICT|INTERRES
    91   44  169 1    
    92   45   46 2    
    93   45   47 1    
    94   47   48 1    
    95   47   49 1    
    96   47  170 1    
    97   48  171 1    
    98   48  172 1    
    99   48  173 1    
   100   49   50 am   BACKBONE|DICT|INTERRES
   101   49  174 1    
   102   50   51 2    
   103   50   52 1    
   104   52   53 1    
   105   52   54 1    
   106   52  175 1    
   107   53  176 1    
   108   53  177 1    
   109   53  178 1    
   110   54   55 am   BACKBONE|DICT|INTERRES
   111   54  179 1    
   112   55   56 2    
   113   55   57 1    
   114   57   58 1    
   115   57   59 1    
   116   57  180 1    
   117   58  181 1    
   118   58  182 1    
   119   58  183 1    
   120   59   60 am   BACKBONE|DICT|INTERRES
   121   59  184 1    
   122   60   61 2    
   123   60   62 1    
   124   62   63 1    
   125   62   64 1    
   126   62  185 1    
   127   63  186 1    
   128   63  187 1    
   129   63  188 1    
   130   64   65 am   BACKBONE|DICT|INTERRES
   131   64  189 1    
   132   65   66 2    
   133   67   68 2    
   134   67   69 am   BACKBONE|DICT|INTERRES
   135   69   70 1    
   136   69  190 1    
   137   70   71 1    
   138   70   72 1    
   139   70  191 1    
   140   71  192 1    
   141   71  193 1    
   142   71  194 1    
   143   72   73 2    
   144   72   74 am   BACKBONE|DICT|INTERRES
   145   74   75 1    
   146   74  195 1    
   147   75   76 1    
   148   75   77 1    
   149   75  196 1    
   150   76  197 1    
   151   76  198 1    
   152   76  199 1    
   153   77   78 2    
   154   77   79 am   BACKBONE|DICT|INTERRES
   155   79   80 1    
   156   79  200 1    
   157   80   81 1    
   158   80   82 1    
   159   80  201 1    
   160   81  202 1    
   161   81  203 1    
   162   81  204 1    
   163   82   83 2    
   164   82   84 am   BACKBONE|DICT|INTERRES
   165   84   85 1    
   166   84  205 1    
   167   85   86 1    
   168   85   87 1    
   169   85  206 1    
   170   86  207 1    
   171   86  208 1    
   172   86  209 1    
   173   87   88 2    
   174   87   89 am   BACKBONE|DICT|INTERRES
   175   89   90 1    
   176   89  210 1    
   177   90   91 1    
   178   90   92 1    
   179   90  211 1    
   180   91  212 1    
   181   91  213 1    
   182   91  214 1    
   183   92   93 2    
   184   92   94 am   BACKBONE|DICT|INTERRES
   185   94   95 1    
   186   94  215 1    
   187   95   96 1    
   188   95   97 1    
   189   95  216 1    
   190   96  217 1    
   191   96  218 1    
   192   96  219 1    
   193   97   98 2    
   194   97   99 am   BACKBONE|DICT|INTERRES
   195   99  100 1    
   196   99  220 1    
   197  100  101 1    
   198  100  102 1    
   199  100  221 1    
   200  101  222 1    
   201  101  223 1    
   202  101  224 1    
   203  102  103 2    
   204  102  104 am   BACKBONE|DICT|INTERRES
   205  104  105 1    
   206  104  225 1    
   207  105  106 1    
   208  105  107 1    
   209  105  226 1    
   210  106  227 1    
   211  106  228 1    
   212  106  229 1    
   213  107  108 2    
   214  107  109 am   BACKBONE|DICT|INTERRES
   215  109  110 1    
   216  109  230 1    
   217  110  111 1    
   218  110  112 1    
   219  110  231 1    
   220  111  232 1    
   221  111  233 1    
   222  111  234 1    
   223  112  113 2    
   224  112  114 am   BACKBONE|DICT|INTERRES
   225  114  115 1    
   226  114  235 1    
   227  115  116 1    
   228  115  117 1    
   229  115  236 1    
   230  116  237 1    
   231  116  238 1    
   232  116  239 1    
   233  117  118 2    
   234  117  119 am   BACKBONE|DICT|INTERRES
   235  119  120 1    
   236  119  240 1    
   237  120  121 1    
   238  120  124 1    
   239  120  241 1    
   240  121  122 am   BACKBONE|DICT|INTERRES
   241  121  123 2    
   242  122  242 1    
   243  122  243 1    
   244  124  125 1    
   245  124  244 1    
   246  124  245 1    
   247  125  126 1    
   248  126  246 1    
   249  126  247 1    
@<TRIPOS>SUBSTRUCTURE
     1 UNK         1 GROUP             0       ****    0 ROOT    
