@<TRIPOS>MOLECULE
3R540
247   249    1
SMALL
USER_CHARGES


@<TRIPOS>ATOM
      1 CA         -2.3200  -12.9670  -52.7204 C.3       0 UNK        -0.1800 
      2 C          -1.5175  -13.5742  -51.5780 C.2       0 UNK         0.5000 
      3 O          -0.3429  -13.8963  -51.7579 O.2       0 UNK        -0.5000 
      4 N          -2.1495  -13.7393  -50.4103 N.am      1 UNK        -0.5000 
      5 CA         -1.5421  -14.2913  -49.1965 C.3       1 UNK         0.1400 
      6 C6         -2.6053  -14.6102  -48.1159 C.3       23 UNK        -0.0398 
      7 S7         -3.7949  -15.8953  -48.6285 S.3       23 UNK        -0.2404 
      8 C8         -3.2347  -17.3308  -47.6570 C.3       23 UNK        -0.0205 
      9 C9         -2.0499  -18.0223  -48.3120 C.ar      23 UNK        -0.0193 
     10 C10        -2.2678  -19.0981  -49.1747 C.ar      23 UNK        -0.1150 
     11 C11        -1.1945  -19.7477  -49.7890 C.ar      23 UNK        -0.0193 
     12 C12         0.1053  -19.2919  -49.5605 C.ar      23 UNK        -0.1150 
     13 C13         0.3384  -18.2262  -48.6883 C.ar      23 UNK        -0.0193 
     14 C14        -0.7413  -17.6034  -48.0554 C.ar      23 UNK        -0.1150 
     15 C15         1.7549  -17.7443  -48.4301 C.3       23 UNK        -0.0205 
     16 S16         2.4491  -18.4827  -46.9226 S.3       23 UNK        -0.2404 
     17 C17         2.9873  -20.1293  -47.5081 C.3       23 UNK        -0.0398 
     18 CA          2.4115  -21.3120  -46.6929 C.3       11 UNK         0.1400 
     19 N           2.6896  -21.1782  -45.2584 N.am      11 UNK        -0.5000 
     20 C           2.5940  -22.1683  -44.3622 C.2       10 UNK         0.5000 
     21 O           2.2174  -23.3059  -44.6451 O.2       10 UNK        -0.5000 
     22 CA          2.9628  -21.8206  -42.9102 C.3       10 UNK         0.1400 
     23 CB          4.1640  -20.8614  -42.8044 C.3       10 UNK        -0.1800 
     24 N           1.8191  -21.2289  -42.2250 N.am      10 UNK        -0.5000 
     25 C           0.8060  -21.9198  -41.6850 C.2       9 UNK         0.5000 
     26 O           0.7207  -23.1485  -41.7196 O.2       9 UNK        -0.5000 
     27 CA         -0.2826  -21.0883  -40.9748 C.3       9 UNK         0.1400 
     28 CB         -1.1765  -21.9251  -40.0367 C.3       9 UNK        -0.1800 
     29 N           0.2604  -19.9203  -40.2746 N.am      9 UNK        -0.5000 
     30 C           1.1447  -19.8970  -39.2645 C.2       8 UNK         0.5000 
     31 O           1.6019  -20.9074  -38.7291 O.2       8 UNK        -0.5000 
     32 CA          1.6193  -18.5114  -38.7736 C.3       8 UNK         0.1400 
     33 CB          3.0874  -18.2801  -39.1657 C.3       8 UNK        -0.1800 
     34 N           0.8139  -17.4023  -39.2902 N.am      8 UNK        -0.5000 
     35 C          -0.4210  -17.0922  -38.8721 C.2       7 UNK         0.5000 
     36 O          -0.9842  -17.6491  -37.9293 O.2       7 UNK        -0.5000 
     37 CA         -1.1696  -16.0109  -39.6746 C.3       7 UNK         0.1400 
     38 CB         -0.8588  -14.6125  -39.1205 C.3       7 UNK        -0.1800 
     39 N          -0.8663  -16.0522  -41.1088 N.am      7 UNK        -0.5000 
     40 C          -1.1764  -17.0700  -41.9262 C.2       6 UNK         0.5000 
     41 O          -1.7913  -18.0720  -41.5646 O.2       6 UNK        -0.5000 
     42 CA         -0.6643  -16.9882  -43.3738 C.3       6 UNK         0.1400 
     43 CB         -1.5618  -16.0785  -44.2229 C.3       6 UNK        -0.1800 
     44 N           0.7176  -16.5221  -43.4437 N.am      6 UNK        -0.5000 
     45 C           1.7787  -17.2035  -42.9915 C.2       5 UNK         0.5000 
     46 O           1.7148  -18.3507  -42.5470 O.2       5 UNK        -0.5000 
     47 CA          3.1286  -16.4637  -42.9909 C.3       5 UNK         0.1400 
     48 CB          3.8847  -16.6709  -44.3075 C.3       5 UNK        -0.1800 
     49 N           2.9722  -15.0300  -42.7520 N.am      5 UNK        -0.5000 
     50 C           2.6888  -14.4929  -41.5591 C.2       4 UNK         0.5000 
     51 O           2.5346  -15.1532  -40.5314 O.2       4 UNK        -0.5000 
     52 CA          2.5182  -12.9633  -41.5218 C.3       4 UNK         0.1400 
     53 CB          3.8853  -12.2643  -41.4764 C.3       4 UNK        -0.1800 
     54 N           1.7459  -12.4506  -42.6566 N.am      4 UNK        -0.5000 
     55 C           0.4428  -12.6980  -42.8441 C.2       3 UNK         0.5000 
     56 O          -0.2329  -13.3978  -42.0911 O.2       3 UNK        -0.5000 
     57 CA         -0.2156  -12.0888  -44.0954 C.3       3 UNK         0.1400 
     58 CB         -0.6041  -10.6249  -43.8396 C.3       3 UNK        -0.1800 
     59 N           0.5758  -12.1717  -45.3277 N.am      3 UNK        -0.5000 
     60 C           1.0918  -13.2923  -45.8482 C.2       2 UNK         0.5000 
     61 O           1.1079  -14.3794  -45.2698 O.2       2 UNK        -0.5000 
     62 CA          1.6082  -13.2087  -47.2928 C.3       2 UNK         0.1400 
     63 CB          2.9827  -13.8820  -47.4400 C.3       2 UNK        -0.1800 
     64 N           0.6394  -13.8884  -48.1503 N.am      2 UNK        -0.5000 
     65 C          -0.4899  -13.3304  -48.6045 C.2       1 UNK         0.5000 
     66 O          -0.7454  -12.1272  -48.5094 O.2       1 UNK        -0.5000 
     67 C           0.9204  -21.5616  -47.0008 C.2       11 UNK         0.5000 
     68 O           0.6112  -22.2080  -48.0017 O.2       11 UNK        -0.5000 
     69 N           0.0278  -21.0987  -46.1125 N.am      12 UNK        -0.5000 
     70 CA         -1.4273  -21.2420  -46.2147 C.3       12 UNK         0.1400 
     71 CB         -2.0932  -20.4110  -45.1082 C.3       12 UNK        -0.1800 
     72 C          -1.9387  -22.6971  -46.2073 C.2       12 UNK         0.5000 
     73 O          -3.0778  -22.9357  -46.6088 O.2       12 UNK        -0.5000 
     74 N          -1.0914  -23.6458  -45.7848 N.am      13 UNK        -0.5000 
     75 CA         -1.3434  -25.0834  -45.8639 C.3       13 UNK         0.1400 
     76 CB         -0.2844  -25.8176  -45.0282 C.3       13 UNK        -0.1800 
     77 C          -1.3608  -25.6255  -47.3092 C.2       13 UNK         0.5000 
     78 O          -1.9865  -26.6583  -47.5527 O.2       13 UNK        -0.5000 
     79 N          -0.7015  -24.9323  -48.2510 N.am      14 UNK        -0.5000 
     80 CA         -0.6013  -25.3082  -49.6642 C.3       14 UNK         0.1400 
     81 CB          0.6891  -24.7093  -50.2524 C.3       14 UNK        -0.1800 
     82 C          -1.8577  -24.9107  -50.4687 C.2       14 UNK         0.5000 
     83 O          -1.7493  -24.2578  -51.5073 O.2       14 UNK        -0.5000 
     84 N          -3.0371  -25.3216  -49.9830 N.am      15 UNK        -0.5000 
     85 CA         -4.3555  -25.0273  -50.5570 C.3       15 UNK         0.1400 
     86 CB         -5.4386  -25.6505  -49.6650 C.3       15 UNK        -0.1800 
     87 C          -4.5226  -25.4958  -52.0172 C.2       15 UNK         0.5000 
     88 O          -5.2019  -24.8352  -52.8039 O.2       15 UNK        -0.5000 
     89 N          -3.8569  -26.6075  -52.3593 N.am      16 UNK        -0.5000 
     90 CA         -3.8436  -27.2322  -53.6834 C.3       16 UNK         0.1400 
     91 CB         -3.1345  -28.5913  -53.5737 C.3       16 UNK        -0.1800 
     92 C          -3.2022  -26.3784  -54.7981 C.2       16 UNK         0.5000 
     93 O          -3.3981  -26.6928  -55.9728 O.2       16 UNK        -0.5000 
     94 N          -2.4571  -25.3232  -54.4341 N.am      17 UNK        -0.5000 
     95 CA         -1.8317  -24.3883  -55.3730 C.3       17 UNK         0.1400 
     96 CB         -0.8228  -23.5154  -54.6120 C.3       17 UNK        -0.1800 
     97 C          -2.8393  -23.5008  -56.1330 C.2       17 UNK         0.5000 
     98 O          -2.4967  -22.9955  -57.2031 O.2       17 UNK        -0.5000 
     99 N          -4.0485  -23.3288  -55.5736 N.am      18 UNK        -0.5000 
    100 CA        -5.1593  -22.4898  -56.0387 C.3       18 UNK         0.1400 
    101 CB        -5.6940  -22.9490  -57.4097 C.3       18 UNK        -0.1800 
    102 C         -4.8213  -20.9871  -56.0109 C.2       18 UNK         0.5000 
    103 O         -5.3415  -20.2705  -55.1549 O.2       18 UNK        -0.5000 
    104 N         -3.9500  -20.5415  -56.9266 N.am      19 UNK        -0.5000 
    105 CA        -3.2616  -19.2413  -56.9981 C.3       19 UNK         0.1400 
    106 CB        -2.2334  -19.1583  -55.8525 C.3       19 UNK        -0.1800 
    107 C         -4.1453  -17.9711  -57.0226 C.2       19 UNK         0.5000 
    108 O         -3.6001  -16.8671  -56.9888 O.2       19 UNK        -0.5000 
    109 N         -5.4755  -18.1376  -57.0442 N.am      20 UNK        -0.5000 
    110 CA        -6.5032  -17.1252  -56.7743 C.3       20 UNK         0.1400 
    111 CB        -6.5333  -16.0507  -57.8817 C.3       20 UNK        -0.1800 
    112 C         -6.3925  -16.5307  -55.3488 C.2       20 UNK         0.5000 
    113 O         -6.7296  -15.3632  -55.1423 O.2       20 UNK        -0.5000 
    114 N         -5.9216  -17.3430  -54.3909 N.am      21 UNK        -0.5000 
    115 CA        -5.7026  -16.9556  -52.9949 C.3       21 UNK         0.1400 
    116 CB        -4.4025  -16.1398  -52.8580 C.3       21 UNK        -0.1800 
    117 C         -5.6734  -18.1814  -52.0704 C.2       21 UNK         0.5000 
    118 O         -6.2686  -18.1447  -50.9932 O.2       21 UNK        -0.5000 
    119 N         -4.9932  -19.2457  -52.5107 N.am      22 UNK        -0.5000 
    120 CA        -4.8882  -20.5318  -51.8063 C.3       22 UNK         0.1400 
    121 C         -6.1923  -21.3753  -51.8524 C.2       22 UNK         0.5000 
    122 N         -6.9962  -21.2690  -52.9032 N.am      22 UNK        -0.7600 
    123 O         -6.4808  -22.1195  -50.9202 O.2       22 UNK        -0.5000 
    124 C124       -3.6884  -21.3693  -52.3160 C.3       23 UNK        -0.0398 
    125 S125       -2.1005  -20.4718  -52.2904 S.3       23 UNK        -0.2404 
    126 C126       -1.4359  -20.9597  -50.6710 C.3       23 UNK        -0.0205 
    127 H127       -3.3570  -12.7860  -52.4365 H         1 UNK         0.0600 
    128 H128       -1.8792  -12.0180  -53.0260 H         1 UNK         0.0600 
    129 H129       -2.3164  -13.6384  -53.5793 H         1 UNK         0.0600 
    130 H130       -3.1106  -13.4442  -50.3194 H         1 UNK         0.3000 
    131 H131       -1.0414  -15.2196  -49.4775 H         1 UNK         0.0600 
    132 H132       -3.1733  -13.7114  -47.8683 H         1 UNK         0.0800 
    133 H133       -2.1304  -14.9190  -47.1840 H         1 UNK         0.0800 
    134 H134       -4.0662  -18.0318  -47.5692 H         1 UNK         0.0800 
    135 H135       -2.9915  -17.0327  -46.6377 H         1 UNK         0.0800 
    136 H136       -3.2756  -19.4373  -49.3550 H         1 UNK         0.1150 
    137 H137        0.9364  -19.7853  -50.0435 H         1 UNK         0.1150 
    138 H138       -0.5594  -16.7877  -47.3719 H         1 UNK         0.1150 
    139 H139        2.4009  -17.9563  -49.2834 H         1 UNK         0.0800 
    140 H140        1.7543  -16.6611  -48.3179 H         1 UNK         0.0800 
    141 H141        4.0760  -20.1520  -47.4453 H         1 UNK         0.0800 
    142 H142        2.7611  -20.2505  -48.5681 H         1 UNK         0.0800 
    143 H143        2.9356  -22.2087  -47.0312 H         1 UNK         0.0600 
    144 H144        2.9818  -20.2624  -44.9496 H         1 UNK         0.3000 
    145 H145        3.2393  -22.7514  -42.4101 H         1 UNK         0.0600 
    146 H146        4.4717  -20.7409  -41.7655 H         1 UNK         0.0600 
    147 H147        5.0237  -21.2474  -43.3535 H         1 UNK         0.0600 
    148 H148        3.9390  -19.8686  -43.1938 H         1 UNK         0.0600 
    149 H149        1.7884  -20.2125  -42.1877 H         1 UNK         0.3000 
    150 H150       -0.9207  -20.6944  -41.7662 H         1 UNK         0.0600 
    151 H151       -1.6937  -22.7111  -40.5882 H         1 UNK         0.0600 
    152 H152       -1.9394  -21.3054  -39.5654 H         1 UNK         0.0600 
    153 H153       -0.5987  -22.4059  -39.2470 H         1 UNK         0.0600 
    154 H154       -0.0528  -19.0294  -40.6380 H         1 UNK         0.3000 
    155 H155        1.5530  -18.5087  -37.6837 H         1 UNK         0.0600 
    156 H156        3.2234  -18.3072  -40.2467 H         1 UNK         0.0600 
    157 H157        3.7327  -19.0474  -38.7365 H         1 UNK         0.0600 
    158 H158        3.4462  -17.3155  -38.8061 H         1 UNK         0.0600 
    159 H159        1.2287  -16.8456  -40.0280 H         1 UNK         0.3000 
    160 H160       -2.2395  -16.1934  -39.5548 H         1 UNK         0.0600 
    161 H161       -1.4590  -13.8502  -39.6175 H         1 UNK         0.0600 
    162 H162        0.1913  -14.3508  -39.2537 H         1 UNK         0.0600 
    163 H163       -1.0800  -14.5554  -38.0541 H         1 UNK         0.0600 
    164 H164       -0.4108  -15.2306  -41.4967 H         1 UNK         0.3000 
    165 H165       -0.6943  -17.9929  -43.7973 H         1 UNK         0.0600 
    166 H166       -1.2066  -16.0324  -45.2506 H         1 UNK         0.0600 
    167 H167       -2.5870  -16.4499  -44.2421 H         1 UNK         0.0600 
    168 H168       -1.5881  -15.0605  -43.8350 H         1 UNK         0.0600 
    169 H169        0.8716  -15.6159  -43.8782 H         1 UNK         0.3000 
    170 H170        3.7358  -16.8848  -42.1871 H         1 UNK         0.0600 
    171 H171        4.8635  -16.1921  -44.2800 H         1 UNK         0.0600 
    172 H172        4.0492  -17.7309  -44.5008 H         1 UNK         0.0600 
    173 H173        3.3339  -16.2574  -45.1523 H         1 UNK         0.0600 
    174 H174        3.0146  -14.4262  -43.5601 H         1 UNK         0.3000 
    175 H175        1.9797  -12.7137  -40.6049 H         1 UNK         0.0600 
    176 H176        3.7727  -11.1859  -41.3630 H         1 UNK         0.0600 
    177 H177        4.4765  -12.6188  -40.6309 H         1 UNK         0.0600 
    178 H178        4.4643  -12.4482  -42.3822 H         1 UNK         0.0600 
    179 H179        2.2332  -11.8754  -43.3279 H         1 UNK         0.3000 
    180 H180       -1.1350  -12.6494  -44.2750 H         1 UNK         0.0600 
    181 H181        0.2745   -9.9915  -43.7110 H         1 UNK         0.0600 
    182 H182       -1.2108  -10.5325  -42.9376 H         1 UNK         0.0600 
    183 H183       -1.1908  -10.2220  -44.6654 H         1 UNK         0.0600 
    184 H184        0.5947  -11.3342  -45.8920 H         1 UNK         0.3000 
    185 H185        1.7053  -12.1625  -47.5910 H         1 UNK         0.0600 
    186 H186        2.9570  -14.9344  -47.1570 H         1 UNK         0.0600 
    187 H187        3.3412  -13.8222  -48.4677 H         1 UNK         0.0600 
    188 H188        3.7243  -13.3925  -46.8077 H         1 UNK         0.0600 
    189 H189        0.7657  -14.8839  -48.2466 H         1 UNK         0.3000 
    190 H190        0.3788  -20.5837  -45.3194 H         1 UNK         0.3000 
    191 H191       -1.7276  -20.8242  -47.1741 H         1 UNK         0.0600 
    192 H192       -1.8868  -19.3501  -45.2453 H         1 UNK         0.0600 
    193 H193       -1.7458  -20.7037  -44.1173 H         1 UNK         0.0600 
    194 H194       -3.1776  -20.5279  -45.1255 H         1 UNK         0.0600 
    195 H195       -0.1714  -23.3666  -45.4714 H         1 UNK         0.3000 
    196 H196       -2.3236  -25.2818  -45.4254 H         1 UNK         0.0600 
    197 H197       -0.4648  -26.8933  -45.0247 H         1 UNK         0.0600 
    198 H198       -0.2970  -25.4819  -43.9908 H         1 UNK         0.0600 
    199 H199        0.7203  -25.6533  -45.4199 H         1 UNK         0.0600 
    200 H200       -0.2571  -24.0560  -47.9960 H         1 UNK         0.3000 
    201 H201       -0.5133  -26.3944  -49.7316 H         1 UNK         0.0600 
    202 H202        1.5643  -25.0138  -49.6784 H         1 UNK         0.0600 
    203 H203        0.6592  -23.6197  -50.2644 H         1 UNK         0.0600 
    204 H204        0.8423  -25.0427  -51.2795 H         1 UNK         0.0600 
    205 H205       -3.0217  -25.8621  -49.1248 H         1 UNK         0.3000 
    206 H206       -4.4884  -23.9463  -50.5344 H         1 UNK         0.0600 
    207 H207       -5.3837  -25.2602  -48.6484 H         1 UNK         0.0600 
    208 H208       -6.4352  -25.4220  -50.0457 H         1 UNK         0.0600 
    209 H209       -5.3447  -26.7360  -49.6146 H         1 UNK         0.0600 
    210 H210       -3.3115  -27.0654  -51.6440 H         1 UNK         0.3000 
    211 H211       -4.8807  -27.4099  -53.9746 H         1 UNK         0.0600 
    212 H212       -2.0951  -28.4776  -53.2630 H         1 UNK         0.0600 
    213 H213       -3.1353  -29.1133  -54.5315 H         1 UNK         0.0600 
    214 H214       -3.6326  -29.2403  -52.8531 H         1 UNK         0.0600 
    215 H215       -2.3342  -25.1224  -53.4482 H         1 UNK         0.3000 
    216 H216       -1.2836  -24.9707  -56.1164 H         1 UNK         0.0600 
    217 H217       -0.3035  -22.8346  -55.2877 H         1 UNK         0.0600 
    218 H218       -0.0663  -24.1238  -54.1163 H         1 UNK         0.0600 
    219 H219       -1.3138  -22.9092  -53.8509 H         1 UNK         0.0600 
    220 H220       -4.2187  -23.8073  -54.6976 H         1 UNK         0.3000 
    221 H221       -5.9623  -22.6413  -55.3158 H         1 UNK         0.0600 
    222 H222       -4.9510  -22.8590  -58.2019 H         1 UNK         0.0600 
    223 H223       -6.0134  -23.9906  -57.3733 H         1 UNK         0.0600 
    224 H224       -6.5594  -22.3553  -57.7067 H         1 UNK         0.0600 
    225 H225       -3.5634  -21.2530  -57.5377 H         1 UNK         0.3000 
    226 H226       -2.7124  -19.2450  -57.9404 H         1 UNK         0.0600 
    227 H227       -1.5983  -20.0441  -55.8229 H         1 UNK         0.0600 
    228 H228       -1.5774  -18.2950  -55.9697 H         1 UNK         0.0600 
    229 H229       -2.7232  -19.0653  -54.8832 H         1 UNK         0.0600 
    230 H230       -5.8024  -19.0939  -57.0398 H         1 UNK         0.3000 
    231 H231       -7.4585  -17.6509  -56.8042 H         1 UNK         0.0600 
    232 H232       -6.6013  -16.5050  -58.8701 H         1 UNK         0.0600 
    233 H233       -5.6444  -15.4200  -57.8620 H         1 UNK         0.0600 
    234 H234       -7.3982  -15.3964  -57.7666 H         1 UNK         0.0600 
    235 H235       -5.7223  -18.3071  -54.6341 H         1 UNK         0.3000 
    236 H236       -6.5390  -16.3322  -52.6713 H         1 UNK         0.0600 
    237 H237       -4.2100  -15.8803  -51.8161 H         1 UNK         0.0600 
    238 H238       -3.5386  -16.6970  -53.2226 H         1 UNK         0.0600 
    239 H239       -4.4584  -15.2067  -53.4184 H         1 UNK         0.0600 
    240 H240       -4.5507  -19.2182  -53.4175 H         1 UNK         0.3000 
    241 H241       -4.7115  -20.3145  -50.7536 H         1 UNK         0.0600 
    242 H242       -7.8491  -21.8037  -52.9362 H         1 UNK         0.3800 
    243 H243       -6.7185  -20.6977  -53.6906 H         1 UNK         0.3800 
    244 H244       -3.5858  -22.2900  -51.7452 H         1 UNK         0.0800 
    245 H245       -3.8605  -21.6865  -53.3424 H         1 UNK         0.0800 
    246 H246       -0.5093  -21.5140  -50.8260 H         1 UNK         0.0800 
    247 H247       -2.1088  -21.6447  -50.1543 H         1 UNK         0.0800 
@<TRIPOS>BOND
     1    1    2 1    
     2    1  127 1    
     3    1  128 1    
     4    1  129 1    
     5    2    3 2    
     6    2    4 am   BACKBONE|DICT|INTERRES
     7    4    5 1    
     8    4  130 1    
     9    5    6 1    
    10    5   65 1    
    11    5  131 1    
    12    6    7 1    
    13    6  132 1    
    14    6  133 1    
    15    7    8 1    
    16    8    9 1    
    17    8  134 1    
    18    8  135 1    
    19    9   10 ar   
    20    9   14 ar   
    21   10   11 ar   
    22   10  136 1    
    23   11   12 ar   
    24   11  126 1    
    25   12   13 ar   
    26   12  137 1    
    27   13   14 ar   
    28   13   15 1    
    29   14  138 1    
    30   15   16 1    
    31   15  139 1    
    32   15  140 1    
    33   16   17 1    
    34   17   18 1    
    35   17  141 1    
    36   17  142 1    
    37   18   19 1    
    38   18   67 1    
    39   18  143 1    
    40   19   20 am   BACKBONE|DICT|INTERRES
    41   19  144 1    
    42   20   21 2    
    43   20   22 1    
    44   22   23 1    
    45   22   24 1    
    46   22  145 1    
    47   23  146 1    
    48   23  147 1    
    49   23  148 1    
    50   24   25 am   BACKBONE|DICT|INTERRES
    51   24  149 1    
    52   25   26 2    
    53   25   27 1    
    54   27   28 1    
    55   27   29 1    
    56   27  150 1    
    57   28  151 1    
    58   28  152 1    
    59   28  153 1    
    60   29   30 am   BACKBONE|DICT|INTERRES
    61   29  154 1    
    62   30   31 2    
    63   30   32 1    
    64   32   33 1    
    65   32   34 1    
    66   32  155 1    
    67   33  156 1    
    68   33  157 1    
    69   33  158 1    
    70   34   35 am   BACKBONE|DICT|INTERRES
    71   34  159 1    
    72   35   36 2    
    73   35   37 1    
    74   37   38 1    
    75   37   39 1    
    76   37  160 1    
    77   38  161 1    
    78   38  162 1    
    79   38  163 1    
    80   39   40 am   BACKBONE|DICT|INTERRES
    81   39  164 1    
    82   40   41 2    
    83   40   42 1    
    84   42   43 1    
    85   42   44 1    
    86   42  165 1    
    87   43  166 1    
    88   43  167 1    
    89   43  168 1    
    90   44   45 am   BACKBONE|DICT|INTERRES
    91   44  169 1    
    92   45   46 2    
    93   45   47 1    
    94   47   48 1    
    95   47   49 1    
    96   47  170 1    
    97   48  171 1    
    98   48  172 1    
    99   48  173 1    
   100   49   50 am   BACKBONE|DICT|INTERRES
   101   49  174 1    
   102   50   51 2    
   103   50   52 1    
   104   52   53 1    
   105   52   54 1    
   106   52  175 1    
   107   53  176 1    
   108   53  177 1    
   109   53  178 1    
   110   54   55 am   BACKBONE|DICT|INTERRES
   111   54  179 1    
   112   55   56 2    
   113   55   57 1    
   114   57   58 1    
   115   57   59 1    
   116   57  180 1    
   117   58  181 1    
   118   58  182 1    
   119   58  183 1    
   120   59   60 am   BACKBONE|DICT|INTERRES
   121   59  184 1    
   122   60   61 2    
   123   60   62 1    
   124   62   63 1    
   125   62   64 1    
   126   62  185 1    
   127   63  186 1    
   128   63  187 1    
   129   63  188 1    
   130   64   65 am   BACKBONE|DICT|INTERRES
   131   64  189 1    
   132   65   66 2    
   133   67   68 2    
   134   67   69 am   BACKBONE|DICT|INTERRES
   135   69   70 1    
   136   69  190 1    
   137   70   71 1    
   138   70   72 1    
   139   70  191 1    
   140   71  192 1    
   141   71  193 1    
   142   71  194 1    
   143   72   73 2    
   144   72   74 am   BACKBONE|DICT|INTERRES
   145   74   75 1    
   146   74  195 1    
   147   75   76 1    
   148   75   77 1    
   149   75  196 1    
   150   76  197 1    
   151   76  198 1    
   152   76  199 1    
   153   77   78 2    
   154   77   79 am   BACKBONE|DICT|INTERRES
   155   79   80 1    
   156   79  200 1    
   157   80   81 1    
   158   80   82 1    
   159   80  201 1    
   160   81  202 1    
   161   81  203 1    
   162   81  204 1    
   163   82   83 2    
   164   82   84 am   BACKBONE|DICT|INTERRES
   165   84   85 1    
   166   84  205 1    
   167   85   86 1    
   168   85   87 1    
   169   85  206 1    
   170   86  207 1    
   171   86  208 1    
   172   86  209 1    
   173   87   88 2    
   174   87   89 am   BACKBONE|DICT|INTERRES
   175   89   90 1    
   176   89  210 1    
   177   90   91 1    
   178   90   92 1    
   179   90  211 1    
   180   91  212 1    
   181   91  213 1    
   182   91  214 1    
   183   92   93 2    
   184   92   94 am   BACKBONE|DICT|INTERRES
   185   94   95 1    
   186   94  215 1    
   187   95   96 1    
   188   95   97 1    
   189   95  216 1    
   190   96  217 1    
   191   96  218 1    
   192   96  219 1    
   193   97   98 2    
   194   97   99 am   BACKBONE|DICT|INTERRES
   195   99  100 1    
   196   99  220 1    
   197  100  101 1    
   198  100  102 1    
   199  100  221 1    
   200  101  222 1    
   201  101  223 1    
   202  101  224 1    
   203  102  103 2    
   204  102  104 am   BACKBONE|DICT|INTERRES
   205  104  105 1    
   206  104  225 1    
   207  105  106 1    
   208  105  107 1    
   209  105  226 1    
   210  106  227 1    
   211  106  228 1    
   212  106  229 1    
   213  107  108 2    
   214  107  109 am   BACKBONE|DICT|INTERRES
   215  109  110 1    
   216  109  230 1    
   217  110  111 1    
   218  110  112 1    
   219  110  231 1    
   220  111  232 1    
   221  111  233 1    
   222  111  234 1    
   223  112  113 2    
   224  112  114 am   BACKBONE|DICT|INTERRES
   225  114  115 1    
   226  114  235 1    
   227  115  116 1    
   228  115  117 1    
   229  115  236 1    
   230  116  237 1    
   231  116  238 1    
   232  116  239 1    
   233  117  118 2    
   234  117  119 am   BACKBONE|DICT|INTERRES
   235  119  120 1    
   236  119  240 1    
   237  120  121 1    
   238  120  124 1    
   239  120  241 1    
   240  121  122 am   BACKBONE|DICT|INTERRES
   241  121  123 2    
   242  122  242 1    
   243  122  243 1    
   244  124  125 1    
   245  124  244 1    
   246  124  245 1    
   247  125  126 1    
   248  126  246 1    
   249  126  247 1    
@<TRIPOS>SUBSTRUCTURE
     1 UNK         1 GROUP             0       ****    0 ROOT    
