@<TRIPOS>MOLECULE
3R540
247   249    1
SMALL
USER_CHARGES


@<TRIPOS>ATOM
      1 CA         -1.8729  -15.2749  -42.2207 C.3       0 UNK        -0.1800 
      2 C          -2.2520  -14.2463  -43.2787 C.2       0 UNK         0.5000 
      3 O          -2.8248  -13.2070  -42.9483 O.2       0 UNK        -0.5000 
      4 N          -1.9409  -14.5330  -44.5491 N.am      1 UNK        -0.5000 
      5 CA         -2.2637  -13.7119  -45.7217 C.3       1 UNK         0.1400 
      6 C6         -2.2874  -14.5547  -47.0235 C.3       23 UNK        -0.0398 
      7 S7         -3.5221  -15.9001  -46.9530 S.3       23 UNK        -0.2404 
      8 C8         -3.5261  -16.4973  -48.6716 C.3       23 UNK        -0.0205 
      9 C9         -2.3853  -17.4648  -48.9609 C.ar      23 UNK        -0.0193 
     10 C10        -1.1338  -16.9798  -49.3446 C.ar      23 UNK        -0.1150 
     11 C11        -0.0977  -17.8618  -49.6598 C.ar      23 UNK        -0.0193 
     12 C12        -0.3218  -19.2389  -49.6000 C.ar      23 UNK        -0.1150 
     13 C13        -1.5716  -19.7472  -49.2223 C.ar      23 UNK        -0.0193 
     14 C14        -2.5920  -18.8470  -48.8924 C.ar      23 UNK        -0.1150 
     15 C15        -1.8830  -21.2471  -49.1979 C.3       23 UNK        -0.0205 
     16 S16        -0.4520  -22.3768  -49.3312 S.3       23 UNK        -0.2404 
     17 C17         0.3134  -22.1270  -47.6964 C.3       23 UNK        -0.0398 
     18 CA          0.1608  -23.3087  -46.7120 C.3       11 UNK         0.1400 
     19 N           0.9215  -23.0453  -45.4884 N.am      11 UNK        -0.5000 
     20 C           1.0888  -23.8854  -44.4579 C.2       10 UNK         0.5000 
     21 O           0.6099  -25.0185  -44.4069 O.2       10 UNK        -0.5000 
     22 CA          1.9091  -23.3457  -43.2735 C.3       10 UNK         0.1400 
     23 CB          3.4150  -23.3978  -43.5765 C.3       10 UNK        -0.1800 
     24 N           1.5236  -21.9723  -42.9482 N.am      10 UNK        -0.5000 
     25 C           0.4321  -21.6477  -42.2405 C.2       9 UNK         0.5000 
     26 O          -0.3107  -22.4753  -41.7111 O.2       9 UNK        -0.5000 
     27 CA          0.0987  -20.1477  -42.1181 C.3       9 UNK         0.1400 
     28 CB          0.7936  -19.5410  -40.8894 C.3       9 UNK        -0.1800 
     29 N           0.4485  -19.3682  -43.3095 N.am      9 UNK        -0.5000 
     30 C          -0.0999  -19.5489  -44.5199 C.2       8 UNK         0.5000 
     31 O          -0.9581  -20.3946  -44.7600 O.2       8 UNK        -0.5000 
     32 CA          0.4237  -18.6724  -45.6695 C.3       8 UNK         0.1400 
     33 CB         -0.2804  -17.3154  -45.6705 C.3       8 UNK        -0.1800 
     34 N           1.8696  -18.4711  -45.6431 N.am      8 UNK        -0.5000 
     35 C           2.7938  -19.4397  -45.6994 C.2       7 UNK         0.5000 
     36 O           2.5309  -20.6431  -45.7120 O.2       7 UNK        -0.5000 
     37 CA          4.2570  -18.9754  -45.7224 C.3       7 UNK         0.1400 
     38 CB          4.6409  -18.4680  -47.1220 C.3       7 UNK        -0.1800 
     39 N           4.4754  -17.9143  -44.7410 N.am      7 UNK        -0.5000 
     40 C           4.7518  -18.1307  -43.4482 C.2       6 UNK         0.5000 
     41 O           4.9374  -19.2486  -42.9655 O.2       6 UNK        -0.5000 
     42 CA          4.8174  -16.8918  -42.5328 C.3       6 UNK         0.1400 
     43 CB          6.2414  -16.3157  -42.5076 C.3       6 UNK        -0.1800 
     44 N           3.8781  -15.8312  -42.9060 N.am      6 UNK        -0.5000 
     45 C           2.5440  -15.9500  -42.8700 C.2       5 UNK         0.5000 
     46 O           1.9540  -16.9778  -42.5378 O.2       5 UNK        -0.5000 
     47 CA          1.7238  -14.7266  -43.3190 C.3       5 UNK         0.1400 
     48 CB          1.5498  -13.7478  -42.1489 C.3       5 UNK        -0.1800 
     49 N           2.2265  -14.0125  -44.5006 N.am      5 UNK        -0.5000 
     50 C           2.6134  -14.5659  -45.6631 C.2       4 UNK         0.5000 
     51 O           2.6888  -15.7826  -45.8422 O.2       4 UNK        -0.5000 
     52 CA          2.9706  -13.6292  -46.8340 C.3       4 UNK         0.1400 
     53 CB          2.2843  -14.0873  -48.1317 C.3       4 UNK        -0.1800 
     54 N           2.6097  -12.2356  -46.5767 N.am      4 UNK        -0.5000 
     55 C           3.4458  -11.3051  -46.0962 C.2       3 UNK         0.5000 
     56 O           4.6229  -11.5296  -45.8128 O.2       3 UNK        -0.5000 
     57 CA          2.8807   -9.8851  -45.8842 C.3       3 UNK         0.1400 
     58 CB          3.3180   -8.9582  -47.0289 C.3       3 UNK        -0.1800 
     59 N           1.4215   -9.8327  -45.7666 N.am      3 UNK        -0.5000 
     60 C           0.7103  -10.3730  -44.7686 C.2       2 UNK         0.5000 
     61 O           1.2225  -10.9825  -43.8300 O.2       2 UNK        -0.5000 
     62 CA         -0.8251  -10.2330  -44.8283 C.3       2 UNK         0.1400 
     63 CB         -1.3320   -9.3059  -45.9561 C.3       2 UNK        -0.1800 
     64 N          -1.4973  -11.5329  -44.9093 N.am      2 UNK        -0.5000 
     65 C          -1.3213  -12.4912  -45.8295 C.2       1 UNK         0.5000 
     66 O          -0.4705  -12.4384  -46.7203 O.2       1 UNK        -0.5000 
     67 C          -1.3202  -23.6478  -46.4318 C.2       11 UNK         0.5000 
     68 O          -1.8531  -24.5604  -47.0622 O.2       11 UNK        -0.5000 
     69 N          -1.9388  -22.9487  -45.4678 N.am      12 UNK        -0.5000 
     70 CA         -3.3404  -23.0795  -45.0499 C.3       12 UNK         0.1400 
     71 CB         -3.6046  -22.1117  -43.8853 C.3       12 UNK        -0.1800 
     72 C          -3.7910  -24.5039  -44.6641 C.2       12 UNK         0.5000 
     73 O          -4.9859  -24.7969  -44.7246 O.2       12 UNK        -0.5000 
     74 N          -2.8398  -25.3651  -44.2801 N.am      13 UNK        -0.5000 
     75 CA         -3.0718  -26.7768  -43.9823 C.3       13 UNK         0.1400 
     76 CB         -1.8939  -27.2997  -43.1449 C.3       13 UNK        -0.1800 
     77 C          -3.2643  -27.6496  -45.2412 C.2       13 UNK         0.5000 
     78 O          -3.7782  -28.7622  -45.1123 O.2       13 UNK        -0.5000 
     79 N          -2.8346  -27.1635  -46.4154 N.am      14 UNK        -0.5000 
     80 CA         -2.8022  -27.9195  -47.6688 C.3       14 UNK         0.1400 
     81 CB         -1.3344  -28.1322  -48.0748 C.3       14 UNK        -0.1800 
     82 C          -3.5722  -27.2378  -48.8132 C.2       14 UNK         0.5000 
     83 O          -4.1425  -27.9453  -49.6454 O.2       14 UNK        -0.5000 
     84 N          -3.5692  -25.9006  -48.8660 N.am      15 UNK        -0.5000 
     85 CA         -4.1375  -25.1101  -49.9573 C.3       15 UNK         0.1400 
     86 CB         -3.0946  -24.9793  -51.0878 C.3       15 UNK        -0.1800 
     87 C          -4.6202  -23.7402  -49.4508 C.2       15 UNK         0.5000 
     88 O          -4.6314  -23.4859  -48.2462 O.2       15 UNK        -0.5000 
     89 N          -5.0181  -22.8793  -50.3905 N.am      16 UNK        -0.5000 
     90 CA         -5.4664  -21.5085  -50.1823 C.3       16 UNK         0.1400 
     91 CB         -6.9703  -21.5002  -49.8582 C.3       16 UNK        -0.1800 
     92 C          -5.1829  -20.7275  -51.4723 C.2       16 UNK         0.5000 
     93 O          -4.9898  -21.3419  -52.5248 O.2       16 UNK        -0.5000 
     94 N          -5.2136  -19.3910  -51.4045 N.am      17 UNK        -0.5000 
     95 CA         -5.0871  -18.5150  -52.5780 C.3       17 UNK         0.1400 
     96 CB         -5.0125  -17.0518  -52.1239 C.3       17 UNK        -0.1800 
     97 C          -6.2266  -18.7235  -53.5973 C.2       17 UNK         0.5000 
     98 O          -5.9872  -18.6859  -54.8039 O.2       17 UNK        -0.5000 
     99 N          -7.4272  -19.0340  -53.0870 N.am      18 UNK        -0.5000 
    100 CA        -8.6051  -19.4325  -53.8618 C.3       18 UNK         0.1400 
    101 CB        -9.8259  -19.4420  -52.9298 C.3       18 UNK        -0.1800 
    102 C         -8.4557  -20.7994  -54.5634 C.2       18 UNK         0.5000 
    103 O         -9.1673  -21.0567  -55.5341 O.2       18 UNK        -0.5000 
    104 N         -7.5266  -21.6376  -54.0822 N.am      19 UNK        -0.5000 
    105 CA        -7.1476  -22.9212  -54.6762 C.3       19 UNK         0.1400 
    106 CB        -6.9111  -23.9443  -53.5508 C.3       19 UNK        -0.1800 
    107 C         -5.9126  -22.7874  -55.5939 C.2       19 UNK         0.5000 
    108 O         -5.3308  -23.8044  -55.9724 O.2       19 UNK        -0.5000 
    109 N         -5.5442  -21.5449  -55.9419 N.am      20 UNK        -0.5000 
    110 CA        -4.4470  -21.1487  -56.8249 C.3       20 UNK         0.1400 
    111 CB        -4.6527  -21.6928  -58.2554 C.3       20 UNK        -0.1800 
    112 C         -3.0539  -21.4552  -56.2409 C.2       20 UNK         0.5000 
    113 O         -2.1800  -21.9481  -56.9574 O.2       20 UNK        -0.5000 
    114 N         -2.8649  -21.1292  -54.9535 N.am      21 UNK        -0.5000 
    115 CA        -1.5572  -21.0476  -54.2994 C.3       21 UNK         0.1400 
    116 CB        -1.7364  -21.2177  -52.7789 C.3       21 UNK        -0.1800 
    117 C         -0.8507  -19.7318  -54.7020 C.2       21 UNK         0.5000 
    118 O         -0.5089  -19.5634  -55.8733 O.2       21 UNK        -0.5000 
    119 N         -0.6385  -18.8171  -53.7480 N.am      22 UNK        -0.5000 
    120 CA        -0.1064  -17.4685  -54.0029 C.3       22 UNK         0.1400 
    121 C         -1.1248  -16.5711  -54.7602 C.2       22 UNK         0.5000 
    122 N         -0.6576  -15.7058  -55.6497 N.am      22 UNK        -0.7600 
    123 O         -2.3287  -16.6229  -54.5181 O.2       22 UNK        -0.5000 
    124 C124        0.3579  -16.7676  -52.7035 C.3       23 UNK        -0.0398 
    125 S125        1.6485  -17.7103  -51.8195 S.3       23 UNK        -0.2404 
    126 C126        1.2615  -17.3265  -50.0824 C.3       23 UNK        -0.0205 
    127 H127       -2.7675  -15.6279  -41.7071 H         1 UNK         0.0600 
    128 H128       -1.2108  -14.8273  -41.4794 H         1 UNK         0.0600 
    129 H129       -1.3671  -16.1400  -42.6515 H         1 UNK         0.0600 
    130 H130       -1.4891  -15.4099  -44.7594 H         1 UNK         0.3000 
    131 H131       -3.2720  -13.3128  -45.5858 H         1 UNK         0.0600 
    132 H132       -2.5271  -13.9186  -47.8779 H         1 UNK         0.0800 
    133 H133       -1.3041  -14.9796  -47.2239 H         1 UNK         0.0800 
    134 H134       -4.4812  -16.9890  -48.8606 H         1 UNK         0.0800 
    135 H135       -3.4859  -15.6506  -49.3585 H         1 UNK         0.0800 
    136 H136       -0.9703  -15.9137  -49.4110 H         1 UNK         0.1150 
    137 H137        0.4859  -19.9024  -49.8710 H         1 UNK         0.1150 
    138 H138       -3.5611  -19.2224  -48.5979 H         1 UNK         0.1150 
    139 H139       -2.4429  -21.4913  -48.2935 H         1 UNK         0.0800 
    140 H140       -2.5426  -21.4645  -50.0355 H         1 UNK         0.0800 
    141 H141        1.3716  -21.9241  -47.8664 H         1 UNK         0.0800 
    142 H142       -0.0944  -21.2246  -47.2479 H         1 UNK         0.0800 
    143 H143        0.6078  -24.1905  -47.1757 H         1 UNK         0.0600 
    144 H144        1.3915  -22.1449  -45.4485 H         1 UNK         0.3000 
    145 H145        1.7174  -23.9858  -42.4091 H         1 UNK         0.0600 
    146 H146        3.9998  -23.0610  -42.7203 H         1 UNK         0.0600 
    147 H147        3.7309  -24.4165  -43.8057 H         1 UNK         0.0600 
    148 H148        3.6812  -22.7721  -44.4294 H         1 UNK         0.0600 
    149 H149        2.0611  -21.2321  -43.3782 H         1 UNK         0.3000 
    150 H150       -0.9813  -20.0644  -41.9737 H         1 UNK         0.0600 
    151 H151        0.5588  -20.1052  -39.9851 H         1 UNK         0.0600 
    152 H152        0.4695  -18.5133  -40.7232 H         1 UNK         0.0600 
    153 H153        1.8793  -19.5358  -41.0042 H         1 UNK         0.0600 
    154 H154        1.1262  -18.6211  -43.1802 H         1 UNK         0.3000 
    155 H155        0.1831  -19.1590  -46.6136 H         1 UNK         0.0600 
    156 H156        0.0649  -16.6983  -46.5000 H         1 UNK         0.0600 
    157 H157       -0.0978  -16.7794  -44.7428 H         1 UNK         0.0600 
    158 H158       -1.3572  -17.4462  -45.7763 H         1 UNK         0.0600 
    159 H159        2.1862  -17.5036  -45.6510 H         1 UNK         0.3000 
    160 H160        4.8909  -19.8333  -45.4868 H         1 UNK         0.0600 
    161 H161        4.0444  -17.6049  -47.4213 H         1 UNK         0.0600 
    162 H162        4.4911  -19.2453  -47.8725 H         1 UNK         0.0600 
    163 H163        5.6909  -18.1774  -47.1599 H         1 UNK         0.0600 
    164 H164        4.2585  -16.9715  -45.0404 H         1 UNK         0.3000 
    165 H165        4.5642  -17.2191  -41.5220 H         1 UNK         0.0600 
    166 H166        6.5418  -15.9419  -43.4873 H         1 UNK         0.0600 
    167 H167        6.3229  -15.4950  -41.7946 H         1 UNK         0.0600 
    168 H168        6.9651  -17.0758  -42.2100 H         1 UNK         0.0600 
    169 H169        4.2750  -14.9544  -43.2105 H         1 UNK         0.3000 
    170 H170        0.7337  -15.0929  -43.5795 H         1 UNK         0.0600 
    171 H171        1.2954  -14.2719  -41.2262 H         1 UNK         0.0600 
    172 H172        2.4594  -13.1757  -41.9622 H         1 UNK         0.0600 
    173 H173        0.7405  -13.0448  -42.3440 H         1 UNK         0.0600 
    174 H174        2.1850  -13.0017  -44.4520 H         1 UNK         0.3000 
    175 H175        4.0492  -13.7104  -46.9865 H         1 UNK         0.0600 
    176 H176        2.5078  -13.4129  -48.9590 H         1 UNK         0.0600 
    177 H177        2.6352  -15.0782  -48.4204 H         1 UNK         0.0600 
    178 H178        1.2001  -14.1394  -48.0221 H         1 UNK         0.0600 
    179 H179        1.6390  -11.9910  -46.7415 H         1 UNK         0.3000 
    180 H180        3.3055   -9.5029  -44.9538 H         1 UNK         0.0600 
    181 H181        2.9056   -9.2800  -47.9860 H         1 UNK         0.0600 
    182 H182        4.4043   -8.9436  -47.1279 H         1 UNK         0.0600 
    183 H183        2.9963   -7.9317  -46.8515 H         1 UNK         0.0600 
    184 H184        0.9250   -9.3683  -46.5129 H         1 UNK         0.3000 
    185 H185       -1.1241   -9.7897  -43.8777 H         1 UNK         0.0600 
    186 H186       -2.4144   -9.1885  -45.9024 H         1 UNK         0.0600 
    187 H187       -0.9007   -8.3075  -45.8721 H         1 UNK         0.0600 
    188 H188       -1.0947   -9.6931  -46.9476 H         1 UNK         0.0600 
    189 H189       -2.1464  -11.7408  -44.1567 H         1 UNK         0.3000 
    190 H190       -1.4332  -22.1721  -45.0475 H         1 UNK         0.3000 
    191 H191       -3.9582  -22.7638  -45.8903 H         1 UNK         0.0600 
    192 H192       -4.6276  -22.2043  -43.5177 H         1 UNK         0.0600 
    193 H193       -3.4703  -21.0754  -44.1956 H         1 UNK         0.0600 
    194 H194       -2.9337  -22.3021  -43.0465 H         1 UNK         0.0600 
    195 H195       -1.8784  -25.0503  -44.2686 H         1 UNK         0.3000 
    196 H196       -3.9795  -26.8617  -43.3807 H         1 UNK         0.0600 
    197 H197       -2.0497  -28.3400  -42.8557 H         1 UNK         0.0600 
    198 H198       -1.7737  -26.7226  -42.2278 H         1 UNK         0.0600 
    199 H199       -0.9551  -27.2501  -43.6985 H         1 UNK         0.0600 
    200 H200       -2.4543  -26.2213  -46.4513 H         1 UNK         0.3000 
    201 H201       -3.2546  -28.9038  -47.5327 H         1 UNK         0.0600 
    202 H202       -0.7935  -28.6951  -47.3137 H         1 UNK         0.0600 
    203 H203       -0.8170  -27.1827  -48.2202 H         1 UNK         0.0600 
    204 H204       -1.2619  -28.6935  -49.0074 H         1 UNK         0.0600 
    205 H205       -3.0946  -25.3599  -48.1450 H         1 UNK         0.3000 
    206 H206       -5.0202  -25.6198  -50.3490 H         1 UNK         0.0600 
    207 H207       -2.7557  -25.9579  -51.4283 H         1 UNK         0.0600 
    208 H208       -3.5027  -24.4677  -51.9600 H         1 UNK         0.0600 
    209 H209       -2.2176  -24.4223  -50.7574 H         1 UNK         0.0600 
    210 H210       -4.9236  -23.1224  -51.3686 H         1 UNK         0.3000 
    211 H211       -4.9075  -21.0549  -49.3626 H         1 UNK         0.0600 
    212 H212       -7.5585  -21.9365  -50.6670 H         1 UNK         0.0600 
    213 H213       -7.3346  -20.4856  -49.6944 H         1 UNK         0.0600 
    214 H214       -7.1800  -22.0675  -48.9512 H         1 UNK         0.0600 
    215 H215       -5.3871  -18.9398  -50.5188 H         1 UNK         0.3000 
    216 H216       -4.1498  -18.7568  -53.0831 H         1 UNK         0.0600 
    217 H217       -4.9512  -16.3807  -52.9818 H         1 UNK         0.0600 
    218 H218       -4.1231  -16.8779  -51.5199 H         1 UNK         0.0600 
    219 H219       -5.8851  -16.7620  -51.5385 H         1 UNK         0.0600 
    220 H220       -7.5292  -19.0410  -52.0831 H         1 UNK         0.3000 
    221 H221       -8.7697  -18.6824  -54.6382 H         1 UNK         0.0600 
    222 H222       -9.7079  -20.1626  -52.1192 H         1 UNK         0.0600 
    223 H223       -9.9920  -18.4608  -52.4861 H         1 UNK         0.0600 
    224 H224      -10.7323  -19.7069  -53.4753 H         1 UNK         0.0600 
    225 H225       -6.9365  -21.3273  -53.3213 H         1 UNK         0.3000 
    226 H226       -7.9651  -23.2944  -55.2957 H         1 UNK         0.0600 
    227 H227       -7.7599  -23.9883  -52.8688 H         1 UNK         0.0600 
    228 H228       -6.7722  -24.9456  -53.9589 H         1 UNK         0.0600 
    229 H229       -6.0228  -23.7077  -52.9682 H         1 UNK         0.0600 
    230 H230       -6.0672  -20.7740  -55.5471 H         1 UNK         0.3000 
    231 H231       -4.5023  -20.0612  -56.8900 H         1 UNK         0.0600 
    232 H232       -3.9199  -21.2682  -58.9421 H         1 UNK         0.0600 
    233 H233       -5.6399  -21.4345  -58.6377 H         1 UNK         0.0600 
    234 H234       -4.5479  -22.7768  -58.2994 H         1 UNK         0.0600 
    235 H235       -3.6571  -20.8035  -54.4164 H         1 UNK         0.3000 
    236 H236       -0.9315  -21.8705  -54.6503 H         1 UNK         0.0600 
    237 H237       -2.2188  -22.1671  -52.5466 H         1 UNK         0.0600 
    238 H238       -0.7727  -21.2163  -52.2679 H         1 UNK         0.0600 
    239 H239       -2.3438  -20.4235  -52.3457 H         1 UNK         0.0600 
    240 H240       -0.9332  -19.0082  -52.8029 H         1 UNK         0.3000 
    241 H241        0.7712  -17.5837  -54.6424 H         1 UNK         0.0600 
    242 H242        0.3263  -15.6411  -55.8626 H         1 UNK         0.3800 
    243 H243       -1.3073  -15.1083  -56.1363 H         1 UNK         0.3800 
    244 H244        0.7685  -15.7816  -52.9279 H         1 UNK         0.0800 
    245 H245       -0.4975  -16.5963  -52.0497 H         1 UNK         0.0800 
    246 H246        1.3094  -16.2466  -49.9455 H         1 UNK         0.0800 
    247 H247        2.0310  -17.7557  -49.4394 H         1 UNK         0.0800 
@<TRIPOS>BOND
     1    1    2 1    
     2    1  127 1    
     3    1  128 1    
     4    1  129 1    
     5    2    3 2    
     6    2    4 am   BACKBONE|DICT|INTERRES
     7    4    5 1    
     8    4  130 1    
     9    5    6 1    
    10    5   65 1    
    11    5  131 1    
    12    6    7 1    
    13    6  132 1    
    14    6  133 1    
    15    7    8 1    
    16    8    9 1    
    17    8  134 1    
    18    8  135 1    
    19    9   10 ar   
    20    9   14 ar   
    21   10   11 ar   
    22   10  136 1    
    23   11   12 ar   
    24   11  126 1    
    25   12   13 ar   
    26   12  137 1    
    27   13   14 ar   
    28   13   15 1    
    29   14  138 1    
    30   15   16 1    
    31   15  139 1    
    32   15  140 1    
    33   16   17 1    
    34   17   18 1    
    35   17  141 1    
    36   17  142 1    
    37   18   19 1    
    38   18   67 1    
    39   18  143 1    
    40   19   20 am   BACKBONE|DICT|INTERRES
    41   19  144 1    
    42   20   21 2    
    43   20   22 1    
    44   22   23 1    
    45   22   24 1    
    46   22  145 1    
    47   23  146 1    
    48   23  147 1    
    49   23  148 1    
    50   24   25 am   BACKBONE|DICT|INTERRES
    51   24  149 1    
    52   25   26 2    
    53   25   27 1    
    54   27   28 1    
    55   27   29 1    
    56   27  150 1    
    57   28  151 1    
    58   28  152 1    
    59   28  153 1    
    60   29   30 am   BACKBONE|DICT|INTERRES
    61   29  154 1    
    62   30   31 2    
    63   30   32 1    
    64   32   33 1    
    65   32   34 1    
    66   32  155 1    
    67   33  156 1    
    68   33  157 1    
    69   33  158 1    
    70   34   35 am   BACKBONE|DICT|INTERRES
    71   34  159 1    
    72   35   36 2    
    73   35   37 1    
    74   37   38 1    
    75   37   39 1    
    76   37  160 1    
    77   38  161 1    
    78   38  162 1    
    79   38  163 1    
    80   39   40 am   BACKBONE|DICT|INTERRES
    81   39  164 1    
    82   40   41 2    
    83   40   42 1    
    84   42   43 1    
    85   42   44 1    
    86   42  165 1    
    87   43  166 1    
    88   43  167 1    
    89   43  168 1    
    90   44   45 am   BACKBONE|DICT|INTERRES
    91   44  169 1    
    92   45   46 2    
    93   45   47 1    
    94   47   48 1    
    95   47   49 1    
    96   47  170 1    
    97   48  171 1    
    98   48  172 1    
    99   48  173 1    
   100   49   50 am   BACKBONE|DICT|INTERRES
   101   49  174 1    
   102   50   51 2    
   103   50   52 1    
   104   52   53 1    
   105   52   54 1    
   106   52  175 1    
   107   53  176 1    
   108   53  177 1    
   109   53  178 1    
   110   54   55 am   BACKBONE|DICT|INTERRES
   111   54  179 1    
   112   55   56 2    
   113   55   57 1    
   114   57   58 1    
   115   57   59 1    
   116   57  180 1    
   117   58  181 1    
   118   58  182 1    
   119   58  183 1    
   120   59   60 am   BACKBONE|DICT|INTERRES
   121   59  184 1    
   122   60   61 2    
   123   60   62 1    
   124   62   63 1    
   125   62   64 1    
   126   62  185 1    
   127   63  186 1    
   128   63  187 1    
   129   63  188 1    
   130   64   65 am   BACKBONE|DICT|INTERRES
   131   64  189 1    
   132   65   66 2    
   133   67   68 2    
   134   67   69 am   BACKBONE|DICT|INTERRES
   135   69   70 1    
   136   69  190 1    
   137   70   71 1    
   138   70   72 1    
   139   70  191 1    
   140   71  192 1    
   141   71  193 1    
   142   71  194 1    
   143   72   73 2    
   144   72   74 am   BACKBONE|DICT|INTERRES
   145   74   75 1    
   146   74  195 1    
   147   75   76 1    
   148   75   77 1    
   149   75  196 1    
   150   76  197 1    
   151   76  198 1    
   152   76  199 1    
   153   77   78 2    
   154   77   79 am   BACKBONE|DICT|INTERRES
   155   79   80 1    
   156   79  200 1    
   157   80   81 1    
   158   80   82 1    
   159   80  201 1    
   160   81  202 1    
   161   81  203 1    
   162   81  204 1    
   163   82   83 2    
   164   82   84 am   BACKBONE|DICT|INTERRES
   165   84   85 1    
   166   84  205 1    
   167   85   86 1    
   168   85   87 1    
   169   85  206 1    
   170   86  207 1    
   171   86  208 1    
   172   86  209 1    
   173   87   88 2    
   174   87   89 am   BACKBONE|DICT|INTERRES
   175   89   90 1    
   176   89  210 1    
   177   90   91 1    
   178   90   92 1    
   179   90  211 1    
   180   91  212 1    
   181   91  213 1    
   182   91  214 1    
   183   92   93 2    
   184   92   94 am   BACKBONE|DICT|INTERRES
   185   94   95 1    
   186   94  215 1    
   187   95   96 1    
   188   95   97 1    
   189   95  216 1    
   190   96  217 1    
   191   96  218 1    
   192   96  219 1    
   193   97   98 2    
   194   97   99 am   BACKBONE|DICT|INTERRES
   195   99  100 1    
   196   99  220 1    
   197  100  101 1    
   198  100  102 1    
   199  100  221 1    
   200  101  222 1    
   201  101  223 1    
   202  101  224 1    
   203  102  103 2    
   204  102  104 am   BACKBONE|DICT|INTERRES
   205  104  105 1    
   206  104  225 1    
   207  105  106 1    
   208  105  107 1    
   209  105  226 1    
   210  106  227 1    
   211  106  228 1    
   212  106  229 1    
   213  107  108 2    
   214  107  109 am   BACKBONE|DICT|INTERRES
   215  109  110 1    
   216  109  230 1    
   217  110  111 1    
   218  110  112 1    
   219  110  231 1    
   220  111  232 1    
   221  111  233 1    
   222  111  234 1    
   223  112  113 2    
   224  112  114 am   BACKBONE|DICT|INTERRES
   225  114  115 1    
   226  114  235 1    
   227  115  116 1    
   228  115  117 1    
   229  115  236 1    
   230  116  237 1    
   231  116  238 1    
   232  116  239 1    
   233  117  118 2    
   234  117  119 am   BACKBONE|DICT|INTERRES
   235  119  120 1    
   236  119  240 1    
   237  120  121 1    
   238  120  124 1    
   239  120  241 1    
   240  121  122 am   BACKBONE|DICT|INTERRES
   241  121  123 2    
   242  122  242 1    
   243  122  243 1    
   244  124  125 1    
   245  124  244 1    
   246  124  245 1    
   247  125  126 1    
   248  126  246 1    
   249  126  247 1    
@<TRIPOS>SUBSTRUCTURE
     1 UNK         1 GROUP             0       ****    0 ROOT    
