@<TRIPOS>MOLECULE
3R540
247   249    1
SMALL
USER_CHARGES


@<TRIPOS>ATOM
      1 CA         -0.6650  -12.0947  -45.8546 C.3       0 UNK        -0.1800 
      2 C           0.5763  -11.7276  -46.6512 C.2       0 UNK         0.5000 
      3 O           0.6158  -10.6617  -47.2658 O.2       0 UNK        -0.5000 
      4 N           1.5877  -12.6030  -46.6348 N.am      1 UNK        -0.5000 
      5 CA          2.8414  -12.5000  -47.3904 C.3       1 UNK         0.1400 
      6 C6          3.6156  -13.8437  -47.4098 C.3       23 UNK        -0.0398 
      7 S7          2.5766  -15.2639  -47.8809 S.3       23 UNK        -0.2404 
      8 C8          2.8050  -15.3025  -49.6777 C.3       23 UNK        -0.0205 
      9 C9          2.0296  -16.4634  -50.2718 C.ar      23 UNK        -0.0193 
     10 C10         0.7392  -16.2723  -50.7731 C.ar      23 UNK        -0.1150 
     11 C11         0.0248  -17.3432  -51.3195 C.ar      23 UNK        -0.0193 
     12 C12         0.6062  -18.6153  -51.3410 C.ar      23 UNK        -0.1150 
     13 C13         1.8884  -18.8204  -50.8223 C.ar      23 UNK        -0.0193 
     14 C14         2.5986  -17.7382  -50.2992 C.ar      23 UNK        -0.1150 
     15 C15         2.5081  -20.2092  -50.8084 C.3       23 UNK        -0.0205 
     16 S16         2.3282  -20.9999  -49.1771 S.3       23 UNK        -0.2404 
     17 C17         0.5277  -21.2690  -49.1265 C.3       23 UNK        -0.0398 
     18 CA          0.1342  -22.4351  -48.1921 C.3       11 UNK         0.1400 
     19 N           0.3139  -22.1154  -46.7719 N.am      11 UNK        -0.5000 
     20 C           0.1801  -23.0047  -45.7766 C.2       10 UNK         0.5000 
     21 O          -0.0407  -24.2034  -45.9537 O.2       10 UNK        -0.5000 
     22 CA          0.2428  -22.4566  -44.3399 C.3       10 UNK         0.1400 
     23 CB          1.6973  -22.2460  -43.8939 C.3       10 UNK        -0.1800 
     24 N          -0.5192  -21.2167  -44.1775 N.am      10 UNK        -0.5000 
     25 C          -1.8472  -21.1211  -44.3407 C.2       9 UNK         0.5000 
     26 O          -2.5712  -22.0808  -44.5967 O.2       9 UNK        -0.5000 
     27 CA         -2.4769  -19.7211  -44.2447 C.3       9 UNK         0.1400 
     28 CB         -2.7504  -19.3492  -42.7806 C.3       9 UNK        -0.1800 
     29 N          -1.6639  -18.6846  -44.8787 N.am      9 UNK        -0.5000 
     30 C          -1.3595  -18.6399  -46.1844 C.2       8 UNK         0.5000 
     31 O          -1.7651  -19.4581  -47.0108 O.2       8 UNK        -0.5000 
     32 CA         -0.3944  -17.5242  -46.6261 C.3       8 UNK         0.1400 
     33 CB         -1.1309  -16.1872  -46.7994 C.3       8 UNK        -0.1800 
     34 N           0.7100  -17.3565  -45.6818 N.am      8 UNK        -0.5000 
     35 C           1.6585  -18.2783  -45.4657 C.2       7 UNK         0.5000 
     36 O           1.7156  -19.3566  -46.0578 O.2       7 UNK        -0.5000 
     37 CA          2.6734  -17.9653  -44.3526 C.3       7 UNK         0.1400 
     38 CB          3.7608  -16.9970  -44.8401 C.3       7 UNK        -0.1800 
     39 N           2.0265  -17.4124  -43.1623 N.am      7 UNK        -0.5000 
     40 C           1.2345  -18.1192  -42.3435 C.2       6 UNK         0.5000 
     41 O           0.9841  -19.3131  -42.5004 O.2       6 UNK        -0.5000 
     42 CA          0.5881  -17.3628  -41.1683 C.3       6 UNK         0.1400 
     43 CB          1.5256  -17.3580  -39.9518 C.3       6 UNK        -0.1800 
     44 N           0.2161  -15.9858  -41.4945 N.am      6 UNK        -0.5000 
     45 C          -0.6778  -15.6310  -42.4282 C.2       5 UNK         0.5000 
     46 O          -1.2893  -16.4332  -43.1322 O.2       5 UNK        -0.5000 
     47 CA         -0.8939  -14.1226  -42.6395 C.3       5 UNK         0.1400 
     48 CB         -2.0153  -13.6032  -41.7288 C.3       5 UNK        -0.1800 
     49 N           0.3146  -13.3228  -42.4222 N.am      5 UNK        -0.5000 
     50 C           1.4470  -13.4319  -43.1278 C.2       4 UNK         0.5000 
     51 O           1.5888  -14.2133  -44.0724 O.2       4 UNK        -0.5000 
     52 CA          2.5856  -12.4757  -42.7278 C.3       4 UNK         0.1400 
     53 CB          3.9702  -13.0712  -43.0330 C.3       4 UNK        -0.1800 
     54 N           2.4230  -11.1906  -43.4127 N.am      4 UNK        -0.5000 
     55 C           1.5649  -10.2355  -43.0188 C.2       3 UNK         0.5000 
     56 O           0.9074  -10.3226  -41.9803 O.2       3 UNK        -0.5000 
     57 CA          1.3391   -9.0104  -43.9321 C.3       3 UNK         0.1400 
     58 CB          1.4180   -7.6774  -43.1590 C.3       3 UNK        -0.1800 
     59 N           2.1507   -8.9918  -45.1542 N.am      3 UNK        -0.5000 
     60 C           3.4494   -8.6871  -45.3001 C.2       2 UNK         0.5000 
     61 O           4.1862   -8.3223  -44.3833 O.2       2 UNK        -0.5000 
     62 CA          4.0073   -8.8821  -46.7299 C.3       2 UNK         0.1400 
     63 CB          5.5449   -8.7754  -46.8099 C.3       2 UNK        -0.1800 
     64 N           3.5277  -10.1392  -47.3229 N.am      2 UNK        -0.5000 
     65 C           3.7086  -11.3653  -46.8112 C.2       1 UNK         0.5000 
     66 O           4.4461  -11.5959  -45.8539 O.2       1 UNK        -0.5000 
     67 C          -1.3035  -22.9011  -48.4908 C.2       11 UNK         0.5000 
     68 O          -1.4763  -23.9207  -49.1579 O.2       11 UNK        -0.5000 
     69 N          -2.3043  -22.1754  -47.9714 N.am      12 UNK        -0.5000 
     70 CA         -3.7203  -22.5162  -48.1149 C.3       12 UNK         0.1400 
     71 CB         -4.5913  -21.3879  -47.5452 C.3       12 UNK        -0.1800 
     72 C          -4.0764  -23.8681  -47.4711 C.2       12 UNK         0.5000 
     73 O          -4.7880  -24.6599  -48.0860 O.2       12 UNK        -0.5000 
     74 N          -3.5443  -24.1344  -46.2703 N.am      13 UNK        -0.5000 
     75 CA         -3.6914  -25.4028  -45.5553 C.3       13 UNK         0.1400 
     76 CB         -3.0915  -25.2811  -44.1467 C.3       13 UNK        -0.1800 
     77 C          -3.0690  -26.5865  -46.3160 C.2       13 UNK         0.5000 
     78 O          -3.7145  -27.6277  -46.4434 O.2       13 UNK        -0.5000 
     79 N          -1.8571  -26.3916  -46.8572 N.am      14 UNK        -0.5000 
     80 CA         -1.1604  -27.3634  -47.7058 C.3       14 UNK         0.1400 
     81 CB          0.2661  -26.8683  -47.9868 C.3       14 UNK        -0.1800 
     82 C          -1.9058  -27.6591  -49.0230 C.2       14 UNK         0.5000 
     83 O          -1.8767  -28.7945  -49.4982 O.2       14 UNK        -0.5000 
     84 N          -2.5942  -26.6444  -49.5605 N.am      15 UNK        -0.5000 
     85 CA         -3.4547  -26.7266  -50.7404 C.3       15 UNK         0.1400 
     86 CB         -3.4681  -25.3536  -51.4295 C.3       15 UNK        -0.1800 
     87 C          -4.8877  -27.2143  -50.4296 C.2       15 UNK         0.5000 
     88 O          -5.7304  -27.1867  -51.3263 O.2       15 UNK        -0.5000 
     89 N          -5.1509  -27.6467  -49.1865 N.am      16 UNK        -0.5000 
     90 CA         -6.4197  -28.1841  -48.6825 C.3       16 UNK         0.1400 
     91 CB         -6.7703  -29.5159  -49.3796 C.3       16 UNK        -0.1800 
     92 C          -7.5700  -27.1553  -48.7145 C.2       16 UNK         0.5000 
     93 O          -8.6815  -27.4745  -49.1400 O.2       16 UNK        -0.5000 
     94 N          -7.2656  -25.9362  -48.2501 N.am      17 UNK        -0.5000 
     95 CA         -8.1376  -24.7632  -48.1179 C.3       17 UNK         0.1400 
     96 CB         -9.3982  -25.0698  -47.2818 C.3       17 UNK        -0.1800 
     97 C          -8.4549  -24.0575  -49.4518 C.2       17 UNK         0.5000 
     98 O          -9.3334  -23.1935  -49.4857 O.2       17 UNK        -0.5000 
     99 N          -7.7165  -24.3952  -50.5164 N.am      18 UNK        -0.5000 
    100 CA        -7.7085  -23.6640  -51.7825 C.3       18 UNK         0.1400 
    101 CB        -7.2378  -24.6116  -52.8974 C.3       18 UNK        -0.1800 
    102 C         -6.8047  -22.4165  -51.6949 C.2       18 UNK         0.5000 
    103 O         -6.0951  -22.2254  -50.7049 O.2       18 UNK        -0.5000 
    104 N         -6.8232  -21.5972  -52.7544 N.am      19 UNK        -0.5000 
    105 CA        -6.0289  -20.3684  -52.8797 C.3       19 UNK         0.1400 
    106 CB        -6.6006  -19.5273  -54.0311 C.3       19 UNK        -0.1800 
    107 C         -4.5133  -20.5996  -53.0724 C.2       19 UNK         0.5000 
    108 O         -3.7471  -19.6378  -53.0003 O.2       19 UNK        -0.5000 
    109 N         -4.1052  -21.8562  -53.3057 N.am      20 UNK        -0.5000 
    110 CA        -2.7273  -22.3155  -53.4878 C.3       20 UNK         0.1400 
    111 CB        -1.9195  -22.1244  -52.1818 C.3       20 UNK        -0.1800 
    112 C         -2.0874  -21.6725  -54.7350 C.2       20 UNK         0.5000 
    113 O         -2.6169  -21.8400  -55.8347 O.2       20 UNK        -0.5000 
    114 N         -0.9716  -20.9568  -54.5505 N.am      21 UNK        -0.5000 
    115 CA        -0.2620  -20.2257  -55.6006 C.3       21 UNK         0.1400 
    116 CB         1.1540  -19.9020  -55.0964 C.3       21 UNK        -0.1800 
    117 C         -0.9787  -18.9341  -56.0463 C.2       21 UNK         0.5000 
    118 O         -0.6679  -18.4196  -57.1220 O.2       21 UNK        -0.5000 
    119 N         -1.8928  -18.4199  -55.2153 N.am      22 UNK        -0.5000 
    120 CA        -2.6445  -17.1806  -55.4554 C.3       22 UNK         0.1400 
    121 C         -3.9410  -17.4195  -56.2794 C.2       22 UNK         0.5000 
    122 N         -4.5585  -16.3611  -56.7875 N.am      22 UNK        -0.7600 
    123 O         -4.4048  -18.5425  -56.4631 O.2       22 UNK        -0.5000 
    124 C124       -2.9328  -16.4321  -54.1277 C.3       23 UNK        -0.0398 
    125 S125       -1.3889  -15.9656  -53.2692 S.3       23 UNK        -0.2404 
    126 C126       -1.3784  -17.1330  -51.8708 C.3       23 UNK        -0.0205 
    127 H127       -0.6182  -11.6640  -44.8549 H         1 UNK         0.0600 
    128 H128       -0.7627  -13.1763  -45.7680 H         1 UNK         0.0600 
    129 H129       -1.5596  -11.7174  -46.3498 H         1 UNK         0.0600 
    130 H130        1.5153  -13.4263  -46.0470 H         1 UNK         0.3000 
    131 H131        2.5911  -12.2474  -48.4229 H         1 UNK         0.0600 
    132 H132        4.4745  -13.7825  -48.0799 H         1 UNK         0.0800 
    133 H133        4.0203  -14.0723  -46.4228 H         1 UNK         0.0800 
    134 H134        3.8655  -15.4015  -49.9140 H         1 UNK         0.0800 
    135 H135        2.4714  -14.3585  -50.1110 H         1 UNK         0.0800 
    136 H136        0.2906  -15.2892  -50.7436 H         1 UNK         0.1150 
    137 H137        0.0562  -19.4497  -51.7494 H         1 UNK         0.1150 
    138 H138        3.5880  -17.8929  -49.8917 H         1 UNK         0.1150 
    139 H139        2.0651  -20.8405  -51.5801 H         1 UNK         0.0800 
    140 H140        3.5696  -20.1363  -51.0494 H         1 UNK         0.0800 
    141 H141        0.1961  -21.4737  -50.1456 H         1 UNK         0.0800 
    142 H142        0.0395  -20.3411  -48.8245 H         1 UNK         0.0800 
    143 H143        0.7870  -23.2815  -48.4175 H         1 UNK         0.0600 
    144 H144        0.5304  -21.1514  -46.5447 H         1 UNK         0.3000 
    145 H145       -0.2032  -23.2060  -43.6829 H         1 UNK         0.0600 
    146 H146        1.7487  -21.9561  -42.8445 H         1 UNK         0.0600 
    147 H147        2.2763  -23.1635  -44.0056 H         1 UNK         0.0600 
    148 H148        2.1929  -21.4718  -44.4795 H         1 UNK         0.0600 
    149 H149        0.0055  -20.3923  -43.9048 H         1 UNK         0.3000 
    150 H150       -3.4342  -19.7521  -44.7684 H         1 UNK         0.0600 
    151 H151       -3.3853  -20.0949  -42.3007 H         1 UNK         0.0600 
    152 H152       -3.2623  -18.3897  -42.7058 H         1 UNK         0.0600 
    153 H153       -1.8280  -19.2837  -42.2041 H         1 UNK         0.0600 
    154 H154       -1.3303  -17.9391  -44.2728 H         1 UNK         0.3000 
    155 H155        0.0275  -17.8077  -47.5933 H         1 UNK         0.0600 
    156 H156       -1.9517  -16.2854  -47.5108 H         1 UNK         0.0600 
    157 H157       -0.4618  -15.4164  -47.1820 H         1 UNK         0.0600 
    158 H158       -1.5507  -15.8306  -45.8582 H         1 UNK         0.0600 
    159 H159        0.7294  -16.5038  -45.1405 H         1 UNK         0.3000 
    160 H160        3.1587  -18.9038  -44.0755 H         1 UNK         0.0600 
    161 H161        3.3527  -16.0089  -45.0502 H         1 UNK         0.0600 
    162 H162        4.2291  -17.3612  -45.7554 H         1 UNK         0.0600 
    163 H163        4.5470  -16.8801  -44.0944 H         1 UNK         0.0600 
    164 H164        2.1410  -16.4223  -42.9987 H         1 UNK         0.3000 
    165 H165       -0.3234  -17.8964  -40.8927 H         1 UNK         0.0600 
    166 H166        1.0454  -16.9034  -39.0851 H         1 UNK         0.0600 
    167 H167        1.8049  -18.3744  -39.6706 H         1 UNK         0.0600 
    168 H168        2.4459  -16.8085  -40.1538 H         1 UNK         0.0600 
    169 H169        0.6710  -15.2550  -40.9679 H         1 UNK         0.3000 
    170 H170       -1.2098  -13.9864  -43.6737 H         1 UNK         0.0600 
    171 H171       -2.9363  -14.1674  -41.8825 H         1 UNK         0.0600 
    172 H172       -1.7499  -13.6876  -40.6742 H         1 UNK         0.0600 
    173 H173       -2.2382  -12.5565  -41.9367 H         1 UNK         0.0600 
    174 H174        0.2615  -12.6050  -41.7111 H         1 UNK         0.3000 
    175 H175        2.5383  -12.3139  -41.6487 H         1 UNK         0.0600 
    176 H176        4.0683  -13.3765  -44.0737 H         1 UNK         0.0600 
    177 H177        4.7656  -12.3580  -42.8162 H         1 UNK         0.0600 
    178 H178        4.1506  -13.9571  -42.4231 H         1 UNK         0.0600 
    179 H179        2.9480  -11.0686  -44.2691 H         1 UNK         0.3000 
    180 H180        0.3112   -9.1069  -44.2846 H         1 UNK         0.0600 
    181 H181        2.3833   -7.5446  -42.6704 H         1 UNK         0.0600 
    182 H182        0.6562   -7.6345  -42.3798 H         1 UNK         0.0600 
    183 H183        1.2525   -6.8259  -43.8189 H         1 UNK         0.0600 
    184 H184        1.6632   -9.3165  -45.9829 H         1 UNK         0.3000 
    185 H185        3.5902   -8.0749  -47.3338 H         1 UNK         0.0600 
    186 H186        5.8827   -7.7900  -46.4874 H         1 UNK         0.0600 
    187 H187        6.0407   -9.5115  -46.1767 H         1 UNK         0.0600 
    188 H188        5.8969   -8.9204  -47.8312 H         1 UNK         0.0600 
    189 H189        2.8517  -10.0367  -48.0688 H         1 UNK         0.3000 
    190 H190       -2.0870  -21.3236  -47.4612 H         1 UNK         0.3000 
    191 H191       -3.9288  -22.5964  -49.1833 H         1 UNK         0.0600 
    192 H192       -4.4303  -21.2531  -46.4759 H         1 UNK         0.0600 
    193 H193       -5.6500  -21.6030  -47.6962 H         1 UNK         0.0600 
    194 H194       -4.3789  -20.4398  -48.0396 H         1 UNK         0.0600 
    195 H195       -3.0143  -23.4061  -45.7960 H         1 UNK         0.3000 
    196 H196       -4.7601  -25.6014  -45.4515 H         1 UNK         0.0600 
    197 H197       -3.1965  -26.2156  -43.5943 H         1 UNK         0.0600 
    198 H198       -3.5954  -24.5047  -43.5708 H         1 UNK         0.0600 
    199 H199       -2.0298  -25.0354  -44.1803 H         1 UNK         0.0600 
    200 H200       -1.3760  -25.5140  -46.6829 H         1 UNK         0.3000 
    201 H201       -1.0913  -28.3004  -47.1495 H         1 UNK         0.0600 
    202 H202        0.8247  -26.7304  -47.0609 H         1 UNK         0.0600 
    203 H203        0.2648  -25.9175  -48.5203 H         1 UNK         0.0600 
    204 H204        0.8167  -27.5864  -48.5956 H         1 UNK         0.0600 
    205 H205       -2.5126  -25.7285  -49.1315 H         1 UNK         0.3000 
    206 H206       -3.0203  -27.4437  -51.4397 H         1 UNK         0.0600 
    207 H207       -2.4531  -25.0057  -51.6195 H         1 UNK         0.0600 
    208 H208       -3.9728  -25.4034  -52.3937 H         1 UNK         0.0600 
    209 H209       -3.9754  -24.6015  -50.8236 H         1 UNK         0.0600 
    210 H210       -4.4072  -27.5917  -48.5009 H         1 UNK         0.3000 
    211 H211       -6.2505  -28.4079  -47.6283 H         1 UNK         0.0600 
    212 H212       -7.0069  -29.3743  -50.4344 H         1 UNK         0.0600 
    213 H213       -7.6370  -29.9841  -48.9116 H         1 UNK         0.0600 
    214 H214       -5.9447  -30.2244  -49.3128 H         1 UNK         0.0600 
    215 H215       -6.2893  -25.7438  -48.0328 H         1 UNK         0.3000 
    216 H216       -7.5507  -24.0407  -47.5490 H         1 UNK         0.0600 
    217 H217       -9.9267  -24.1516  -47.0232 H         1 UNK         0.0600 
    218 H218       -9.1415  -25.5679  -46.3470 H         1 UNK         0.0600 
    219 H219      -10.1013  -25.7045  -47.8213 H         1 UNK         0.0600 
    220 H220       -7.0010  -25.0980  -50.3961 H         1 UNK         0.3000 
    221 H221       -8.7238  -23.3356  -52.0143 H         1 UNK         0.0600 
    222 H222       -6.1973  -24.9032  -52.7640 H         1 UNK         0.0600 
    223 H223       -7.8370  -25.5223  -52.9195 H         1 UNK         0.0600 
    224 H224       -7.3248  -24.1459  -53.8794 H         1 UNK         0.0600 
    225 H225       -7.4245  -21.8193  -53.5349 H         1 UNK         0.3000 
    226 H226       -6.1454  -19.7972  -51.9563 H         1 UNK         0.0600 
    227 H227       -7.6556  -19.3032  -53.8736 H         1 UNK         0.0600 
    228 H228       -6.0778  -18.5736  -54.1149 H         1 UNK         0.0600 
    229 H229       -6.5021  -20.0389  -54.9894 H         1 UNK         0.0600 
    230 H230       -4.8181  -22.5648  -53.3883 H         1 UNK         0.3000 
    231 H231       -2.7819  -23.3859  -53.6898 H         1 UNK         0.0600 
    232 H232       -0.9402  -22.5996  -52.2483 H         1 UNK         0.0600 
    233 H233       -2.4398  -22.5793  -51.3402 H         1 UNK         0.0600 
    234 H234       -1.7707  -21.0742  -51.9308 H         1 UNK         0.0600 
    235 H235       -0.6032  -20.8746  -53.6157 H         1 UNK         0.3000 
    236 H236       -0.1745  -20.8734  -56.4755 H         1 UNK         0.0600 
    237 H237        1.7394  -19.4042  -55.8706 H         1 UNK         0.0600 
    238 H238        1.1314  -19.2408  -54.2292 H         1 UNK         0.0600 
    239 H239        1.6925  -20.8075  -54.8162 H         1 UNK         0.0600 
    240 H240       -2.1659  -18.9447  -54.3945 H         1 UNK         0.3000 
    241 H241       -2.0210  -16.5230  -56.0647 H         1 UNK         0.0600 
    242 H242       -5.4014  -16.5006  -57.3231 H         1 UNK         0.3800 
    243 H243       -4.1996  -15.4262  -56.6693 H         1 UNK         0.3800 
    244 H244       -3.4853  -15.5111  -54.3188 H         1 UNK         0.0800 
    245 H245       -3.5660  -17.0297  -53.4707 H         1 UNK         0.0800 
    246 H246       -1.7976  -18.0865  -52.1918 H         1 UNK         0.0800 
    247 H247       -2.0295  -16.7583  -51.0799 H         1 UNK         0.0800 
@<TRIPOS>BOND
     1    1    2 1    
     2    1  127 1    
     3    1  128 1    
     4    1  129 1    
     5    2    3 2    
     6    2    4 am   BACKBONE|DICT|INTERRES
     7    4    5 1    
     8    4  130 1    
     9    5    6 1    
    10    5   65 1    
    11    5  131 1    
    12    6    7 1    
    13    6  132 1    
    14    6  133 1    
    15    7    8 1    
    16    8    9 1    
    17    8  134 1    
    18    8  135 1    
    19    9   10 ar   
    20    9   14 ar   
    21   10   11 ar   
    22   10  136 1    
    23   11   12 ar   
    24   11  126 1    
    25   12   13 ar   
    26   12  137 1    
    27   13   14 ar   
    28   13   15 1    
    29   14  138 1    
    30   15   16 1    
    31   15  139 1    
    32   15  140 1    
    33   16   17 1    
    34   17   18 1    
    35   17  141 1    
    36   17  142 1    
    37   18   19 1    
    38   18   67 1    
    39   18  143 1    
    40   19   20 am   BACKBONE|DICT|INTERRES
    41   19  144 1    
    42   20   21 2    
    43   20   22 1    
    44   22   23 1    
    45   22   24 1    
    46   22  145 1    
    47   23  146 1    
    48   23  147 1    
    49   23  148 1    
    50   24   25 am   BACKBONE|DICT|INTERRES
    51   24  149 1    
    52   25   26 2    
    53   25   27 1    
    54   27   28 1    
    55   27   29 1    
    56   27  150 1    
    57   28  151 1    
    58   28  152 1    
    59   28  153 1    
    60   29   30 am   BACKBONE|DICT|INTERRES
    61   29  154 1    
    62   30   31 2    
    63   30   32 1    
    64   32   33 1    
    65   32   34 1    
    66   32  155 1    
    67   33  156 1    
    68   33  157 1    
    69   33  158 1    
    70   34   35 am   BACKBONE|DICT|INTERRES
    71   34  159 1    
    72   35   36 2    
    73   35   37 1    
    74   37   38 1    
    75   37   39 1    
    76   37  160 1    
    77   38  161 1    
    78   38  162 1    
    79   38  163 1    
    80   39   40 am   BACKBONE|DICT|INTERRES
    81   39  164 1    
    82   40   41 2    
    83   40   42 1    
    84   42   43 1    
    85   42   44 1    
    86   42  165 1    
    87   43  166 1    
    88   43  167 1    
    89   43  168 1    
    90   44   45 am   BACKBONE|DICT|INTERRES
    91   44  169 1    
    92   45   46 2    
    93   45   47 1    
    94   47   48 1    
    95   47   49 1    
    96   47  170 1    
    97   48  171 1    
    98   48  172 1    
    99   48  173 1    
   100   49   50 am   BACKBONE|DICT|INTERRES
   101   49  174 1    
   102   50   51 2    
   103   50   52 1    
   104   52   53 1    
   105   52   54 1    
   106   52  175 1    
   107   53  176 1    
   108   53  177 1    
   109   53  178 1    
   110   54   55 am   BACKBONE|DICT|INTERRES
   111   54  179 1    
   112   55   56 2    
   113   55   57 1    
   114   57   58 1    
   115   57   59 1    
   116   57  180 1    
   117   58  181 1    
   118   58  182 1    
   119   58  183 1    
   120   59   60 am   BACKBONE|DICT|INTERRES
   121   59  184 1    
   122   60   61 2    
   123   60   62 1    
   124   62   63 1    
   125   62   64 1    
   126   62  185 1    
   127   63  186 1    
   128   63  187 1    
   129   63  188 1    
   130   64   65 am   BACKBONE|DICT|INTERRES
   131   64  189 1    
   132   65   66 2    
   133   67   68 2    
   134   67   69 am   BACKBONE|DICT|INTERRES
   135   69   70 1    
   136   69  190 1    
   137   70   71 1    
   138   70   72 1    
   139   70  191 1    
   140   71  192 1    
   141   71  193 1    
   142   71  194 1    
   143   72   73 2    
   144   72   74 am   BACKBONE|DICT|INTERRES
   145   74   75 1    
   146   74  195 1    
   147   75   76 1    
   148   75   77 1    
   149   75  196 1    
   150   76  197 1    
   151   76  198 1    
   152   76  199 1    
   153   77   78 2    
   154   77   79 am   BACKBONE|DICT|INTERRES
   155   79   80 1    
   156   79  200 1    
   157   80   81 1    
   158   80   82 1    
   159   80  201 1    
   160   81  202 1    
   161   81  203 1    
   162   81  204 1    
   163   82   83 2    
   164   82   84 am   BACKBONE|DICT|INTERRES
   165   84   85 1    
   166   84  205 1    
   167   85   86 1    
   168   85   87 1    
   169   85  206 1    
   170   86  207 1    
   171   86  208 1    
   172   86  209 1    
   173   87   88 2    
   174   87   89 am   BACKBONE|DICT|INTERRES
   175   89   90 1    
   176   89  210 1    
   177   90   91 1    
   178   90   92 1    
   179   90  211 1    
   180   91  212 1    
   181   91  213 1    
   182   91  214 1    
   183   92   93 2    
   184   92   94 am   BACKBONE|DICT|INTERRES
   185   94   95 1    
   186   94  215 1    
   187   95   96 1    
   188   95   97 1    
   189   95  216 1    
   190   96  217 1    
   191   96  218 1    
   192   96  219 1    
   193   97   98 2    
   194   97   99 am   BACKBONE|DICT|INTERRES
   195   99  100 1    
   196   99  220 1    
   197  100  101 1    
   198  100  102 1    
   199  100  221 1    
   200  101  222 1    
   201  101  223 1    
   202  101  224 1    
   203  102  103 2    
   204  102  104 am   BACKBONE|DICT|INTERRES
   205  104  105 1    
   206  104  225 1    
   207  105  106 1    
   208  105  107 1    
   209  105  226 1    
   210  106  227 1    
   211  106  228 1    
   212  106  229 1    
   213  107  108 2    
   214  107  109 am   BACKBONE|DICT|INTERRES
   215  109  110 1    
   216  109  230 1    
   217  110  111 1    
   218  110  112 1    
   219  110  231 1    
   220  111  232 1    
   221  111  233 1    
   222  111  234 1    
   223  112  113 2    
   224  112  114 am   BACKBONE|DICT|INTERRES
   225  114  115 1    
   226  114  235 1    
   227  115  116 1    
   228  115  117 1    
   229  115  236 1    
   230  116  237 1    
   231  116  238 1    
   232  116  239 1    
   233  117  118 2    
   234  117  119 am   BACKBONE|DICT|INTERRES
   235  119  120 1    
   236  119  240 1    
   237  120  121 1    
   238  120  124 1    
   239  120  241 1    
   240  121  122 am   BACKBONE|DICT|INTERRES
   241  121  123 2    
   242  122  242 1    
   243  122  243 1    
   244  124  125 1    
   245  124  244 1    
   246  124  245 1    
   247  125  126 1    
   248  126  246 1    
   249  126  247 1    
@<TRIPOS>SUBSTRUCTURE
     1 UNK         1 GROUP             0       ****    0 ROOT    
