@<TRIPOS>MOLECULE
3R540
247   249    1
SMALL
USER_CHARGES


@<TRIPOS>ATOM
      1 CA          1.8087  -10.9381  -48.7202 C.3       0 UNK        -0.1800 
      2 C           1.6135  -12.3724  -48.2523 C.2       0 UNK         0.5000 
      3 O           0.6096  -12.6753  -47.6122 O.2       0 UNK        -0.5000 
      4 N           2.5547  -13.2626  -48.5912 N.am      1 UNK        -0.5000 
      5 CA          2.5893  -14.6811  -48.1993 C.3       1 UNK         0.1400 
      6 C6          3.9540  -15.3279  -48.5460 C.3       23 UNK        -0.0398 
      7 S7          4.3954  -15.2187  -50.3168 S.3       23 UNK        -0.2404 
      8 C8          4.9035  -16.9299  -50.6810 C.3       23 UNK        -0.0205 
      9 C9          3.7611  -17.9308  -50.5650 C.ar      23 UNK        -0.0193 
     10 C10         2.6476  -17.8296  -51.4031 C.ar      23 UNK        -0.1150 
     11 C11         1.6177  -18.7712  -51.3325 C.ar      23 UNK        -0.0193 
     12 C12         1.7050  -19.8232  -50.4157 C.ar      23 UNK        -0.1150 
     13 C13         2.8214  -19.9448  -49.5819 C.ar      23 UNK        -0.0193 
     14 C14         3.8400  -18.9894  -49.6544 C.ar      23 UNK        -0.1150 
     15 C15         2.9699  -21.1436  -48.6549 C.3       23 UNK        -0.0205 
     16 S16         2.5650  -20.7560  -46.9234 S.3       23 UNK        -0.2404 
     17 C17         0.7431  -20.8065  -46.9575 C.3       23 UNK        -0.0398 
     18 CA          0.1720  -22.2297  -46.7380 C.3       11 UNK         0.1400 
     19 N           0.6236  -22.8375  -45.4808 N.am      11 UNK        -0.5000 
     20 C           0.4738  -24.1352  -45.1720 C.2       10 UNK         0.5000 
     21 O          -0.0600  -24.9540  -45.9185 O.2       10 UNK        -0.5000 
     22 CA          0.9456  -24.5902  -43.7768 C.3       10 UNK         0.1400 
     23 CB          2.4348  -24.9635  -43.8117 C.3       10 UNK        -0.1800 
     24 N           0.7289  -23.5869  -42.7354 N.am      10 UNK        -0.5000 
     25 C          -0.4478  -23.0255  -42.4227 C.2       9 UNK         0.5000 
     26 O          -1.5190  -23.3719  -42.9178 O.2       9 UNK        -0.5000 
     27 CA         -0.4213  -21.8375  -41.4413 C.3       9 UNK         0.1400 
     28 CB         -0.8782  -22.2862  -40.0457 C.3       9 UNK        -0.1800 
     29 N           0.8868  -21.1819  -41.3322 N.am      9 UNK        -0.5000 
     30 C           1.5469  -20.5893  -42.3372 C.2       8 UNK         0.5000 
     31 O           1.1341  -20.5420  -43.4991 O.2       8 UNK        -0.5000 
     32 CA          2.9435  -20.0474  -41.9837 C.3       8 UNK         0.1400 
     33 CB          3.9874  -21.1687  -42.1122 C.3       8 UNK        -0.1800 
     34 N           3.3623  -18.9253  -42.8208 N.am      8 UNK        -0.5000 
     35 C           2.7519  -17.7363  -42.8848 C.2       7 UNK         0.5000 
     36 O           1.7283  -17.4512  -42.2579 O.2       7 UNK        -0.5000 
     37 CA          3.4285  -16.6955  -43.7950 C.3       7 UNK         0.1400 
     38 CB          3.1816  -16.9957  -45.2794 C.3       7 UNK        -0.1800 
     39 N           2.9891  -15.3337  -43.4897 N.am      7 UNK        -0.5000 
     40 C           3.4286  -14.6295  -42.4367 C.2       6 UNK         0.5000 
     41 O           4.3090  -15.0292  -41.6725 O.2       6 UNK        -0.5000 
     42 CA          2.8065  -13.2417  -42.1902 C.3       6 UNK         0.1400 
     43 CB          3.7255  -12.1387  -42.7386 C.3       6 UNK        -0.1800 
     44 N           1.4796  -13.0794  -42.7801 N.am      6 UNK        -0.5000 
     45 C           0.3480  -13.6196  -42.3094 C.2       5 UNK         0.5000 
     46 O           0.2883  -14.3189  -41.2977 O.2       5 UNK        -0.5000 
     47 CA         -0.9446  -13.3076  -43.0934 C.3       5 UNK         0.1400 
     48 CB         -0.8893  -11.9510  -43.8290 C.3       5 UNK        -0.1800 
     49 N          -1.3413  -14.3828  -44.0124 N.am      5 UNK        -0.5000 
     50 C          -0.5888  -14.9895  -44.9449 C.2       4 UNK         0.5000 
     51 O           0.5894  -14.7139  -45.1679 O.2       4 UNK        -0.5000 
     52 CA         -1.2668  -16.1001  -45.7697 C.3       4 UNK         0.1400 
     53 CB         -0.9961  -17.4670  -45.1170 C.3       4 UNK        -0.1800 
     54 N          -2.7181  -15.9442  -45.9057 N.am      4 UNK        -0.5000 
     55 C          -3.4621  -15.0724  -46.6118 C.2       3 UNK         0.5000 
     56 O          -4.6848  -15.0881  -46.4831 O.2       3 UNK        -0.5000 
     57 CA         -2.8732  -14.0344  -47.6020 C.3       3 UNK         0.1400 
     58 CB         -2.5737  -12.6948  -46.9197 C.3       3 UNK        -0.1800 
     59 N          -1.7277  -14.4537  -48.4097 N.am      3 UNK        -0.5000 
     60 C          -1.8090  -15.3218  -49.4292 C.2       2 UNK         0.5000 
     61 O          -2.8557  -15.8779  -49.7551 O.2       2 UNK        -0.5000 
     62 CA         -0.5426  -15.5968  -50.2659 C.3       2 UNK         0.1400 
     63 CB         -0.7233  -15.0624  -51.6956 C.3       2 UNK        -0.1800 
     64 N           0.6677  -15.0018  -49.7081 N.am      2 UNK        -0.5000 
     65 C           1.4042  -15.5281  -48.7220 C.2       1 UNK         0.5000 
     66 O           1.1708  -16.6238  -48.2140 O.2       1 UNK        -0.5000 
     67 C          -1.3661  -22.2059  -46.8391 C.2       11 UNK         0.5000 
     68 O          -1.9092  -22.3554  -47.9355 O.2       11 UNK        -0.5000 
     69 N          -2.0419  -22.0247  -45.6965 N.am      12 UNK        -0.5000 
     70 CA         -3.4963  -22.0730  -45.5898 C.3       12 UNK         0.1400 
     71 CB         -3.9534  -21.3107  -44.3372 C.3       12 UNK        -0.1800 
     72 C          -4.0100  -23.5218  -45.5880 C.2       12 UNK         0.5000 
     73 O          -4.9640  -23.8218  -46.3035 O.2       12 UNK        -0.5000 
     74 N          -3.3449  -24.4020  -44.8259 N.am      13 UNK        -0.5000 
     75 CA         -3.6662  -25.8275  -44.7040 C.3       13 UNK         0.1400 
     76 CB         -2.7794  -26.4587  -43.6212 C.3       13 UNK        -0.1800 
     77 C          -3.5361  -26.6031  -46.0289 C.2       13 UNK         0.5000 
     78 O          -4.3441  -27.4937  -46.2934 O.2       13 UNK        -0.5000 
     79 N          -2.5508  -26.2244  -46.8546 N.am      14 UNK        -0.5000 
     80 CA         -2.3472  -26.7396  -48.2107 C.3       14 UNK         0.1400 
     81 CB         -0.9123  -26.4061  -48.6515 C.3       14 UNK        -0.1800 
     82 C          -3.3572  -26.1903  -49.2407 C.2       14 UNK         0.5000 
     83 O          -3.3529  -26.6526  -50.3814 O.2       14 UNK        -0.5000 
     84 N          -4.1628  -25.1914  -48.8442 N.am      15 UNK        -0.5000 
     85 CA         -5.1337  -24.4258  -49.6380 C.3       15 UNK         0.1400 
     86 CB         -6.1829  -25.3474  -50.2898 C.3       15 UNK        -0.1800 
     87 C          -4.4935  -23.4569  -50.6545 C.2       15 UNK         0.5000 
     88 O          -5.2216  -22.7537  -51.3605 O.2       15 UNK        -0.5000 
     89 N          -3.1543  -23.4016  -50.6830 N.am      16 UNK        -0.5000 
     90 CA         -2.3428  -22.5708  -51.5677 C.3       16 UNK         0.1400 
     91 CB         -0.8556  -22.8965  -51.3587 C.3       16 UNK        -0.1800 
     92 C          -2.6098  -21.0750  -51.3642 C.2       16 UNK         0.5000 
     93 O          -2.8333  -20.3663  -52.3415 O.2       16 UNK        -0.5000 
     94 N          -2.6262  -20.6352  -50.1012 N.am      17 UNK        -0.5000 
     95 CA         -3.0116  -19.2792  -49.7221 C.3       17 UNK         0.1400 
     96 CB         -2.3138  -18.8955  -48.4076 C.3       17 UNK        -0.1800 
     97 C          -4.5378  -19.1461  -49.5872 C.2       17 UNK         0.5000 
     98 O          -5.1158  -18.1921  -50.1044 O.2       17 UNK        -0.5000 
     99 N          -5.1603  -20.1002  -48.8799 N.am      18 UNK        -0.5000 
    100 CA        -6.5483  -20.0000  -48.4216 C.3       18 UNK         0.1400 
    101 CB        -6.8253  -21.0759  -47.3612 C.3       18 UNK        -0.1800 
    102 C         -7.6111  -20.0555  -49.5325 C.2       18 UNK         0.5000 
    103 O         -8.6287  -19.3721  -49.4073 O.2       18 UNK        -0.5000 
    104 N         -7.3805  -20.8655  -50.5741 N.am      19 UNK        -0.5000 
    105 CA        -8.3284  -21.0582  -51.6717 C.3       19 UNK         0.1400 
    106 CB        -8.6681  -22.5513  -51.8107 C.3       19 UNK        -0.1800 
    107 C         -7.7681  -20.5030  -52.9855 C.2       19 UNK         0.5000 
    108 O         -8.4447  -19.7125  -53.6446 O.2       19 UNK        -0.5000 
    109 N         -6.5567  -20.9375  -53.3573 N.am      20 UNK        -0.5000 
    110 CA        -5.9560  -20.6169  -54.6528 C.3       20 UNK         0.1400 
    111 CB        -4.8928  -21.6748  -54.9873 C.3       20 UNK        -0.1800 
    112 C         -5.3503  -19.2042  -54.7231 C.2       20 UNK         0.5000 
    113 O         -5.2748  -18.6383  -55.8152 O.2       20 UNK        -0.5000 
    114 N         -4.8694  -18.6925  -53.5792 N.am      21 UNK        -0.5000 
    115 CA        -4.0546  -17.4768  -53.4186 C.3       21 UNK         0.1400 
    116 CB        -4.9224  -16.2194  -53.6224 C.3       21 UNK        -0.1800 
    117 C         -2.7825  -17.4766  -54.3024 C.2       21 UNK         0.5000 
    118 O         -2.3173  -16.4155  -54.7208 O.2       21 UNK        -0.5000 
    119 N         -2.2768  -18.6811  -54.6027 N.am      22 UNK        -0.5000 
    120 CA        -1.2429  -18.9932  -55.6025 C.3       22 UNK         0.1400 
    121 C         -1.5611  -18.5117  -57.0553 C.2       22 UNK         0.5000 
    122 N         -2.8190  -18.2917  -57.4222 N.am      22 UNK        -0.7600 
    123 O         -0.6636  -18.3686  -57.8816 O.2       22 UNK        -0.5000 
    124 C124        0.1808  -18.6153  -55.1155 C.3       23 UNK        -0.0398 
    125 S125        0.7283  -19.7005  -53.7526 S.3       23 UNK        -0.2404 
    126 C126        0.4369  -18.6741  -52.2818 C.3       23 UNK        -0.0205 
    127 H127        1.8512  -10.2679  -47.8617 H         1 UNK         0.0600 
    128 H128        0.9737  -10.6330  -49.3509 H         1 UNK         0.0600 
    129 H129        2.7295  -10.8192  -49.2917 H         1 UNK         0.0600 
    130 H130        3.3398  -12.9583  -49.1499 H         1 UNK         0.3000 
    131 H131        2.4953  -14.6932  -47.1121 H         1 UNK         0.0600 
    132 H132        4.7434  -14.8358  -47.9765 H         1 UNK         0.0800 
    133 H133        3.9724  -16.3703  -48.2251 H         1 UNK         0.0800 
    134 H134        5.2992  -16.9680  -51.6967 H         1 UNK         0.0800 
    135 H135        5.7296  -17.2020  -50.0221 H         1 UNK         0.0800 
    136 H136        2.5909  -17.0230  -52.1205 H         1 UNK         0.1150 
    137 H137        0.9193  -20.5640  -50.3777 H         1 UNK         0.1150 
    138 H138        4.7066  -19.0878  -49.0159 H         1 UNK         0.1150 
    139 H139        2.3562  -21.9766  -49.0008 H         1 UNK         0.0800 
    140 H140        4.0009  -21.4977  -48.6955 H         1 UNK         0.0800 
    141 H141        0.4015  -20.3945  -47.9072 H         1 UNK         0.0800 
    142 H142        0.3812  -20.1260  -46.1847 H         1 UNK         0.0800 
    143 H143        0.5286  -22.8625  -47.5534 H         1 UNK         0.0600 
    144 H144        1.0388  -22.2056  -44.8046 H         1 UNK         0.3000 
    145 H145        0.3761  -25.4796  -43.5035 H         1 UNK         0.0600 
    146 H146        2.7642  -25.3650  -42.8533 H         1 UNK         0.0600 
    147 H147        2.6280  -25.7272  -44.5663 H         1 UNK         0.0600 
    148 H148        3.0605  -24.1018  -44.0487 H         1 UNK         0.0600 
    149 H149        1.5528  -23.2364  -42.2715 H         1 UNK         0.3000 
    150 H150       -1.1319  -21.0970  -41.8143 H         1 UNK         0.0600 
    151 H151       -0.1890  -23.0108  -39.6101 H         1 UNK         0.0600 
    152 H152       -1.8628  -22.7542  -40.0884 H         1 UNK         0.0600 
    153 H153       -0.9530  -21.4395  -39.3631 H         1 UNK         0.0600 
    154 H154        1.3095  -21.1925  -40.4149 H         1 UNK         0.3000 
    155 H155        2.9277  -19.6987  -40.9490 H         1 UNK         0.0600 
    156 H156        4.0505  -21.5428  -43.1352 H         1 UNK         0.0600 
    157 H157        3.7411  -22.0140  -41.4684 H         1 UNK         0.0600 
    158 H158        4.9787  -20.8214  -41.8201 H         1 UNK         0.0600 
    159 H159        4.1746  -19.0848  -43.3979 H         1 UNK         0.3000 
    160 H160        4.5052  -16.7579  -43.6220 H         1 UNK         0.0600 
    161 H161        2.1401  -16.8523  -45.5610 H         1 UNK         0.0600 
    162 H162        3.4504  -18.0217  -45.5330 H         1 UNK         0.0600 
    163 H163        3.7921  -16.3422  -45.8984 H         1 UNK         0.0600 
    164 H164        2.2127  -14.9729  -44.0362 H         1 UNK         0.3000 
    165 H165        2.7203  -13.1081  -41.1098 H         1 UNK         0.0600 
    166 H166        3.3349  -11.1476  -42.5069 H         1 UNK         0.0600 
    167 H167        4.7216  -12.2048  -42.2988 H         1 UNK         0.0600 
    168 H168        3.8390  -12.2114  -43.8211 H         1 UNK         0.0600 
    169 H169        1.4305  -12.5573  -43.6430 H         1 UNK         0.3000 
    170 H170       -1.7376  -13.2355  -42.3475 H         1 UNK         0.0600 
    171 H171       -0.5711  -11.1524  -43.1575 H         1 UNK         0.0600 
    172 H172       -0.2011  -11.9657  -44.6751 H         1 UNK         0.0600 
    173 H173       -1.8740  -11.6723  -44.2032 H         1 UNK         0.0600 
    174 H174       -2.2876  -14.7163  -43.8975 H         1 UNK         0.3000 
    175 H175       -0.8141  -16.1233  -46.7550 H         1 UNK         0.0600 
    176 H176        0.0726  -17.6611  -45.0300 H         1 UNK         0.0600 
    177 H177       -1.4165  -17.5266  -44.1123 H         1 UNK         0.0600 
    178 H178       -1.4201  -18.2806  -45.7046 H         1 UNK         0.0600 
    179 H179       -3.2415  -16.5807  -45.3243 H         1 UNK         0.3000 
    180 H180       -3.6810  -13.8258  -48.3074 H         1 UNK         0.0600 
    181 H181       -1.6585  -12.7429  -46.3382 H         1 UNK         0.0600 
    182 H182       -3.3812  -12.3963  -46.2500 H         1 UNK         0.0600 
    183 H183       -2.4502  -11.9004  -47.6558 H         1 UNK         0.0600 
    184 H184       -0.8391  -14.0098  -48.2000 H         1 UNK         0.3000 
    185 H185       -0.4152  -16.6798  -50.3132 H         1 UNK         0.0600 
    186 H186       -1.5777  -15.5324  -52.1831 H         1 UNK         0.0600 
    187 H187       -0.8954  -13.9854  -51.7029 H         1 UNK         0.0600 
    188 H188        0.1535  -15.2636  -52.3111 H         1 UNK         0.0600 
    189 H189        0.9323  -14.0937  -50.0603 H         1 UNK         0.3000 
    190 H190       -1.5246  -21.9599  -44.8312 H         1 UNK         0.3000 
    191 H191       -3.9217  -21.5693  -46.4590 H         1 UNK         0.0600 
    192 H192       -3.6334  -20.2691  -44.3733 H         1 UNK         0.0600 
    193 H193       -5.0408  -21.3141  -44.2543 H         1 UNK         0.0600 
    194 H194       -3.5566  -21.7508  -43.4225 H         1 UNK         0.0600 
    195 H195       -2.5945  -24.0569  -44.2312 H         1 UNK         0.3000 
    196 H196       -4.7058  -25.9020  -44.3788 H         1 UNK         0.0600 
    197 H197       -3.0463  -27.5036  -43.4583 H         1 UNK         0.0600 
    198 H198       -2.8886  -25.9415  -42.6677 H         1 UNK         0.0600 
    199 H199       -1.7268  -26.4295  -43.9011 H         1 UNK         0.0600 
    200 H200       -1.8760  -25.5393  -46.5279 H         1 UNK         0.3000 
    201 H201       -2.4569  -27.8257  -48.1918 H         1 UNK         0.0600 
    202 H202       -0.7034  -26.7953  -49.6488 H         1 UNK         0.0600 
    203 H203       -0.1804  -26.8471  -47.9746 H         1 UNK         0.0600 
    204 H204       -0.7395  -25.3290  -48.6755 H         1 UNK         0.0600 
    205 H205       -4.0994  -24.8964  -47.8765 H         1 UNK         0.3000 
    206 H206       -5.6615  -23.7970  -48.9228 H         1 UNK         0.0600 
    207 H207       -6.5844  -26.0602  -49.5696 H         1 UNK         0.0600 
    208 H208       -7.0239  -24.7705  -50.6710 H         1 UNK         0.0600 
    209 H209       -5.7694  -25.9098  -51.1272 H         1 UNK         0.0600 
    210 H210       -2.6522  -23.9772  -50.0245 H         1 UNK         0.3000 
    211 H211       -2.6078  -22.8220  -52.5964 H         1 UNK         0.0600 
    212 H212       -0.5374  -22.7060  -50.3331 H         1 UNK         0.0600 
    213 H213       -0.2283  -22.2921  -52.0155 H         1 UNK         0.0600 
    214 H214       -0.6470  -23.9426  -51.5836 H         1 UNK         0.0600 
    215 H215       -2.4207  -21.2939  -49.3532 H         1 UNK         0.3000 
    216 H216       -2.6793  -18.5767  -50.4889 H         1 UNK         0.0600 
    217 H217       -2.6557  -17.9237  -48.0529 H         1 UNK         0.0600 
    218 H218       -1.2347  -18.8258  -48.5420 H         1 UNK         0.0600 
    219 H219       -2.5163  -19.6121  -47.6129 H         1 UNK         0.0600 
    220 H220       -4.6164  -20.8713  -48.5266 H         1 UNK         0.3000 
    221 H221       -6.6566  -19.0286  -47.9336 H         1 UNK         0.0600 
    222 H222       -6.6509  -22.0797  -47.7456 H         1 UNK         0.0600 
    223 H223       -6.2001  -20.9335  -46.4813 H         1 UNK         0.0600 
    224 H224       -7.8614  -21.0338  -47.0225 H         1 UNK         0.0600 
    225 H225       -6.5097  -21.3815  -50.6299 H         1 UNK         0.3000 
    226 H226       -9.2655  -20.5339  -51.4736 H         1 UNK         0.0600 
    227 H227       -9.4413  -22.7030  -52.5647 H         1 UNK         0.0600 
    228 H228       -7.8028  -23.1403  -52.1128 H         1 UNK         0.0600 
    229 H229       -9.0436  -22.9601  -50.8726 H         1 UNK         0.0600 
    230 H230       -6.0573  -21.5928  -52.7636 H         1 UNK         0.3000 
    231 H231       -6.7309  -20.6749  -55.4205 H         1 UNK         0.0600 
    232 H232       -4.1017  -21.7038  -54.2393 H         1 UNK         0.0600 
    233 H233       -4.4254  -21.4707  -55.9517 H         1 UNK         0.0600 
    234 H234       -5.3333  -22.6703  -55.0440 H         1 UNK         0.0600 
    235 H235       -4.9378  -19.2706  -52.7531 H         1 UNK         0.3000 
    236 H236       -3.7038  -17.4720  -52.3866 H         1 UNK         0.0600 
    237 H237       -5.7997  -16.2405  -52.9758 H         1 UNK         0.0600 
    238 H238       -4.3640  -15.3148  -53.3789 H         1 UNK         0.0600 
    239 H239       -5.2654  -16.1276  -54.6533 H         1 UNK         0.0600 
    240 H240       -2.6649  -19.4764  -54.1060 H         1 UNK         0.3000 
    241 H241       -1.2668  -20.0794  -55.6970 H         1 UNK         0.0600 
    242 H242       -3.5897  -18.4042  -56.7704 H         1 UNK         0.3800 
    243 H243       -3.0097  -17.9929  -58.3652 H         1 UNK         0.3800 
    244 H244        0.9130  -18.7455  -55.9135 H         1 UNK         0.0800 
    245 H245        0.2350  -17.5636  -54.8330 H         1 UNK         0.0800 
    246 H246        0.2747  -17.6362  -52.5682 H         1 UNK         0.0800 
    247 H247       -0.4767  -19.0004  -51.7854 H         1 UNK         0.0800 
@<TRIPOS>BOND
     1    1    2 1    
     2    1  127 1    
     3    1  128 1    
     4    1  129 1    
     5    2    3 2    
     6    2    4 am   BACKBONE|DICT|INTERRES
     7    4    5 1    
     8    4  130 1    
     9    5    6 1    
    10    5   65 1    
    11    5  131 1    
    12    6    7 1    
    13    6  132 1    
    14    6  133 1    
    15    7    8 1    
    16    8    9 1    
    17    8  134 1    
    18    8  135 1    
    19    9   10 ar   
    20    9   14 ar   
    21   10   11 ar   
    22   10  136 1    
    23   11   12 ar   
    24   11  126 1    
    25   12   13 ar   
    26   12  137 1    
    27   13   14 ar   
    28   13   15 1    
    29   14  138 1    
    30   15   16 1    
    31   15  139 1    
    32   15  140 1    
    33   16   17 1    
    34   17   18 1    
    35   17  141 1    
    36   17  142 1    
    37   18   19 1    
    38   18   67 1    
    39   18  143 1    
    40   19   20 am   BACKBONE|DICT|INTERRES
    41   19  144 1    
    42   20   21 2    
    43   20   22 1    
    44   22   23 1    
    45   22   24 1    
    46   22  145 1    
    47   23  146 1    
    48   23  147 1    
    49   23  148 1    
    50   24   25 am   BACKBONE|DICT|INTERRES
    51   24  149 1    
    52   25   26 2    
    53   25   27 1    
    54   27   28 1    
    55   27   29 1    
    56   27  150 1    
    57   28  151 1    
    58   28  152 1    
    59   28  153 1    
    60   29   30 am   BACKBONE|DICT|INTERRES
    61   29  154 1    
    62   30   31 2    
    63   30   32 1    
    64   32   33 1    
    65   32   34 1    
    66   32  155 1    
    67   33  156 1    
    68   33  157 1    
    69   33  158 1    
    70   34   35 am   BACKBONE|DICT|INTERRES
    71   34  159 1    
    72   35   36 2    
    73   35   37 1    
    74   37   38 1    
    75   37   39 1    
    76   37  160 1    
    77   38  161 1    
    78   38  162 1    
    79   38  163 1    
    80   39   40 am   BACKBONE|DICT|INTERRES
    81   39  164 1    
    82   40   41 2    
    83   40   42 1    
    84   42   43 1    
    85   42   44 1    
    86   42  165 1    
    87   43  166 1    
    88   43  167 1    
    89   43  168 1    
    90   44   45 am   BACKBONE|DICT|INTERRES
    91   44  169 1    
    92   45   46 2    
    93   45   47 1    
    94   47   48 1    
    95   47   49 1    
    96   47  170 1    
    97   48  171 1    
    98   48  172 1    
    99   48  173 1    
   100   49   50 am   BACKBONE|DICT|INTERRES
   101   49  174 1    
   102   50   51 2    
   103   50   52 1    
   104   52   53 1    
   105   52   54 1    
   106   52  175 1    
   107   53  176 1    
   108   53  177 1    
   109   53  178 1    
   110   54   55 am   BACKBONE|DICT|INTERRES
   111   54  179 1    
   112   55   56 2    
   113   55   57 1    
   114   57   58 1    
   115   57   59 1    
   116   57  180 1    
   117   58  181 1    
   118   58  182 1    
   119   58  183 1    
   120   59   60 am   BACKBONE|DICT|INTERRES
   121   59  184 1    
   122   60   61 2    
   123   60   62 1    
   124   62   63 1    
   125   62   64 1    
   126   62  185 1    
   127   63  186 1    
   128   63  187 1    
   129   63  188 1    
   130   64   65 am   BACKBONE|DICT|INTERRES
   131   64  189 1    
   132   65   66 2    
   133   67   68 2    
   134   67   69 am   BACKBONE|DICT|INTERRES
   135   69   70 1    
   136   69  190 1    
   137   70   71 1    
   138   70   72 1    
   139   70  191 1    
   140   71  192 1    
   141   71  193 1    
   142   71  194 1    
   143   72   73 2    
   144   72   74 am   BACKBONE|DICT|INTERRES
   145   74   75 1    
   146   74  195 1    
   147   75   76 1    
   148   75   77 1    
   149   75  196 1    
   150   76  197 1    
   151   76  198 1    
   152   76  199 1    
   153   77   78 2    
   154   77   79 am   BACKBONE|DICT|INTERRES
   155   79   80 1    
   156   79  200 1    
   157   80   81 1    
   158   80   82 1    
   159   80  201 1    
   160   81  202 1    
   161   81  203 1    
   162   81  204 1    
   163   82   83 2    
   164   82   84 am   BACKBONE|DICT|INTERRES
   165   84   85 1    
   166   84  205 1    
   167   85   86 1    
   168   85   87 1    
   169   85  206 1    
   170   86  207 1    
   171   86  208 1    
   172   86  209 1    
   173   87   88 2    
   174   87   89 am   BACKBONE|DICT|INTERRES
   175   89   90 1    
   176   89  210 1    
   177   90   91 1    
   178   90   92 1    
   179   90  211 1    
   180   91  212 1    
   181   91  213 1    
   182   91  214 1    
   183   92   93 2    
   184   92   94 am   BACKBONE|DICT|INTERRES
   185   94   95 1    
   186   94  215 1    
   187   95   96 1    
   188   95   97 1    
   189   95  216 1    
   190   96  217 1    
   191   96  218 1    
   192   96  219 1    
   193   97   98 2    
   194   97   99 am   BACKBONE|DICT|INTERRES
   195   99  100 1    
   196   99  220 1    
   197  100  101 1    
   198  100  102 1    
   199  100  221 1    
   200  101  222 1    
   201  101  223 1    
   202  101  224 1    
   203  102  103 2    
   204  102  104 am   BACKBONE|DICT|INTERRES
   205  104  105 1    
   206  104  225 1    
   207  105  106 1    
   208  105  107 1    
   209  105  226 1    
   210  106  227 1    
   211  106  228 1    
   212  106  229 1    
   213  107  108 2    
   214  107  109 am   BACKBONE|DICT|INTERRES
   215  109  110 1    
   216  109  230 1    
   217  110  111 1    
   218  110  112 1    
   219  110  231 1    
   220  111  232 1    
   221  111  233 1    
   222  111  234 1    
   223  112  113 2    
   224  112  114 am   BACKBONE|DICT|INTERRES
   225  114  115 1    
   226  114  235 1    
   227  115  116 1    
   228  115  117 1    
   229  115  236 1    
   230  116  237 1    
   231  116  238 1    
   232  116  239 1    
   233  117  118 2    
   234  117  119 am   BACKBONE|DICT|INTERRES
   235  119  120 1    
   236  119  240 1    
   237  120  121 1    
   238  120  124 1    
   239  120  241 1    
   240  121  122 am   BACKBONE|DICT|INTERRES
   241  121  123 2    
   242  122  242 1    
   243  122  243 1    
   244  124  125 1    
   245  124  244 1    
   246  124  245 1    
   247  125  126 1    
   248  126  246 1    
   249  126  247 1    
@<TRIPOS>SUBSTRUCTURE
     1 UNK         1 GROUP             0       ****    0 ROOT    
