@<TRIPOS>MOLECULE
3R540
247   249    1
SMALL
USER_CHARGES


@<TRIPOS>ATOM
      1 CA         -1.1274  -12.3649  -45.7422 C.3       0 UNK        -0.1800 
      2 C          -0.1457  -11.5952  -46.6102 C.2       0 UNK         0.5000 
      3 O          -0.5035  -10.5592  -47.1719 O.2       0 UNK        -0.5000 
      4 N           1.0939  -12.0871  -46.7160 N.am      1 UNK        -0.5000 
      5 CA          2.1794  -11.4642  -47.4782 C.3       1 UNK         0.1400 
      6 C6          3.1692  -12.5162  -48.0370 C.3       23 UNK        -0.0398 
      7 S7          2.4055  -13.5322  -49.3440 S.3       23 UNK        -0.2404 
      8 C8          1.9822  -15.0315  -48.4060 C.3       23 UNK        -0.0205 
      9 C9          1.0489  -15.9386  -49.1899 C.ar      23 UNK        -0.0193 
     10 C10        -0.2579  -15.5241  -49.4649 C.ar      23 UNK        -0.1150 
     11 C11        -1.1347  -16.3587  -50.1611 C.ar      23 UNK        -0.0193 
     12 C12        -0.6988  -17.6197  -50.5758 C.ar      23 UNK        -0.1150 
     13 C13         0.6055  -18.0445  -50.3125 C.ar      23 UNK        -0.0193 
     14 C14         1.4770  -17.1983  -49.6203 C.ar      23 UNK        -0.1150 
     15 C15         1.0750  -19.4111  -50.7892 C.3       23 UNK        -0.0205 
     16 S16         1.1446  -20.6247  -49.4360 S.3       23 UNK        -0.2404 
     17 C17        -0.6195  -20.8174  -49.0170 C.3       23 UNK        -0.0398 
     18 CA         -0.8497  -22.0352  -48.0927 C.3       11 UNK         0.1400 
     19 N          -0.2932  -21.8417  -46.7503 N.am      11 UNK        -0.5000 
     20 C          -0.1876  -22.8108  -45.8303 C.2       10 UNK         0.5000 
     21 O          -0.4985  -23.9830  -46.0376 O.2       10 UNK        -0.5000 
     22 CA          0.2949  -22.3989  -44.4285 C.3       10 UNK         0.1400 
     23 CB          1.8249  -22.2722  -44.3871 C.3       10 UNK        -0.1800 
     24 N          -0.3246  -21.1564  -43.9665 N.am      10 UNK        -0.5000 
     25 C          -1.6358  -21.0074  -43.7295 C.2       9 UNK         0.5000 
     26 O          -2.4515  -21.9248  -43.8195 O.2       9 UNK        -0.5000 
     27 CA         -2.1295  -19.5906  -43.3787 C.3       9 UNK         0.1400 
     28 CB         -1.9067  -19.2841  -41.8908 C.3       9 UNK        -0.1800 
     29 N          -1.5030  -18.5509  -44.1965 N.am      9 UNK        -0.5000 
     30 C          -1.6264  -18.4561  -45.5289 C.2       8 UNK         0.5000 
     31 O          -2.3175  -19.2143  -46.2082 O.2       8 UNK        -0.5000 
     32 CA         -0.7893  -17.3688  -46.2236 C.3       8 UNK         0.1400 
     33 CB         -1.4736  -15.9996  -46.1187 C.3       8 UNK        -0.1800 
     34 N           0.5684  -17.2871  -45.6822 N.am      8 UNK        -0.5000 
     35 C           1.4717  -18.2733  -45.7794 C.2       7 UNK         0.5000 
     36 O           1.2642  -19.3357  -46.3623 O.2       7 UNK        -0.5000 
     37 CA          2.8036  -18.0653  -45.0388 C.3       7 UNK         0.1400 
     38 CB          3.7435  -17.1453  -45.8304 C.3       7 UNK        -0.1800 
     39 N           2.6036  -17.5234  -43.6952 N.am      7 UNK        -0.5000 
     40 C           2.0163  -18.1928  -42.6928 C.2       6 UNK         0.5000 
     41 O           1.6254  -19.3549  -42.7857 O.2       6 UNK        -0.5000 
     42 CA          1.7931  -17.4256  -41.3769 C.3       6 UNK         0.1400 
     43 CB          3.0023  -17.5938  -40.4453 C.3       6 UNK        -0.1800 
     44 N           1.5352  -15.9993  -41.5782 N.am      6 UNK        -0.5000 
     45 C           0.4786  -15.4895  -42.2287 C.2       5 UNK         0.5000 
     46 O          -0.4127  -16.1765  -42.7281 O.2       5 UNK        -0.5000 
     47 CA          0.4452  -13.9575  -42.3837 C.3       5 UNK         0.1400 
     48 CB         -0.2900  -13.3064  -41.2040 C.3       5 UNK        -0.1800 
     49 N           1.7897  -13.3880  -42.4903 N.am      5 UNK        -0.5000 
     50 C           2.5991  -13.5296  -43.5469 C.2       4 UNK         0.5000 
     51 O           2.2420  -14.0228  -44.6204 O.2       4 UNK        -0.5000 
     52 CA          4.0464  -13.0454  -43.3386 C.3       4 UNK         0.1400 
     53 CB          5.0074  -13.4962  -44.4506 C.3       4 UNK        -0.1800 
     54 N           4.1043  -11.5915  -43.1959 N.am      4 UNK        -0.5000 
     55 C           3.8807  -10.9294  -42.0509 C.2       3 UNK         0.5000 
     56 O           3.5866  -11.4919  -40.9946 O.2       3 UNK        -0.5000 
     57 CA          3.9947   -9.3920  -42.0776 C.3       3 UNK         0.1400 
     58 CB          5.3869   -8.9501  -41.6017 C.3       3 UNK        -0.1800 
     59 N           3.7385   -8.8144  -43.3969 N.am      3 UNK        -0.5000 
     60 C           2.5357   -8.7617  -43.9823 C.2       2 UNK         0.5000 
     61 O           1.4976   -9.1506  -43.4446 O.2       2 UNK        -0.5000 
     62 CA          2.4722   -8.2169  -45.4232 C.3       2 UNK         0.1400 
     63 CB          3.7339   -7.4461  -45.8748 C.3       2 UNK        -0.1800 
     64 N           2.1519   -9.2965  -46.3592 N.am      2 UNK        -0.5000 
     65 C           2.8590  -10.4144  -46.5793 C.2       1 UNK         0.5000 
     66 O           3.9538  -10.6488  -46.0640 O.2       1 UNK        -0.5000 
     67 C          -2.3401  -22.4275  -48.0417 C.2       11 UNK         0.5000 
     68 O          -2.7419  -23.3458  -48.7544 O.2       11 UNK        -0.5000 
     69 N          -3.1319  -21.7613  -47.1878 N.am      12 UNK        -0.5000 
     70 CA         -4.5340  -22.0930  -46.9166 C.3       12 UNK         0.1400 
     71 CB         -5.1453  -21.0578  -45.9615 C.3       12 UNK        -0.1800 
     72 C          -4.7138  -23.5254  -46.3838 C.2       12 UNK         0.5000 
     73 O          -5.5470  -24.2629  -46.9133 O.2       12 UNK        -0.5000 
     74 N          -3.8899  -23.9058  -45.3959 N.am      13 UNK        -0.5000 
     75 CA         -3.8328  -25.2520  -44.8212 C.3       13 UNK         0.1400 
     76 CB         -2.8767  -25.2599  -43.6194 C.3       13 UNK        -0.1800 
     77 C          -3.4357  -26.3332  -45.8448 C.2       13 UNK         0.5000 
     78 O          -3.9964  -27.4290  -45.8161 O.2       13 UNK        -0.5000 
     79 N          -2.5324  -25.9925  -46.7736 N.am      14 UNK        -0.5000 
     80 CA         -2.1114  -26.8121  -47.9138 C.3       14 UNK         0.1400 
     81 CB         -0.7207  -26.3413  -48.3762 C.3       14 UNK        -0.1800 
     82 C          -3.1419  -26.8181  -49.0678 C.2       14 UNK         0.5000 
     83 O          -2.7604  -26.7225  -50.2362 O.2       14 UNK        -0.5000 
     84 N          -4.4329  -26.9279  -48.7221 N.am      15 UNK        -0.5000 
     85 CA         -5.5987  -26.9948  -49.6083 C.3       15 UNK         0.1400 
     86 CB         -5.6368  -28.3594  -50.3275 C.3       15 UNK        -0.1800 
     87 C          -5.6891  -25.8039  -50.5843 C.2       15 UNK         0.5000 
     88 O          -5.9348  -26.0027  -51.7743 O.2       15 UNK        -0.5000 
     89 N          -5.4524  -24.5892  -50.0684 N.am      16 UNK        -0.5000 
     90 CA         -5.4035  -23.3246  -50.8138 C.3       16 UNK         0.1400 
     91 CB         -6.8024  -22.9613  -51.3508 C.3       16 UNK        -0.1800 
     92 C          -4.3032  -23.3206  -51.8997 C.2       16 UNK         0.5000 
     93 O          -4.5505  -22.9408  -53.0464 O.2       16 UNK        -0.5000 
     94 N          -3.1112  -23.7940  -51.5095 N.am      17 UNK        -0.5000 
     95 CA         -1.9298  -24.0675  -52.3348 C.3       17 UNK         0.1400 
     96 CB         -1.3126  -22.7539  -52.8558 C.3       17 UNK        -0.1800 
     97 C          -2.2242  -25.0823  -53.4598 C.2       17 UNK         0.5000 
     98 O          -1.7934  -24.8866  -54.5960 O.2       17 UNK        -0.5000 
     99 N          -2.9836  -26.1337  -53.1184 N.am      18 UNK        -0.5000 
    100 CA        -3.5848  -27.1215  -54.0215 C.3       18 UNK         0.1400 
    101 CB        -2.5028  -28.0139  -54.6644 C.3       18 UNK        -0.1800 
    102 C         -4.5313  -26.4615  -55.0501 C.2       18 UNK         0.5000 
    103 O         -4.4253  -26.7160  -56.2515 O.2       18 UNK        -0.5000 
    104 N         -5.4340  -25.6148  -54.5339 N.am      19 UNK        -0.5000 
    105 CA        -6.4351  -24.8103  -55.2390 C.3       19 UNK         0.1400 
    106 CB        -7.5451  -25.7187  -55.8070 C.3       19 UNK        -0.1800 
    107 C         -5.8221  -23.8647  -56.2943 C.2       19 UNK         0.5000 
    108 O         -6.2713  -23.8487  -57.4429 O.2       19 UNK        -0.5000 
    109 N         -4.7995  -23.1017  -55.8877 N.am      20 UNK        -0.5000 
    110 CA        -4.0504  -22.1899  -56.7568 C.3       20 UNK         0.1400 
    111 CB        -2.7229  -22.8523  -57.1602 C.3       20 UNK        -0.1800 
    112 C         -3.7969  -20.8059  -56.1322 C.2       20 UNK         0.5000 
    113 O         -3.3441  -19.9138  -56.8522 O.2       20 UNK        -0.5000 
    114 N         -4.0755  -20.6230  -54.8353 N.am      21 UNK        -0.5000 
    115 CA        -3.8790  -19.3622  -54.1191 C.3       21 UNK         0.1400 
    116 CB        -2.4256  -19.2706  -53.6100 C.3       21 UNK        -0.1800 
    117 C         -4.9206  -19.2285  -52.9951 C.2       21 UNK         0.5000 
    118 O         -5.9430  -19.9149  -53.0260 O.2       21 UNK        -0.5000 
    119 N         -4.6595  -18.3360  -52.0307 N.am      22 UNK        -0.5000 
    120 CA        -5.4980  -18.1395  -50.8350 C.3       22 UNK         0.1400 
    121 C         -5.4026  -19.2949  -49.7944 C.2       22 UNK         0.5000 
    122 N         -4.3127  -20.0532  -49.7693 N.am      22 UNK        -0.7600 
    123 O         -6.3194  -19.4982  -49.0046 O.2       22 UNK        -0.5000 
    124 C124       -5.2577  -16.7466  -50.1867 C.3       23 UNK        -0.0398 
    125 S125       -3.7025  -16.5938  -49.2330 S.3       23 UNK        -0.2404 
    126 C126       -2.5544  -15.9092  -50.4609 C.3       23 UNK        -0.0205 
    127 H127       -1.3968  -11.7772  -44.8646 H         1 UNK         0.0600 
    128 H128       -0.6991  -13.3066  -45.4065 H         1 UNK         0.0600 
    129 H129       -2.0354  -12.5865  -46.3030 H         1 UNK         0.0600 
    130 H130        1.3603  -12.8953  -46.1642 H         1 UNK         0.3000 
    131 H131        1.7634  -10.9269  -48.3337 H         1 UNK         0.0600 
    132 H132        3.5440  -13.1646  -47.2459 H         1 UNK         0.0800 
    133 H133        4.0418  -12.0269  -48.4731 H         1 UNK         0.0800 
    134 H134        2.9051  -15.5538  -48.1545 H         1 UNK         0.0800 
    135 H135        1.5049  -14.7652  -47.4625 H         1 UNK         0.0800 
    136 H136       -0.5911  -14.5511  -49.1317 H         1 UNK         0.1150 
    137 H137       -1.3784  -18.2744  -51.0986 H         1 UNK         0.1150 
    138 H138        2.4841  -17.5289  -49.4087 H         1 UNK         0.1150 
    139 H139        0.4308  -19.7886  -51.5849 H         1 UNK         0.0800 
    140 H140        2.0703  -19.3157  -51.2255 H         1 UNK         0.0800 
    141 H141       -1.1746  -20.9289  -49.9492 H         1 UNK         0.0800 
    142 H142       -0.9784  -19.8997  -48.5479 H         1 UNK         0.0800 
    143 H143       -0.3274  -22.8863  -48.5350 H         1 UNK         0.0600 
    144 H144        0.0440  -20.9096  -46.5271 H         1 UNK         0.3000 
    145 H145        0.0056  -23.1906  -43.7344 H         1 UNK         0.0600 
    146 H146        2.3015  -23.1983  -44.7107 H         1 UNK         0.0600 
    147 H147        2.1833  -21.4743  -45.0372 H         1 UNK         0.0600 
    148 H148        2.1750  -22.0623  -43.3764 H         1 UNK         0.0600 
    149 H149        0.2972  -20.3688  -43.8118 H         1 UNK         0.3000 
    150 H150       -3.2033  -19.5563  -43.5726 H         1 UNK         0.0600 
    151 H151       -2.4323  -20.0048  -41.2632 H         1 UNK         0.0600 
    152 H152       -2.2781  -18.2925  -41.6309 H         1 UNK         0.0600 
    153 H153       -0.8514  -19.3275  -41.6240 H         1 UNK         0.0600 
    154 H154       -0.9470  -17.8552  -43.7096 H         1 UNK         0.3000 
    155 H155       -0.7167  -17.6323  -47.2810 H         1 UNK         0.0600 
    156 H156       -0.9335  -15.2500  -46.6943 H         1 UNK         0.0600 
    157 H157       -1.5393  -15.6541  -45.0872 H         1 UNK         0.0600 
    158 H158       -2.4889  -16.0403  -46.5137 H         1 UNK         0.0600 
    159 H159        0.8008  -16.4628  -45.1479 H         1 UNK         0.3000 
    160 H160        3.2860  -19.0407  -44.9448 H         1 UNK         0.0600 
    161 H161        3.3523  -16.1305  -45.8961 H         1 UNK         0.0600 
    162 H162        3.8852  -17.5136  -46.8473 H         1 UNK         0.0600 
    163 H163        4.7273  -17.0940  -45.3640 H         1 UNK         0.0600 
    164 H164        2.8764  -16.5645  -43.5434 H         1 UNK         0.3000 
    165 H165        0.9197  -17.8568  -40.8844 H         1 UNK         0.0600 
    166 H166        2.8243  -17.1228  -39.4784 H         1 UNK         0.0600 
    167 H167        3.2066  -18.6489  -40.2582 H         1 UNK         0.0600 
    168 H168        3.9052  -17.1553  -40.8724 H         1 UNK         0.0600 
    169 H169        2.2135  -15.3592  -41.1934 H         1 UNK         0.3000 
    170 H170       -0.1056  -13.7280  -43.2947 H         1 UNK         0.0600 
    171 H171       -1.3035  -13.6991  -41.1114 H         1 UNK         0.0600 
    172 H172        0.2218  -13.4890  -40.2582 H         1 UNK         0.0600 
    173 H173       -0.3709  -12.2276  -41.3390 H         1 UNK         0.0600 
    174 H174        2.1550  -12.9077  -41.6753 H         1 UNK         0.3000 
    175 H175        4.4034  -13.5080  -42.4159 H         1 UNK         0.0600 
    176 H176        6.0378  -13.2431  -44.2009 H         1 UNK         0.0600 
    177 H177        4.9658  -14.5762  -44.5935 H         1 UNK         0.0600 
    178 H178        4.7772  -13.0278  -45.4038 H         1 UNK         0.0600 
    179 H179        4.2647  -11.0654  -44.0485 H         1 UNK         0.3000 
    180 H180        3.2545   -8.9954  -41.3794 H         1 UNK         0.0600 
    181 H181        6.1724   -9.3052  -42.2700 H         1 UNK         0.0600 
    182 H182        5.6016   -9.3405  -40.6060 H         1 UNK         0.0600 
    183 H183        5.4584   -7.8637  -41.5454 H         1 UNK         0.0600 
    184 H184        4.5426   -8.4981  -43.9195 H         1 UNK         0.3000 
    185 H185        1.6334   -7.5199  -45.4510 H         1 UNK         0.0600 
    186 H186        3.9457   -6.6143  -45.2017 H         1 UNK         0.0600 
    187 H187        4.6222   -8.0770  -45.9128 H         1 UNK         0.0600 
    188 H188        3.5920   -7.0231  -46.8693 H         1 UNK         0.0600 
    189 H189        1.2239   -9.2570  -46.7653 H         1 UNK         0.3000 
    190 H190       -2.7435  -20.9765  -46.6677 H         1 UNK         0.3000 
    191 H191       -5.0819  -22.0298  -47.8564 H         1 UNK         0.0600 
    192 H192       -5.0741  -20.0515  -46.3756 H         1 UNK         0.0600 
    193 H193       -6.2024  -21.2636  -45.7901 H         1 UNK         0.0600 
    194 H194       -4.6504  -21.0551  -44.9915 H         1 UNK         0.0600 
    195 H195       -3.2571  -23.2170  -44.9967 H         1 UNK         0.3000 
    196 H196       -4.8335  -25.4955  -44.4589 H         1 UNK         0.0600 
    197 H197       -2.8416  -26.2457  -43.1541 H         1 UNK         0.0600 
    198 H198       -3.1975  -24.5509  -42.8560 H         1 UNK         0.0600 
    199 H199       -1.8597  -24.9981  -43.9116 H         1 UNK         0.0600 
    200 H200       -2.0954  -25.0797  -46.7009 H         1 UNK         0.3000 
    201 H201       -2.0130  -27.8454  -47.5760 H         1 UNK         0.0600 
    202 H202       -0.0025  -26.3669  -47.5565 H         1 UNK         0.0600 
    203 H203       -0.7518  -25.3223  -48.7620 H         1 UNK         0.0600 
    204 H204       -0.3303  -26.9818  -49.1678 H         1 UNK         0.0600 
    205 H205       -4.6313  -27.0005  -47.7307 H         1 UNK         0.3000 
    206 H206       -6.4792  -26.9310  -48.9675 H         1 UNK         0.0600 
    207 H207       -5.6160  -29.1817  -49.6124 H         1 UNK         0.0600 
    208 H208       -6.5479  -28.4674  -50.9173 H         1 UNK         0.0600 
    209 H209       -4.7910  -28.4837  -51.0044 H         1 UNK         0.0600 
    210 H210       -5.2382  -24.5312  -49.0792 H         1 UNK         0.3000 
    211 H211       -5.1228  -22.5600  -50.0947 H         1 UNK         0.0600 
    212 H212       -7.1390  -23.6534  -52.1220 H         1 UNK         0.0600 
    213 H213       -6.8064  -21.9632  -51.7845 H         1 UNK         0.0600 
    214 H214       -7.5425  -22.9649  -50.5509 H         1 UNK         0.0600 
    215 H215       -3.0133  -24.0320  -50.5259 H         1 UNK         0.3000 
    216 H216       -1.2001  -24.5405  -51.6760 H         1 UNK         0.0600 
    217 H217       -0.3630  -22.9414  -53.3577 H         1 UNK         0.0600 
    218 H218       -1.1144  -22.0597  -52.0409 H         1 UNK         0.0600 
    219 H219       -1.9665  -22.2588  -53.5734 H         1 UNK         0.0600 
    220 H220       -3.2290  -26.2284  -52.1373 H         1 UNK         0.3000 
    221 H221       -4.2100  -27.7627  -53.3987 H         1 UNK         0.0600 
    222 H222       -1.8598  -27.4520  -55.3423 H         1 UNK         0.0600 
    223 H223       -1.8700  -28.4732  -53.9050 H         1 UNK         0.0600 
    224 H224       -2.9570  -28.8209  -55.2402 H         1 UNK         0.0600 
    225 H225       -5.4577  -25.5312  -53.5200 H         1 UNK         0.3000 
    226 H226       -6.8923  -24.1664  -54.4871 H         1 UNK         0.0600 
    227 H227       -7.9848  -26.3371  -55.0245 H         1 UNK         0.0600 
    228 H228       -8.3507  -25.1265  -56.2425 H         1 UNK         0.0600 
    229 H229       -7.1670  -26.3818  -56.5857 H         1 UNK         0.0600 
    230 H230       -4.5087  -23.1621  -54.9147 H         1 UNK         0.3000 
    231 H231       -4.6198  -21.9995  -57.6686 H         1 UNK         0.0600 
    232 H232       -2.0510  -22.9476  -56.3076 H         1 UNK         0.0600 
    233 H233       -2.2056  -22.2618  -57.9171 H         1 UNK         0.0600 
    234 H234       -2.8836  -23.8474  -57.5758 H         1 UNK         0.0600 
    235 H235       -4.4902  -21.3695  -54.2850 H         1 UNK         0.3000 
    236 H236       -4.0623  -18.5315  -54.8036 H         1 UNK         0.0600 
    237 H237       -1.7109  -19.5250  -54.3928 H         1 UNK         0.0600 
    238 H238       -2.1865  -18.2573  -53.2880 H         1 UNK         0.0600 
    239 H239       -2.2503  -19.9429  -52.7702 H         1 UNK         0.0600 
    240 H240       -3.8118  -17.7939  -52.0767 H         1 UNK         0.3000 
    241 H241       -6.5346  -18.1408  -51.1785 H         1 UNK         0.0600 
    242 H242       -4.2199  -20.7454  -49.0469 H         1 UNK         0.3800 
    243 H243       -3.5572  -19.8637  -50.4036 H         1 UNK         0.3800 
    244 H244       -5.3018  -15.9623  -50.9435 H         1 UNK         0.0800 
    245 H245       -6.0762  -16.5278  -49.4990 H         1 UNK         0.0800 
    246 H246       -2.6261  -14.8205  -50.4526 H         1 UNK         0.0800 
    247 H247       -2.8301  -16.2267  -51.4662 H         1 UNK         0.0800 
@<TRIPOS>BOND
     1    1    2 1    
     2    1  127 1    
     3    1  128 1    
     4    1  129 1    
     5    2    3 2    
     6    2    4 am   BACKBONE|DICT|INTERRES
     7    4    5 1    
     8    4  130 1    
     9    5    6 1    
    10    5   65 1    
    11    5  131 1    
    12    6    7 1    
    13    6  132 1    
    14    6  133 1    
    15    7    8 1    
    16    8    9 1    
    17    8  134 1    
    18    8  135 1    
    19    9   10 ar   
    20    9   14 ar   
    21   10   11 ar   
    22   10  136 1    
    23   11   12 ar   
    24   11  126 1    
    25   12   13 ar   
    26   12  137 1    
    27   13   14 ar   
    28   13   15 1    
    29   14  138 1    
    30   15   16 1    
    31   15  139 1    
    32   15  140 1    
    33   16   17 1    
    34   17   18 1    
    35   17  141 1    
    36   17  142 1    
    37   18   19 1    
    38   18   67 1    
    39   18  143 1    
    40   19   20 am   BACKBONE|DICT|INTERRES
    41   19  144 1    
    42   20   21 2    
    43   20   22 1    
    44   22   23 1    
    45   22   24 1    
    46   22  145 1    
    47   23  146 1    
    48   23  147 1    
    49   23  148 1    
    50   24   25 am   BACKBONE|DICT|INTERRES
    51   24  149 1    
    52   25   26 2    
    53   25   27 1    
    54   27   28 1    
    55   27   29 1    
    56   27  150 1    
    57   28  151 1    
    58   28  152 1    
    59   28  153 1    
    60   29   30 am   BACKBONE|DICT|INTERRES
    61   29  154 1    
    62   30   31 2    
    63   30   32 1    
    64   32   33 1    
    65   32   34 1    
    66   32  155 1    
    67   33  156 1    
    68   33  157 1    
    69   33  158 1    
    70   34   35 am   BACKBONE|DICT|INTERRES
    71   34  159 1    
    72   35   36 2    
    73   35   37 1    
    74   37   38 1    
    75   37   39 1    
    76   37  160 1    
    77   38  161 1    
    78   38  162 1    
    79   38  163 1    
    80   39   40 am   BACKBONE|DICT|INTERRES
    81   39  164 1    
    82   40   41 2    
    83   40   42 1    
    84   42   43 1    
    85   42   44 1    
    86   42  165 1    
    87   43  166 1    
    88   43  167 1    
    89   43  168 1    
    90   44   45 am   BACKBONE|DICT|INTERRES
    91   44  169 1    
    92   45   46 2    
    93   45   47 1    
    94   47   48 1    
    95   47   49 1    
    96   47  170 1    
    97   48  171 1    
    98   48  172 1    
    99   48  173 1    
   100   49   50 am   BACKBONE|DICT|INTERRES
   101   49  174 1    
   102   50   51 2    
   103   50   52 1    
   104   52   53 1    
   105   52   54 1    
   106   52  175 1    
   107   53  176 1    
   108   53  177 1    
   109   53  178 1    
   110   54   55 am   BACKBONE|DICT|INTERRES
   111   54  179 1    
   112   55   56 2    
   113   55   57 1    
   114   57   58 1    
   115   57   59 1    
   116   57  180 1    
   117   58  181 1    
   118   58  182 1    
   119   58  183 1    
   120   59   60 am   BACKBONE|DICT|INTERRES
   121   59  184 1    
   122   60   61 2    
   123   60   62 1    
   124   62   63 1    
   125   62   64 1    
   126   62  185 1    
   127   63  186 1    
   128   63  187 1    
   129   63  188 1    
   130   64   65 am   BACKBONE|DICT|INTERRES
   131   64  189 1    
   132   65   66 2    
   133   67   68 2    
   134   67   69 am   BACKBONE|DICT|INTERRES
   135   69   70 1    
   136   69  190 1    
   137   70   71 1    
   138   70   72 1    
   139   70  191 1    
   140   71  192 1    
   141   71  193 1    
   142   71  194 1    
   143   72   73 2    
   144   72   74 am   BACKBONE|DICT|INTERRES
   145   74   75 1    
   146   74  195 1    
   147   75   76 1    
   148   75   77 1    
   149   75  196 1    
   150   76  197 1    
   151   76  198 1    
   152   76  199 1    
   153   77   78 2    
   154   77   79 am   BACKBONE|DICT|INTERRES
   155   79   80 1    
   156   79  200 1    
   157   80   81 1    
   158   80   82 1    
   159   80  201 1    
   160   81  202 1    
   161   81  203 1    
   162   81  204 1    
   163   82   83 2    
   164   82   84 am   BACKBONE|DICT|INTERRES
   165   84   85 1    
   166   84  205 1    
   167   85   86 1    
   168   85   87 1    
   169   85  206 1    
   170   86  207 1    
   171   86  208 1    
   172   86  209 1    
   173   87   88 2    
   174   87   89 am   BACKBONE|DICT|INTERRES
   175   89   90 1    
   176   89  210 1    
   177   90   91 1    
   178   90   92 1    
   179   90  211 1    
   180   91  212 1    
   181   91  213 1    
   182   91  214 1    
   183   92   93 2    
   184   92   94 am   BACKBONE|DICT|INTERRES
   185   94   95 1    
   186   94  215 1    
   187   95   96 1    
   188   95   97 1    
   189   95  216 1    
   190   96  217 1    
   191   96  218 1    
   192   96  219 1    
   193   97   98 2    
   194   97   99 am   BACKBONE|DICT|INTERRES
   195   99  100 1    
   196   99  220 1    
   197  100  101 1    
   198  100  102 1    
   199  100  221 1    
   200  101  222 1    
   201  101  223 1    
   202  101  224 1    
   203  102  103 2    
   204  102  104 am   BACKBONE|DICT|INTERRES
   205  104  105 1    
   206  104  225 1    
   207  105  106 1    
   208  105  107 1    
   209  105  226 1    
   210  106  227 1    
   211  106  228 1    
   212  106  229 1    
   213  107  108 2    
   214  107  109 am   BACKBONE|DICT|INTERRES
   215  109  110 1    
   216  109  230 1    
   217  110  111 1    
   218  110  112 1    
   219  110  231 1    
   220  111  232 1    
   221  111  233 1    
   222  111  234 1    
   223  112  113 2    
   224  112  114 am   BACKBONE|DICT|INTERRES
   225  114  115 1    
   226  114  235 1    
   227  115  116 1    
   228  115  117 1    
   229  115  236 1    
   230  116  237 1    
   231  116  238 1    
   232  116  239 1    
   233  117  118 2    
   234  117  119 am   BACKBONE|DICT|INTERRES
   235  119  120 1    
   236  119  240 1    
   237  120  121 1    
   238  120  124 1    
   239  120  241 1    
   240  121  122 am   BACKBONE|DICT|INTERRES
   241  121  123 2    
   242  122  242 1    
   243  122  243 1    
   244  124  125 1    
   245  124  244 1    
   246  124  245 1    
   247  125  126 1    
   248  126  246 1    
   249  126  247 1    
@<TRIPOS>SUBSTRUCTURE
     1 UNK         1 GROUP             0       ****    0 ROOT    
