@<TRIPOS>MOLECULE
3R540
247   249    1
SMALL
USER_CHARGES


@<TRIPOS>ATOM
      1 CA         -2.8519  -13.8355  -51.5878 C.3       0 UNK        -0.1800 
      2 C          -3.3769  -15.1922  -51.1417 C.2       0 UNK         0.5000 
      3 O          -4.5380  -15.5123  -51.3953 O.2       0 UNK        -0.5000 
      4 N          -2.5164  -15.9971  -50.5033 N.am      1 UNK        -0.5000 
      5 CA         -2.8228  -17.3281  -49.9640 C.3       1 UNK         0.1400 
      6 C6         -3.3434  -18.3074  -51.0515 C.3       23 UNK        -0.0398 
      7 S7         -2.8810  -20.0425  -50.7536 S.3       23 UNK        -0.2404 
      8 C8         -1.5538  -20.3010  -51.9812 C.3       23 UNK        -0.0205 
      9 C9         -0.2135  -19.7442  -51.5179 C.ar      23 UNK        -0.0193 
     10 C10         0.0148  -18.3668  -51.5003 C.ar      23 UNK        -0.1150 
     11 C11         1.2198  -17.8434  -51.0274 C.ar      23 UNK        -0.0193 
     12 C12         2.2315  -18.7182  -50.6227 C.ar      23 UNK        -0.1150 
     13 C13         2.0389  -20.1030  -50.6743 C.ar      23 UNK        -0.0193 
     14 C14         0.8089  -20.6072  -51.1154 C.ar      23 UNK        -0.1150 
     15 C15         3.1818  -21.0359  -50.2840 C.3       23 UNK        -0.0205 
     16 S16         2.6624  -22.4849  -49.3085 S.3       23 UNK        -0.2404 
     17 C17         2.1686  -21.7030  -47.7387 C.3       23 UNK        -0.0398 
     18 CA          1.2413  -22.6240  -46.9105 C.3       11 UNK         0.1400 
     19 N           1.3790  -22.3891  -45.4721 N.am      11 UNK        -0.5000 
     20 C           0.8986  -23.2072  -44.5254 C.2       10 UNK         0.5000 
     21 O           0.3189  -24.2674  -44.7657 O.2       10 UNK        -0.5000 
     22 CA          1.0576  -22.7402  -43.0669 C.3       10 UNK         0.1400 
     23 CB          2.4777  -23.0184  -42.5522 C.3       10 UNK        -0.1800 
     24 N           0.7437  -21.3214  -42.8940 N.am      10 UNK        -0.5000 
     25 C          -0.4648  -20.7832  -43.1120 C.2       9 UNK         0.5000 
     26 O          -1.4540  -21.4316  -43.4495 O.2       9 UNK        -0.5000 
     27 CA         -0.5783  -19.2576  -42.9668 C.3       9 UNK         0.1400 
     28 CB         -0.6296  -18.8688  -41.4799 C.3       9 UNK        -0.1800 
     29 N           0.5175  -18.5486  -43.6283 N.am      9 UNK        -0.5000 
     30 C           0.7992  -18.6034  -44.9387 C.2       8 UNK         0.5000 
     31 O           0.1414  -19.2408  -45.7555 O.2       8 UNK        -0.5000 
     32 CA          2.0741  -17.8863  -45.4104 C.3       8 UNK         0.1400 
     33 CB          1.8253  -16.3851  -45.6186 C.3       8 UNK        -0.1800 
     34 N           3.1847  -18.0885  -44.4810 N.am      8 UNK        -0.5000 
     35 C           3.7790  -19.2708  -44.2627 C.2       7 UNK         0.5000 
     36 O           3.4747  -20.3101  -44.8492 O.2       7 UNK        -0.5000 
     37 CA          4.8657  -19.2996  -43.1734 C.3       7 UNK         0.1400 
     38 CB          6.2109  -18.8157  -43.7347 C.3       7 UNK        -0.1800 
     39 N           4.5033  -18.4896  -42.0089 N.am      7 UNK        -0.5000 
     40 C           3.5102  -18.7941  -41.1615 C.2       6 UNK         0.5000 
     41 O           2.8223  -19.8115  -41.2533 O.2       6 UNK        -0.5000 
     42 CA          3.2059  -17.7605  -40.0586 C.3       6 UNK         0.1400 
     43 CB          4.1462  -17.9548  -38.8598 C.3       6 UNK        -0.1800 
     44 N           3.2834  -16.3686  -40.5215 N.am      6 UNK        -0.5000 
     45 C           2.5018  -15.8530  -41.4783 C.2       5 UNK         0.5000 
     46 O           1.6562  -16.5125  -42.0888 O.2       5 UNK        -0.5000 
     47 CA          2.7070  -14.3755  -41.8454 C.3       5 UNK         0.1400 
     48 CB          4.0221  -14.1735  -42.6197 C.3       5 UNK        -0.1800 
     49 N           1.5766  -13.9905  -42.6790 N.am      5 UNK        -0.5000 
     50 C           1.1225  -12.7641  -42.9484 C.2       4 UNK         0.5000 
     51 O           1.6486  -11.7304  -42.5347 O.2       4 UNK        -0.5000 
     52 CA         -0.1410  -12.6854  -43.8329 C.3       4 UNK         0.1400 
     53 CB          0.2417  -12.3606  -45.2850 C.3       4 UNK        -0.1800 
     54 N          -0.9239  -13.9259  -43.8241 N.am      4 UNK        -0.5000 
     55 C          -1.6773  -14.3581  -42.8064 C.2       3 UNK         0.5000 
     56 O          -1.8751  -13.6984  -41.7847 O.2       3 UNK        -0.5000 
     57 CA         -2.2929  -15.7672  -42.9593 C.3       3 UNK         0.1400 
     58 CB         -3.0726  -16.2141  -41.7093 C.3       3 UNK        -0.1800 
     59 N          -3.1670  -15.9083  -44.1259 N.am      3 UNK        -0.5000 
     60 C          -2.7675  -15.9901  -45.3999 C.2       2 UNK         0.5000 
     61 O          -1.5873  -15.8999  -45.7523 O.2       2 UNK        -0.5000 
     62 CA         -3.8705  -16.1972  -46.4498 C.3       2 UNK         0.1400 
     63 CB         -4.7811  -14.9624  -46.5709 C.3       2 UNK        -0.1800 
     64 N          -3.2375  -16.4574  -47.7348 N.am      2 UNK        -0.5000 
     65 C          -3.7319  -17.2081  -48.7230 C.2       1 UNK         0.5000 
     66 O          -4.8369  -17.7535  -48.6858 O.2       1 UNK        -0.5000 
     67 C          -0.2315  -22.5381  -47.3664 C.2       11 UNK         0.5000 
     68 O          -0.6939  -23.4129  -48.0994 O.2       11 UNK        -0.5000 
     69 N          -0.9595  -21.5251  -46.8746 N.am      12 UNK        -0.5000 
     70 CA         -2.3869  -21.3297  -47.1142 C.3       12 UNK         0.1400 
     71 CB         -2.8496  -19.9891  -46.5266 C.3       12 UNK        -0.1800 
     72 C          -3.2403  -22.4853  -46.5758 C.2       12 UNK         0.5000 
     73 O          -4.1311  -22.9420  -47.2856 O.2       12 UNK        -0.5000 
     74 N          -2.9309  -22.9762  -45.3679 N.am      13 UNK        -0.5000 
     75 CA         -3.5898  -24.1302  -44.7525 C.3       13 UNK         0.1400 
     76 CB         -3.0637  -24.3263  -43.3229 C.3       13 UNK        -0.1800 
     77 C          -3.4380  -25.4248  -45.5742 C.2       13 UNK         0.5000 
     78 O          -4.3997  -26.1861  -45.6831 O.2       13 UNK        -0.5000 
     79 N          -2.2544  -25.6307  -46.1689 N.am      14 UNK        -0.5000 
     80 CA         -1.9727  -26.7434  -47.0771 C.3       14 UNK         0.1400 
     81 CB         -0.4539  -26.8717  -47.2708 C.3       14 UNK        -0.1800 
     82 C          -2.6920  -26.5987  -48.4334 C.2       14 UNK         0.5000 
     83 O          -3.1914  -27.5903  -48.9660 O.2       14 UNK        -0.5000 
     84 N          -2.7430  -25.3680  -48.9595 N.am      15 UNK        -0.5000 
     85 CA         -3.3776  -25.0193  -50.2339 C.3       15 UNK         0.1400 
     86 CB         -2.7706  -23.6975  -50.7256 C.3       15 UNK        -0.1800 
     87 C          -4.9166  -24.9077  -50.1695 C.2       15 UNK         0.5000 
     88 O          -5.5512  -24.8256  -51.2213 O.2       15 UNK        -0.5000 
     89 N          -5.4788  -24.8809  -48.9526 N.am      16 UNK        -0.5000 
     90 CA         -6.8872  -24.6435  -48.6051 C.3       16 UNK         0.1400 
     91 CB         -7.8263  -25.6728  -49.2688 C.3       16 UNK        -0.1800 
     92 C          -7.3427  -23.1788  -48.8113 C.2       16 UNK         0.5000 
     93 O          -8.5459  -22.9200  -48.8725 O.2       16 UNK        -0.5000 
     94 N          -6.3669  -22.2591  -48.8401 N.am      17 UNK        -0.5000 
     95 CA         -6.4451  -20.7956  -48.8754 C.3       17 UNK         0.1400 
     96 CB         -7.0998  -20.2728  -47.5809 C.3       17 UNK        -0.1800 
     97 C          -7.1123  -20.1854  -50.1270 C.2       17 UNK         0.5000 
     98 O          -7.7698  -20.8735  -50.9087 O.2       17 UNK        -0.5000 
     99 N          -6.9050  -18.8701  -50.2870 N.am      18 UNK        -0.5000 
    100 CA        -7.4968  -17.9592  -51.2787 C.3       18 UNK         0.1400 
    101 CB        -9.0189  -17.8474  -51.0561 C.3       18 UNK        -0.1800 
    102 C         -7.1519  -18.2524  -52.7573 C.2       18 UNK         0.5000 
    103 O         -7.7331  -17.6304  -53.6477 O.2       18 UNK        -0.5000 
    104 N         -6.2120  -19.1731  -53.0070 N.am      19 UNK        -0.5000 
    105 CA        -5.7959  -19.6105  -54.3407 C.3       19 UNK         0.1400 
    106 CB        -5.0313  -20.9364  -54.1980 C.3       19 UNK        -0.1800 
    107 C         -4.9405  -18.5793  -55.1049 C.2       19 UNK         0.5000 
    108 O         -4.8631  -18.6608  -56.3318 O.2       19 UNK        -0.5000 
    109 N         -4.3070  -17.6512  -54.3700 N.am      20 UNK        -0.5000 
    110 CA        -3.3059  -16.6805  -54.8308 C.3       20 UNK         0.1400 
    111 CB        -3.9656  -15.6072  -55.7238 C.3       20 UNK        -0.1800 
    112 C         -2.0758  -17.3639  -55.4761 C.2       20 UNK         0.5000 
    113 O         -1.7703  -18.5058  -55.1282 O.2       20 UNK        -0.5000 
    114 N         -1.3877  -16.6549  -56.3850 N.am      21 UNK        -0.5000 
    115 CA        -0.2471  -17.1207  -57.1872 C.3       21 UNK         0.1400 
    116 CB        -0.7234  -18.1383  -58.2454 C.3       21 UNK        -0.1800 
    117 C          0.9290  -17.6447  -56.3330 C.2       21 UNK         0.5000 
    118 O          1.4083  -18.7599  -56.5496 O.2       21 UNK        -0.5000 
    119 N          1.3455  -16.8254  -55.3589 N.am      22 UNK        -0.5000 
    120 CA         2.4326  -17.0981  -54.4042 C.3       22 UNK         0.1400 
    121 C          3.7915  -17.4376  -55.0812 C.2       22 UNK         0.5000 
    122 N          4.5274  -18.4097  -54.5593 N.am      22 UNK        -0.7600 
    123 O          4.2049  -16.7932  -56.0431 O.2       22 UNK        -0.5000 
    124 C124        2.6301  -15.9166  -53.4208 C.3       23 UNK        -0.0398 
    125 S125        1.1193  -15.4733  -52.4976 S.3       23 UNK        -0.2404 
    126 C126        1.4071  -16.3354  -50.9185 C.3       23 UNK        -0.0205 
    127 H127       -3.3935  -13.0385  -51.0785 H         1 UNK         0.0600 
    128 H128       -2.9936  -13.7138  -52.6617 H         1 UNK         0.0600 
    129 H129       -1.7894  -13.7200  -51.3712 H         1 UNK         0.0600 
    130 H130       -1.5810  -15.6604  -50.3276 H         1 UNK         0.3000 
    131 H131       -1.8729  -17.7141  -49.5913 H         1 UNK         0.0600 
    132 H132       -2.9476  -18.0252  -52.0250 H         1 UNK         0.0800 
    133 H133       -4.4223  -18.2366  -51.1604 H         1 UNK         0.0800 
    134 H134       -1.8321  -19.8576  -52.9362 H         1 UNK         0.0800 
    135 H135       -1.4671  -21.3720  -52.1677 H         1 UNK         0.0800 
    136 H136       -0.7507  -17.6901  -51.8439 H         1 UNK         0.1150 
    137 H137        3.1722  -18.3202  -50.2687 H         1 UNK         0.1150 
    138 H138        0.6471  -21.6753  -51.1506 H         1 UNK         0.1150 
    139 H139        3.6614  -21.3884  -51.1978 H         1 UNK         0.0800 
    140 H140        3.9468  -20.4966  -49.7231 H         1 UNK         0.0800 
    141 H141        1.7097  -20.7285  -47.9175 H         1 UNK         0.0800 
    142 H142        3.0909  -21.5043  -47.1919 H         1 UNK         0.0800 
    143 H143        1.5616  -23.6560  -47.0727 H         1 UNK         0.0600 
    144 H144        1.8731  -21.5489  -45.1903 H         1 UNK         0.3000 
    145 H145        0.3563  -23.3137  -42.4571 H         1 UNK         0.0600 
    146 H146        2.5716  -22.7586  -41.4976 H         1 UNK         0.0600 
    147 H147        3.2263  -22.4484  -43.1033 H         1 UNK         0.0600 
    148 H148        2.7293  -24.0751  -42.6515 H         1 UNK         0.0600 
    149 H149        1.4972  -20.7204  -42.5773 H         1 UNK         0.3000 
    150 H150       -1.5094  -18.9398  -43.4402 H         1 UNK         0.0600 
    151 H151       -1.5204  -19.2792  -41.0031 H         1 UNK         0.0600 
    152 H152       -0.6543  -17.7894  -41.3428 H         1 UNK         0.0600 
    153 H153        0.2345  -19.2440  -40.9324 H         1 UNK         0.0600 
    154 H154        1.0943  -17.9577  -43.0341 H         1 UNK         0.3000 
    155 H155        2.3613  -18.3155  -46.3730 H         1 UNK         0.0600 
    156 H156        1.0726  -16.2237  -46.3912 H         1 UNK         0.0600 
    157 H157        2.7322  -15.8713  -45.9373 H         1 UNK         0.0600 
    158 H158        1.4655  -15.9039  -44.7111 H         1 UNK         0.0600 
    159 H159        3.4645  -17.2963  -43.9241 H         1 UNK         0.3000 
    160 H160        4.9839  -20.3354  -42.8478 H         1 UNK         0.0600 
    161 H161        6.1648  -17.7745  -44.0564 H         1 UNK         0.0600 
    162 H162        6.5107  -19.4130  -44.5969 H         1 UNK         0.0600 
    163 H163        7.0023  -18.9023  -42.9900 H         1 UNK         0.0600 
    164 H164        5.0208  -17.6358  -41.8617 H         1 UNK         0.3000 
    165 H165        2.1834  -17.9394  -39.7189 H         1 UNK         0.0600 
    166 H166        3.8752  -17.2952  -38.0352 H         1 UNK         0.0600 
    167 H167        4.0950  -18.9782  -38.4855 H         1 UNK         0.0600 
    168 H168        5.1849  -17.7533  -39.1242 H         1 UNK         0.0600 
    169 H169        3.9607  -15.7758  -40.0634 H         1 UNK         0.3000 
    170 H170        2.7073  -13.7796  -40.9308 H         1 UNK         0.0600 
    171 H171        4.0425  -14.7626  -43.5375 H         1 UNK         0.0600 
    172 H172        4.1628  -13.1278  -42.8934 H         1 UNK         0.0600 
    173 H173        4.8838  -14.4666  -42.0193 H         1 UNK         0.0600 
    174 H174        1.0458  -14.7866  -43.0085 H         1 UNK         0.3000 
    175 H175       -0.7655  -11.8755  -43.4503 H         1 UNK         0.0600 
    176 H176        0.8590  -13.1464  -45.7229 H         1 UNK         0.0600 
    177 H177       -0.6442  -12.2432  -45.9093 H         1 UNK         0.0600 
    178 H178        0.8055  -11.4286  -45.3423 H         1 UNK         0.0600 
    179 H179       -0.8653  -14.5193  -44.6475 H         1 UNK         0.3000 
    180 H180       -1.4520  -16.4496  -43.0880 H         1 UNK         0.0600 
    181 H181       -3.9509  -15.5905  -41.5388 H         1 UNK         0.0600 
    182 H182       -2.4509  -16.1563  -40.8148 H         1 UNK         0.0600 
    183 H183       -3.4069  -17.2476  -41.8020 H         1 UNK         0.0600 
    184 H184       -4.1562  -15.9503  -43.9275 H         1 UNK         0.3000 
    185 H185       -4.4619  -17.0652  -46.1505 H         1 UNK         0.0600 
    186 H186       -4.2136  -14.0720  -46.8447 H         1 UNK         0.0600 
    187 H187       -5.5496  -15.1137  -47.3293 H         1 UNK         0.0600 
    188 H188       -5.2932  -14.7519  -45.6316 H         1 UNK         0.0600 
    189 H189       -2.2976  -16.0884  -47.8028 H         1 UNK         0.3000 
    190 H190       -0.5012  -20.8107  -46.3113 H         1 UNK         0.3000 
    191 H191       -2.5309  -21.2927  -48.1936 H         1 UNK         0.0600 
    192 H192       -2.2862  -19.1606  -46.9545 H         1 UNK         0.0600 
    193 H193       -2.7209  -19.9554  -45.4448 H         1 UNK         0.0600 
    194 H194       -3.9043  -19.8112  -46.7398 H         1 UNK         0.0600 
    195 H195       -2.2169  -22.5095  -44.8141 H         1 UNK         0.3000 
    196 H196       -4.6563  -23.9040  -44.6921 H         1 UNK         0.0600 
    197 H197       -3.2608  -23.4486  -42.7073 H         1 UNK         0.0600 
    198 H198       -1.9889  -24.5086  -43.3105 H         1 UNK         0.0600 
    199 H199       -3.5476  -25.1765  -42.8407 H         1 UNK         0.0600 
    200 H200       -1.5085  -24.9633  -46.0140 H         1 UNK         0.3000 
    201 H201       -2.3297  -27.6630  -46.6085 H         1 UNK         0.0600 
    202 H202        0.0527  -27.0281  -46.3182 H         1 UNK         0.0600 
    203 H203       -0.0268  -25.9812  -47.7324 H         1 UNK         0.0600 
    204 H204       -0.2131  -27.7207  -47.9117 H         1 UNK         0.0600 
    205 H205       -2.2509  -24.6182  -48.4825 H         1 UNK         0.3000 
    206 H206       -3.1392  -25.7947  -50.9648 H         1 UNK         0.0600 
    207 H207       -1.6921  -23.7819  -50.8604 H         1 UNK         0.0600 
    208 H208       -2.9544  -22.8938  -50.0133 H         1 UNK         0.0600 
    209 H209       -3.1967  -23.3942  -51.6829 H         1 UNK         0.0600 
    210 H210       -4.8427  -24.8853  -48.1649 H         1 UNK         0.3000 
    211 H211       -6.9427  -24.8119  -47.5286 H         1 UNK         0.0600 
    212 H212       -7.9227  -25.5043  -50.3414 H         1 UNK         0.0600 
    213 H213       -8.8284  -25.6163  -48.8425 H         1 UNK         0.0600 
    214 H214       -7.4676  -26.6909  -49.1172 H         1 UNK         0.0600 
    215 H215       -5.4311  -22.6182  -48.6797 H         1 UNK         0.3000 
    216 H216       -5.4075  -20.4587  -48.8807 H         1 UNK         0.0600 
    217 H217       -7.0392  -19.1859  -47.5162 H         1 UNK         0.0600 
    218 H218       -6.5998  -20.6740  -46.6991 H         1 UNK         0.0600 
    219 H219       -8.1541  -20.5447  -47.5229 H         1 UNK         0.0600 
    220 H220       -6.2857  -18.4147  -49.6170 H         1 UNK         0.3000 
    221 H221       -7.0635  -16.9802  -51.0680 H         1 UNK         0.0600 
    222 H222       -9.2480  -17.5954  -50.0207 H         1 UNK         0.0600 
    223 H223       -9.4530  -17.0659  -51.6808 H         1 UNK         0.0600 
    224 H224       -9.5312  -18.7795  -51.2960 H         1 UNK         0.0600 
    225 H225       -5.8210  -19.6744  -52.2235 H         1 UNK         0.3000 
    226 H226       -6.6932  -19.7969  -54.9347 H         1 UNK         0.0600 
    227 H227       -5.6460  -21.6986  -53.7183 H         1 UNK         0.0600 
    228 H228       -4.7353  -21.3245  -55.1734 H         1 UNK         0.0600 
    229 H229       -4.1240  -20.8155  -53.6055 H         1 UNK         0.0600 
    230 H230       -4.4765  -17.6629  -53.3765 H         1 UNK         0.3000 
    231 H231       -2.9336  -16.1821  -53.9359 H         1 UNK         0.0600 
    232 H232       -3.2948  -14.7660  -55.8999 H         1 UNK         0.0600 
    233 H233       -4.8602  -15.2028  -55.2498 H         1 UNK         0.0600 
    234 H234       -4.2580  -16.0100  -56.6942 H         1 UNK         0.0600 
    235 H235       -1.7045  -15.7175  -56.5886 H         1 UNK         0.3000 
    236 H236        0.1321  -16.2488  -57.7223 H         1 UNK         0.0600 
    237 H237       -1.1028  -19.0520  -57.7864 H         1 UNK         0.0600 
    238 H238       -1.5180  -17.7207  -58.8638 H         1 UNK         0.0600 
    239 H239        0.0919  -18.4203  -58.9126 H         1 UNK         0.0600 
    240 H240        0.8789  -15.9383  -55.2446 H         1 UNK         0.3000 
    241 H241        2.1206  -17.9710  -53.8276 H         1 UNK         0.0600 
    242 H242        5.4178  -18.6283  -54.9791 H         1 UNK         0.3800 
    243 H243        4.2093  -18.9477  -53.7683 H         1 UNK         0.3800 
    244 H244        2.9585  -15.0276  -53.9624 H         1 UNK         0.0800 
    245 H245        3.4263  -16.1418  -52.7090 H         1 UNK         0.0800 
    246 H246        2.4012  -16.0873  -50.5437 H         1 UNK         0.0800 
    247 H247        0.7036  -15.9534  -50.1784 H         1 UNK         0.0800 
@<TRIPOS>BOND
     1    1    2 1    
     2    1  127 1    
     3    1  128 1    
     4    1  129 1    
     5    2    3 2    
     6    2    4 am   BACKBONE|DICT|INTERRES
     7    4    5 1    
     8    4  130 1    
     9    5    6 1    
    10    5   65 1    
    11    5  131 1    
    12    6    7 1    
    13    6  132 1    
    14    6  133 1    
    15    7    8 1    
    16    8    9 1    
    17    8  134 1    
    18    8  135 1    
    19    9   10 ar   
    20    9   14 ar   
    21   10   11 ar   
    22   10  136 1    
    23   11   12 ar   
    24   11  126 1    
    25   12   13 ar   
    26   12  137 1    
    27   13   14 ar   
    28   13   15 1    
    29   14  138 1    
    30   15   16 1    
    31   15  139 1    
    32   15  140 1    
    33   16   17 1    
    34   17   18 1    
    35   17  141 1    
    36   17  142 1    
    37   18   19 1    
    38   18   67 1    
    39   18  143 1    
    40   19   20 am   BACKBONE|DICT|INTERRES
    41   19  144 1    
    42   20   21 2    
    43   20   22 1    
    44   22   23 1    
    45   22   24 1    
    46   22  145 1    
    47   23  146 1    
    48   23  147 1    
    49   23  148 1    
    50   24   25 am   BACKBONE|DICT|INTERRES
    51   24  149 1    
    52   25   26 2    
    53   25   27 1    
    54   27   28 1    
    55   27   29 1    
    56   27  150 1    
    57   28  151 1    
    58   28  152 1    
    59   28  153 1    
    60   29   30 am   BACKBONE|DICT|INTERRES
    61   29  154 1    
    62   30   31 2    
    63   30   32 1    
    64   32   33 1    
    65   32   34 1    
    66   32  155 1    
    67   33  156 1    
    68   33  157 1    
    69   33  158 1    
    70   34   35 am   BACKBONE|DICT|INTERRES
    71   34  159 1    
    72   35   36 2    
    73   35   37 1    
    74   37   38 1    
    75   37   39 1    
    76   37  160 1    
    77   38  161 1    
    78   38  162 1    
    79   38  163 1    
    80   39   40 am   BACKBONE|DICT|INTERRES
    81   39  164 1    
    82   40   41 2    
    83   40   42 1    
    84   42   43 1    
    85   42   44 1    
    86   42  165 1    
    87   43  166 1    
    88   43  167 1    
    89   43  168 1    
    90   44   45 am   BACKBONE|DICT|INTERRES
    91   44  169 1    
    92   45   46 2    
    93   45   47 1    
    94   47   48 1    
    95   47   49 1    
    96   47  170 1    
    97   48  171 1    
    98   48  172 1    
    99   48  173 1    
   100   49   50 am   BACKBONE|DICT|INTERRES
   101   49  174 1    
   102   50   51 2    
   103   50   52 1    
   104   52   53 1    
   105   52   54 1    
   106   52  175 1    
   107   53  176 1    
   108   53  177 1    
   109   53  178 1    
   110   54   55 am   BACKBONE|DICT|INTERRES
   111   54  179 1    
   112   55   56 2    
   113   55   57 1    
   114   57   58 1    
   115   57   59 1    
   116   57  180 1    
   117   58  181 1    
   118   58  182 1    
   119   58  183 1    
   120   59   60 am   BACKBONE|DICT|INTERRES
   121   59  184 1    
   122   60   61 2    
   123   60   62 1    
   124   62   63 1    
   125   62   64 1    
   126   62  185 1    
   127   63  186 1    
   128   63  187 1    
   129   63  188 1    
   130   64   65 am   BACKBONE|DICT|INTERRES
   131   64  189 1    
   132   65   66 2    
   133   67   68 2    
   134   67   69 am   BACKBONE|DICT|INTERRES
   135   69   70 1    
   136   69  190 1    
   137   70   71 1    
   138   70   72 1    
   139   70  191 1    
   140   71  192 1    
   141   71  193 1    
   142   71  194 1    
   143   72   73 2    
   144   72   74 am   BACKBONE|DICT|INTERRES
   145   74   75 1    
   146   74  195 1    
   147   75   76 1    
   148   75   77 1    
   149   75  196 1    
   150   76  197 1    
   151   76  198 1    
   152   76  199 1    
   153   77   78 2    
   154   77   79 am   BACKBONE|DICT|INTERRES
   155   79   80 1    
   156   79  200 1    
   157   80   81 1    
   158   80   82 1    
   159   80  201 1    
   160   81  202 1    
   161   81  203 1    
   162   81  204 1    
   163   82   83 2    
   164   82   84 am   BACKBONE|DICT|INTERRES
   165   84   85 1    
   166   84  205 1    
   167   85   86 1    
   168   85   87 1    
   169   85  206 1    
   170   86  207 1    
   171   86  208 1    
   172   86  209 1    
   173   87   88 2    
   174   87   89 am   BACKBONE|DICT|INTERRES
   175   89   90 1    
   176   89  210 1    
   177   90   91 1    
   178   90   92 1    
   179   90  211 1    
   180   91  212 1    
   181   91  213 1    
   182   91  214 1    
   183   92   93 2    
   184   92   94 am   BACKBONE|DICT|INTERRES
   185   94   95 1    
   186   94  215 1    
   187   95   96 1    
   188   95   97 1    
   189   95  216 1    
   190   96  217 1    
   191   96  218 1    
   192   96  219 1    
   193   97   98 2    
   194   97   99 am   BACKBONE|DICT|INTERRES
   195   99  100 1    
   196   99  220 1    
   197  100  101 1    
   198  100  102 1    
   199  100  221 1    
   200  101  222 1    
   201  101  223 1    
   202  101  224 1    
   203  102  103 2    
   204  102  104 am   BACKBONE|DICT|INTERRES
   205  104  105 1    
   206  104  225 1    
   207  105  106 1    
   208  105  107 1    
   209  105  226 1    
   210  106  227 1    
   211  106  228 1    
   212  106  229 1    
   213  107  108 2    
   214  107  109 am   BACKBONE|DICT|INTERRES
   215  109  110 1    
   216  109  230 1    
   217  110  111 1    
   218  110  112 1    
   219  110  231 1    
   220  111  232 1    
   221  111  233 1    
   222  111  234 1    
   223  112  113 2    
   224  112  114 am   BACKBONE|DICT|INTERRES
   225  114  115 1    
   226  114  235 1    
   227  115  116 1    
   228  115  117 1    
   229  115  236 1    
   230  116  237 1    
   231  116  238 1    
   232  116  239 1    
   233  117  118 2    
   234  117  119 am   BACKBONE|DICT|INTERRES
   235  119  120 1    
   236  119  240 1    
   237  120  121 1    
   238  120  124 1    
   239  120  241 1    
   240  121  122 am   BACKBONE|DICT|INTERRES
   241  121  123 2    
   242  122  242 1    
   243  122  243 1    
   244  124  125 1    
   245  124  244 1    
   246  124  245 1    
   247  125  126 1    
   248  126  246 1    
   249  126  247 1    
@<TRIPOS>SUBSTRUCTURE
     1 UNK         1 GROUP             0       ****    0 ROOT    
