@<TRIPOS>MOLECULE
3R540
247   249    1
SMALL
USER_CHARGES


@<TRIPOS>ATOM
      1 CA         -4.0079  -10.2494  -46.5723 C.3       0 UNK        -0.1800 
      2 C          -2.5488  -10.1452  -46.1534 C.2       0 UNK         0.5000 
      3 O          -2.1943   -9.2589  -45.3754 O.2       0 UNK        -0.5000 
      4 N          -1.7013  -11.0568  -46.6513 N.am      1 UNK        -0.5000 
      5 CA         -0.2589  -11.1062  -46.3724 C.3       1 UNK         0.1400 
      6 C6          0.4997  -12.0202  -47.3658 C.3       23 UNK        -0.0398 
      7 S7          0.0775  -13.7959  -47.2546 S.3       23 UNK        -0.2404 
      8 C8         -0.9471  -14.0370  -48.7399 C.3       23 UNK        -0.0205 
      9 C9         -1.0659  -15.5166  -49.0623 C.ar      23 UNK        -0.0193 
     10 C10        -0.2771  -16.0810  -50.0689 C.ar      23 UNK        -0.1150 
     11 C11        -0.3205  -17.4549  -50.3221 C.ar      23 UNK        -0.0193 
     12 C12        -1.1813  -18.2592  -49.5672 C.ar      23 UNK        -0.1150 
     13 C13        -1.9723  -17.7079  -48.5549 C.ar      23 UNK        -0.0193 
     14 C14        -1.9204  -16.3324  -48.3160 C.ar      23 UNK        -0.1150 
     15 C15        -2.8024  -18.6110  -47.6566 C.3       23 UNK        -0.0205 
     16 S16        -4.1977  -19.3902  -48.5211 S.3       23 UNK        -0.2404 
     17 C17        -4.7089  -20.6125  -47.2613 C.3       23 UNK        -0.0398 
     18 CA         -4.1376  -22.0259  -47.5390 C.3       11 UNK         0.1400 
     19 N          -2.6781  -22.0499  -47.5605 N.am      11 UNK        -0.5000 
     20 C          -1.9341  -22.6860  -48.4718 C.2       10 UNK         0.5000 
     21 O          -2.4040  -23.2799  -49.4450 O.2       10 UNK        -0.5000 
     22 CA         -0.4068  -22.6868  -48.2465 C.3       10 UNK         0.1400 
     23 CB          0.3087  -21.7368  -49.2198 C.3       10 UNK        -0.1800 
     24 N          -0.0157  -22.3584  -46.8727 N.am      10 UNK        -0.5000 
     25 C          -0.1999  -23.1773  -45.8268 C.2       9 UNK         0.5000 
     26 O          -0.6923  -24.3005  -45.9251 O.2       9 UNK        -0.5000 
     27 CA          0.1755  -22.6465  -44.4291 C.3       9 UNK         0.1400 
     28 CB          1.6101  -23.0574  -44.0692 C.3       9 UNK        -0.1800 
     29 N           0.0376  -21.1962  -44.2775 N.am      9 UNK        -0.5000 
     30 C          -1.0940  -20.4994  -44.4499 C.2       8 UNK         0.5000 
     31 O          -2.1690  -21.0102  -44.7668 O.2       8 UNK        -0.5000 
     32 CA         -1.0052  -18.9700  -44.2935 C.3       8 UNK         0.1400 
     33 CB         -1.3200  -18.5632  -42.8468 C.3       8 UNK        -0.1800 
     34 N           0.2718  -18.3671  -44.6931 N.am      8 UNK        -0.5000 
     35 C           0.9045  -18.5244  -45.8676 C.2       7 UNK         0.5000 
     36 O           0.5527  -19.3338  -46.7256 O.2       7 UNK        -0.5000 
     37 CA          2.1296  -17.6225  -46.1132 C.3       7 UNK         0.1400 
     38 CB          2.3487  -17.3134  -47.6044 C.3       7 UNK        -0.1800 
     39 N           1.9959  -16.3658  -45.3734 N.am      7 UNK        -0.5000 
     40 C           2.9618  -15.7767  -44.6622 C.2       6 UNK         0.5000 
     41 O           4.1111  -16.2129  -44.5594 O.2       6 UNK        -0.5000 
     42 CA          2.5420  -14.5200  -43.8763 C.3       6 UNK         0.1400 
     43 CB          2.1369  -14.9129  -42.4456 C.3       6 UNK        -0.1800 
     44 N           3.5975  -13.5132  -43.7954 N.am      6 UNK        -0.5000 
     45 C           4.1393  -12.8619  -44.8306 C.2       5 UNK         0.5000 
     46 O           3.8067  -13.0329  -46.0051 O.2       5 UNK        -0.5000 
     47 CA          5.2041  -11.8060  -44.4732 C.3       5 UNK         0.1400 
     48 CB          6.1704  -11.5331  -45.6398 C.3       5 UNK        -0.1800 
     49 N           4.5787  -10.5445  -44.0780 N.am      5 UNK        -0.5000 
     50 C           3.9696  -10.3046  -42.9091 C.2       4 UNK         0.5000 
     51 O           3.9149  -11.1258  -41.9911 O.2       4 UNK        -0.5000 
     52 CA          3.3222   -8.9210  -42.7170 C.3       4 UNK         0.1400 
     53 CB          3.5431   -7.9384  -43.8866 C.3       4 UNK        -0.1800 
     54 N           1.8900   -9.0989  -42.5053 N.am      4 UNK        -0.5000 
     55 C           1.1430   -8.4219  -41.6233 C.2       3 UNK         0.5000 
     56 O           1.5988   -7.5595  -40.8706 O.2       3 UNK        -0.5000 
     57 CA         -0.3703   -8.7310  -41.5710 C.3       3 UNK         0.1400 
     58 CB         -1.1748   -7.5760  -42.1881 C.3       3 UNK        -0.1800 
     59 N          -0.7427   -9.9694  -42.2548 N.am      3 UNK        -0.5000 
     60 C          -0.4932  -11.2051  -41.8005 C.2       2 UNK         0.5000 
     61 O          -0.0123  -11.4384  -40.6916 O.2       2 UNK        -0.5000 
     62 CA         -0.8085  -12.3802  -42.7506 C.3       2 UNK         0.1400 
     63 CB         -2.1162  -13.0733  -42.3405 C.3       2 UNK        -0.1800 
     64 N          -0.8908  -12.0192  -44.1687 N.am      2 UNK        -0.5000 
     65 C           0.0760  -11.4466  -44.9028 C.2       1 UNK         0.5000 
     66 O           1.1820  -11.1509  -44.4537 O.2       1 UNK        -0.5000 
     67 C          -4.6370  -23.0523  -46.5078 C.2       11 UNK         0.5000 
     68 O          -5.4427  -23.9138  -46.8567 O.2       11 UNK        -0.5000 
     69 N          -4.1416  -22.9524  -45.2669 N.am      12 UNK        -0.5000 
     70 CA         -4.5622  -23.7622  -44.1267 C.3       12 UNK         0.1400 
     71 CB         -4.1223  -23.0649  -42.8260 C.3       12 UNK        -0.1800 
     72 C          -4.0588  -25.2148  -44.2099 C.2       12 UNK         0.5000 
     73 O          -4.8331  -26.1101  -44.5493 O.2       12 UNK        -0.5000 
     74 N          -2.7774  -25.4263  -43.8797 N.am      13 UNK        -0.5000 
     75 CA         -2.1421  -26.7413  -43.7447 C.3       13 UNK         0.1400 
     76 CB         -0.7196  -26.5633  -43.1915 C.3       13 UNK        -0.1800 
     77 C          -2.1221  -27.5643  -45.0457 C.2       13 UNK         0.5000 
     78 O          -2.3046  -28.7813  -44.9985 O.2       13 UNK        -0.5000 
     79 N          -1.9339  -26.8825  -46.1817 N.am      14 UNK        -0.5000 
     80 CA         -1.9598  -27.4705  -47.5213 C.3       14 UNK         0.1400 
     81 CB         -1.1714  -26.5624  -48.4767 C.3       14 UNK        -0.1800 
     82 C          -3.3830  -27.7205  -48.0631 C.2       14 UNK         0.5000 
     83 O          -3.5042  -28.2462  -49.1690 O.2       14 UNK        -0.5000 
     84 N          -4.4288  -27.3261  -47.3170 N.am      15 UNK        -0.5000 
     85 CA         -5.8532  -27.4726  -47.6488 C.3       15 UNK         0.1400 
     86 CB         -6.2739  -28.9543  -47.5661 C.3       15 UNK        -0.1800 
     87 C          -6.2223  -26.8137  -48.9957 C.2       15 UNK         0.5000 
     88 O          -6.9291  -27.4047  -49.8137 O.2       15 UNK        -0.5000 
     89 N          -5.6888  -25.6025  -49.1994 N.am      16 UNK        -0.5000 
     90 CA         -5.8129  -24.7365  -50.3738 C.3       16 UNK         0.1400 
     91 CB         -7.2749  -24.2878  -50.5716 C.3       16 UNK        -0.1800 
     92 C          -5.1850  -25.2852  -51.6738 C.2       16 UNK         0.5000 
     93 O          -5.3933  -24.6877  -52.7311 O.2       16 UNK        -0.5000 
     94 N          -4.4003  -26.3718  -51.5977 N.am      17 UNK        -0.5000 
     95 CA         -3.7223  -26.9664  -52.7536 C.3       17 UNK         0.1400 
     96 CB         -3.1378  -28.3338  -52.3718 C.3       17 UNK        -0.1800 
     97 C          -2.6274  -26.0518  -53.3310 C.2       17 UNK         0.5000 
     98 O          -2.5018  -25.9485  -54.5512 O.2       17 UNK        -0.5000 
     99 N          -1.8778  -25.3835  -52.4439 N.am      18 UNK        -0.5000 
    100 CA        -0.8660  -24.3947  -52.8137 C.3       18 UNK         0.1400 
    101 CB         0.2052  -24.3260  -51.7186 C.3       18 UNK        -0.1800 
    102 C         -1.4849  -23.0140  -53.0982 C.2       18 UNK         0.5000 
    103 O         -0.9808  -22.2983  -53.9624 O.2       18 UNK        -0.5000 
    104 N         -2.5988  -22.6817  -52.4260 N.am      19 UNK        -0.5000 
    105 CA        -3.3647  -21.4429  -52.6170 C.3       19 UNK         0.1400 
    106 CB        -4.5295  -21.3882  -51.6235 C.3       19 UNK        -0.1800 
    107 C         -3.8851  -21.2380  -54.0531 C.2       19 UNK         0.5000 
    108 O         -4.0499  -20.0953  -54.4819 O.2       19 UNK        -0.5000 
    109 N         -4.0818  -22.3411  -54.7876 N.am      20 UNK        -0.5000 
    110 CA        -4.3994  -22.3558  -56.2153 C.3       20 UNK         0.1400 
    111 CB        -4.6898  -23.8014  -56.6447 C.3       20 UNK        -0.1800 
    112 C         -3.2947  -21.7381  -57.1000 C.2       20 UNK         0.5000 
    113 O         -3.6122  -21.1955  -58.1590 O.2       20 UNK        -0.5000 
    114 N         -2.0314  -21.8103  -56.6533 N.am      21 UNK        -0.5000 
    115 CA        -0.8939  -21.1486  -57.2930 C.3       21 UNK         0.1400 
    116 CB         0.3872  -21.9573  -57.0343 C.3       21 UNK        -0.1800 
    117 C         -0.7329  -19.6975  -56.8029 C.2       21 UNK         0.5000 
    118 O         -0.2982  -18.8479  -57.5817 O.2       21 UNK        -0.5000 
    119 N         -1.0882  -19.4345  -55.5364 N.am      22 UNK        -0.5000 
    120 CA        -1.1073  -18.0903  -54.9317 C.3       22 UNK         0.1400 
    121 C         -2.1548  -17.1456  -55.5844 C.2       22 UNK         0.5000 
    122 N         -3.3693  -17.6172  -55.8398 N.am      22 UNK        -0.7600 
    123 O         -1.8643  -15.9843  -55.8576 O.2       22 UNK        -0.5000 
    124 C124       -1.3285  -18.1213  -53.3970 C.3       23 UNK        -0.0398 
    125 S125       -0.1719  -19.2176  -52.5078 S.3       23 UNK        -0.2404 
    126 C126        0.6294  -18.0625  -51.3509 C.3       23 UNK        -0.0205 
    127 H127       -4.3198   -9.3334  -47.0740 H         1 UNK         0.0600 
    128 H128       -4.6403  -10.3917  -45.6960 H         1 UNK         0.0600 
    129 H129       -4.1761  -11.0845  -47.2529 H         1 UNK         0.0600 
    130 H130       -2.0507  -11.7708  -47.2733 H         1 UNK         0.3000 
    131 H131        0.1204  -10.0942  -46.5308 H         1 UNK         0.0600 
    132 H132        1.5751  -11.9272  -47.2035 H         1 UNK         0.0800 
    133 H133        0.3361  -11.6668  -48.3843 H         1 UNK         0.0800 
    134 H134       -0.5082  -13.5054  -49.5856 H         1 UNK         0.0800 
    135 H135       -1.9378  -13.6100  -48.5807 H         1 UNK         0.0800 
    136 H136        0.4031  -15.4538  -50.6277 H         1 UNK         0.1150 
    137 H137       -1.2203  -19.3224  -49.7477 H         1 UNK         0.1150 
    138 H138       -2.5096  -15.8996  -47.5198 H         1 UNK         0.1150 
    139 H139       -2.1466  -19.3826  -47.2549 H         1 UNK         0.0800 
    140 H140       -3.1887  -18.0543  -46.8020 H         1 UNK         0.0800 
    141 H141       -5.7998  -20.6443  -47.2609 H         1 UNK         0.0800 
    142 H142       -4.4184  -20.2567  -46.2712 H         1 UNK         0.0800 
    143 H143       -4.5274  -22.3419  -48.5061 H         1 UNK         0.0600 
    144 H144       -2.2129  -21.6267  -46.7678 H         1 UNK         0.3000 
    145 H145       -0.0623  -23.7000  -48.4593 H         1 UNK         0.0600 
    146 H146        1.3656  -21.9896  -49.3018 H         1 UNK         0.0600 
    147 H147       -0.1164  -21.7842  -50.2233 H         1 UNK         0.0600 
    148 H148        0.2482  -20.7025  -48.8902 H         1 UNK         0.0600 
    149 H149        0.3485  -21.4241  -46.7152 H         1 UNK         0.3000 
    150 H150       -0.5015  -23.1148  -43.7125 H         1 UNK         0.0600 
    151 H151        1.7410  -24.1372  -44.1519 H         1 UNK         0.0600 
    152 H152        1.8549  -22.7801  -43.0437 H         1 UNK         0.0600 
    153 H153        2.3402  -22.5867  -44.7289 H         1 UNK         0.0600 
    154 H154        0.8754  -20.6851  -44.0421 H         1 UNK         0.3000 
    155 H155       -1.7744  -18.5382  -44.9338 H         1 UNK         0.0600 
    156 H156       -0.5573  -18.9201  -42.1535 H         1 UNK         0.0600 
    157 H157       -2.2768  -18.9758  -42.5232 H         1 UNK         0.0600 
    158 H158       -1.3859  -17.4796  -42.7458 H         1 UNK         0.0600 
    159 H159        0.6710  -17.7123  -44.0376 H         1 UNK         0.3000 
    160 H160        2.9925  -18.1834  -45.7491 H         1 UNK         0.0600 
    161 H161        1.5081  -16.7572  -48.0173 H         1 UNK         0.0600 
    162 H162        2.4616  -18.2266  -48.1899 H         1 UNK         0.0600 
    163 H163        3.2486  -16.7171  -47.7547 H         1 UNK         0.0600 
    164 H164        1.0856  -15.9287  -45.4250 H         1 UNK         0.3000 
    165 H165        1.6870  -14.0577  -44.3734 H         1 UNK         0.0600 
    166 H166        1.9180  -14.0373  -41.8344 H         1 UNK         0.0600 
    167 H167        1.2461  -15.5423  -42.4491 H         1 UNK         0.0600 
    168 H168        2.9300  -15.4691  -41.9437 H         1 UNK         0.0600 
    169 H169        3.8956  -13.2481  -42.8661 H         1 UNK         0.3000 
    170 H170        5.7939  -12.1870  -43.6366 H         1 UNK         0.0600 
    171 H171        6.6509  -12.4546  -45.9708 H         1 UNK         0.0600 
    172 H172        5.6568  -11.1025  -46.5004 H         1 UNK         0.0600 
    173 H173        6.9610  -10.8437  -45.3428 H         1 UNK         0.0600 
    174 H174        4.5445   -9.8269  -44.7869 H         1 UNK         0.3000 
    175 H175        3.7819   -8.4962  -41.8224 H         1 UNK         0.0600 
    176 H176        3.0852   -8.2958  -44.8100 H         1 UNK         0.0600 
    177 H177        3.1075   -6.9647  -43.6613 H         1 UNK         0.0600 
    178 H178        4.6052   -7.7747  -44.0736 H         1 UNK         0.0600 
    179 H179        1.4618   -9.8300  -43.0672 H         1 UNK         0.3000 
    180 H180       -0.6500   -8.8190  -40.5191 H         1 UNK         0.0600 
    181 H181       -2.2473   -7.7495  -42.0978 H         1 UNK         0.0600 
    182 H182       -0.9444   -7.4478  -43.2467 H         1 UNK         0.0600 
    183 H183       -0.9559   -6.6324  -41.6867 H         1 UNK         0.0600 
    184 H184       -1.1449   -9.8695  -43.1776 H         1 UNK         0.3000 
    185 H185        0.0016  -13.0999  -42.6491 H         1 UNK         0.0600 
    186 H186       -2.2955  -13.9658  -42.9404 H         1 UNK         0.0600 
    187 H187       -2.0823  -13.3879  -41.2965 H         1 UNK         0.0600 
    188 H188       -2.9748  -12.4106  -42.4563 H         1 UNK         0.0600 
    189 H189       -1.7690  -12.2110  -44.6277 H         1 UNK         0.3000 
    190 H190       -3.4535  -22.2289  -45.0686 H         1 UNK         0.3000 
    191 H191       -5.6537  -23.8011  -44.1229 H         1 UNK         0.0600 
    192 H192       -4.3845  -23.6625  -41.9519 H         1 UNK         0.0600 
    193 H193       -4.6165  -22.0993  -42.7168 H         1 UNK         0.0600 
    194 H194       -3.0470  -22.8866  -42.7957 H         1 UNK         0.0600 
    195 H195       -2.2027  -24.6290  -43.6576 H         1 UNK         0.3000 
    196 H196       -2.7205  -27.3075  -43.0117 H         1 UNK         0.0600 
    197 H197       -0.0889  -25.9934  -43.8741 H         1 UNK         0.0600 
    198 H198       -0.7294  -26.0466  -42.2317 H         1 UNK         0.0600 
    199 H199       -0.2395  -27.5299  -43.0341 H         1 UNK         0.0600 
    200 H200       -1.7170  -25.8906  -46.1175 H         1 UNK         0.3000 
    201 H201       -1.4545  -28.4378  -47.4863 H         1 UNK         0.0600 
    202 H202       -1.6714  -25.6054  -48.6046 H         1 UNK         0.0600 
    203 H203       -1.0728  -27.0164  -49.4635 H         1 UNK         0.0600 
    204 H204       -0.1648  -26.3708  -48.1045 H         1 UNK         0.0600 
    205 H205       -4.2433  -26.8904  -46.4206 H         1 UNK         0.3000 
    206 H206       -6.4046  -26.9278  -46.8809 H         1 UNK         0.0600 
    207 H207       -6.0219  -29.3804  -46.5950 H         1 UNK         0.0600 
    208 H208       -7.3510  -29.0629  -47.6981 H         1 UNK         0.0600 
    209 H209       -5.7871  -29.5572  -48.3334 H         1 UNK         0.0600 
    210 H210       -5.1888  -25.1918  -48.4181 H         1 UNK         0.3000 
    211 H211       -5.2316  -23.8485  -50.1308 H         1 UNK         0.0600 
    212 H212       -7.3528  -23.5241  -51.3461 H         1 UNK         0.0600 
    213 H213       -7.6816  -23.8590  -49.6556 H         1 UNK         0.0600 
    214 H214       -7.9165  -25.1176  -50.8687 H         1 UNK         0.0600 
    215 H215       -4.2812  -26.8391  -50.7068 H         1 UNK         0.3000 
    216 H216       -4.4692  -27.1258  -53.5344 H         1 UNK         0.0600 
    217 H217       -2.3573  -28.2426  -51.6156 H         1 UNK         0.0600 
    218 H218       -2.6958  -28.8242  -53.2400 H         1 UNK         0.0600 
    219 H219       -3.9087  -28.9977  -51.9799 H         1 UNK         0.0600 
    220 H220       -2.0557  -25.5145  -51.4591 H         1 UNK         0.3000 
    221 H221       -0.3703  -24.7166  -53.7324 H         1 UNK         0.0600 
    222 H222        0.7749  -25.2541  -51.6718 H         1 UNK         0.0600 
    223 H223       -0.2382  -24.1640  -50.7396 H         1 UNK         0.0600 
    224 H224        0.9132  -23.5175  -51.9059 H         1 UNK         0.0600 
    225 H225       -2.9079  -23.2920  -51.6826 H         1 UNK         0.3000 
    226 H226       -2.6944  -20.6175  -52.3835 H         1 UNK         0.0600 
    227 H227       -5.2864  -22.1389  -51.8452 H         1 UNK         0.0600 
    228 H228       -4.1797  -21.5404  -50.6054 H         1 UNK         0.0600 
    229 H229       -5.0192  -20.4141  -51.6540 H         1 UNK         0.0600 
    230 H230       -3.9594  -23.2392  -54.3398 H         1 UNK         0.3000 
    231 H231       -5.3064  -21.7654  -56.3595 H         1 UNK         0.0600 
    232 H232       -3.8152  -24.4406  -56.5180 H         1 UNK         0.0600 
    233 H233       -4.9806  -23.8464  -57.6949 H         1 UNK         0.0600 
    234 H234       -5.5054  -24.2306  -56.0620 H         1 UNK         0.0600 
    235 H235       -1.8471  -22.2368  -55.7514 H         1 UNK         0.3000 
    236 H236       -1.0539  -21.1209  -58.3729 H         1 UNK         0.0600 
    237 H237        0.2782  -22.9885  -57.3703 H         1 UNK         0.0600 
    238 H238        1.2315  -21.5265  -57.5738 H         1 UNK         0.0600 
    239 H239        0.6529  -21.9742  -55.9773 H         1 UNK         0.0600 
    240 H240       -1.3878  -20.1979  -54.9464 H         1 UNK         0.3000 
    241 H241       -0.1243  -17.6497  -55.1091 H         1 UNK         0.0600 
    242 H242       -4.0590  -17.0194  -56.2658 H         1 UNK         0.3800 
    243 H243       -3.6277  -18.5528  -55.5368 H         1 UNK         0.3800 
    244 H244       -2.3430  -18.4423  -53.1601 H         1 UNK         0.0800 
    245 H245       -1.2416  -17.1108  -52.9941 H         1 UNK         0.0800 
    246 H246        1.1295  -17.2830  -51.9277 H         1 UNK         0.0800 
    247 H247        1.4138  -18.5987  -50.8153 H         1 UNK         0.0800 
@<TRIPOS>BOND
     1    1    2 1    
     2    1  127 1    
     3    1  128 1    
     4    1  129 1    
     5    2    3 2    
     6    2    4 am   BACKBONE|DICT|INTERRES
     7    4    5 1    
     8    4  130 1    
     9    5    6 1    
    10    5   65 1    
    11    5  131 1    
    12    6    7 1    
    13    6  132 1    
    14    6  133 1    
    15    7    8 1    
    16    8    9 1    
    17    8  134 1    
    18    8  135 1    
    19    9   10 ar   
    20    9   14 ar   
    21   10   11 ar   
    22   10  136 1    
    23   11   12 ar   
    24   11  126 1    
    25   12   13 ar   
    26   12  137 1    
    27   13   14 ar   
    28   13   15 1    
    29   14  138 1    
    30   15   16 1    
    31   15  139 1    
    32   15  140 1    
    33   16   17 1    
    34   17   18 1    
    35   17  141 1    
    36   17  142 1    
    37   18   19 1    
    38   18   67 1    
    39   18  143 1    
    40   19   20 am   BACKBONE|DICT|INTERRES
    41   19  144 1    
    42   20   21 2    
    43   20   22 1    
    44   22   23 1    
    45   22   24 1    
    46   22  145 1    
    47   23  146 1    
    48   23  147 1    
    49   23  148 1    
    50   24   25 am   BACKBONE|DICT|INTERRES
    51   24  149 1    
    52   25   26 2    
    53   25   27 1    
    54   27   28 1    
    55   27   29 1    
    56   27  150 1    
    57   28  151 1    
    58   28  152 1    
    59   28  153 1    
    60   29   30 am   BACKBONE|DICT|INTERRES
    61   29  154 1    
    62   30   31 2    
    63   30   32 1    
    64   32   33 1    
    65   32   34 1    
    66   32  155 1    
    67   33  156 1    
    68   33  157 1    
    69   33  158 1    
    70   34   35 am   BACKBONE|DICT|INTERRES
    71   34  159 1    
    72   35   36 2    
    73   35   37 1    
    74   37   38 1    
    75   37   39 1    
    76   37  160 1    
    77   38  161 1    
    78   38  162 1    
    79   38  163 1    
    80   39   40 am   BACKBONE|DICT|INTERRES
    81   39  164 1    
    82   40   41 2    
    83   40   42 1    
    84   42   43 1    
    85   42   44 1    
    86   42  165 1    
    87   43  166 1    
    88   43  167 1    
    89   43  168 1    
    90   44   45 am   BACKBONE|DICT|INTERRES
    91   44  169 1    
    92   45   46 2    
    93   45   47 1    
    94   47   48 1    
    95   47   49 1    
    96   47  170 1    
    97   48  171 1    
    98   48  172 1    
    99   48  173 1    
   100   49   50 am   BACKBONE|DICT|INTERRES
   101   49  174 1    
   102   50   51 2    
   103   50   52 1    
   104   52   53 1    
   105   52   54 1    
   106   52  175 1    
   107   53  176 1    
   108   53  177 1    
   109   53  178 1    
   110   54   55 am   BACKBONE|DICT|INTERRES
   111   54  179 1    
   112   55   56 2    
   113   55   57 1    
   114   57   58 1    
   115   57   59 1    
   116   57  180 1    
   117   58  181 1    
   118   58  182 1    
   119   58  183 1    
   120   59   60 am   BACKBONE|DICT|INTERRES
   121   59  184 1    
   122   60   61 2    
   123   60   62 1    
   124   62   63 1    
   125   62   64 1    
   126   62  185 1    
   127   63  186 1    
   128   63  187 1    
   129   63  188 1    
   130   64   65 am   BACKBONE|DICT|INTERRES
   131   64  189 1    
   132   65   66 2    
   133   67   68 2    
   134   67   69 am   BACKBONE|DICT|INTERRES
   135   69   70 1    
   136   69  190 1    
   137   70   71 1    
   138   70   72 1    
   139   70  191 1    
   140   71  192 1    
   141   71  193 1    
   142   71  194 1    
   143   72   73 2    
   144   72   74 am   BACKBONE|DICT|INTERRES
   145   74   75 1    
   146   74  195 1    
   147   75   76 1    
   148   75   77 1    
   149   75  196 1    
   150   76  197 1    
   151   76  198 1    
   152   76  199 1    
   153   77   78 2    
   154   77   79 am   BACKBONE|DICT|INTERRES
   155   79   80 1    
   156   79  200 1    
   157   80   81 1    
   158   80   82 1    
   159   80  201 1    
   160   81  202 1    
   161   81  203 1    
   162   81  204 1    
   163   82   83 2    
   164   82   84 am   BACKBONE|DICT|INTERRES
   165   84   85 1    
   166   84  205 1    
   167   85   86 1    
   168   85   87 1    
   169   85  206 1    
   170   86  207 1    
   171   86  208 1    
   172   86  209 1    
   173   87   88 2    
   174   87   89 am   BACKBONE|DICT|INTERRES
   175   89   90 1    
   176   89  210 1    
   177   90   91 1    
   178   90   92 1    
   179   90  211 1    
   180   91  212 1    
   181   91  213 1    
   182   91  214 1    
   183   92   93 2    
   184   92   94 am   BACKBONE|DICT|INTERRES
   185   94   95 1    
   186   94  215 1    
   187   95   96 1    
   188   95   97 1    
   189   95  216 1    
   190   96  217 1    
   191   96  218 1    
   192   96  219 1    
   193   97   98 2    
   194   97   99 am   BACKBONE|DICT|INTERRES
   195   99  100 1    
   196   99  220 1    
   197  100  101 1    
   198  100  102 1    
   199  100  221 1    
   200  101  222 1    
   201  101  223 1    
   202  101  224 1    
   203  102  103 2    
   204  102  104 am   BACKBONE|DICT|INTERRES
   205  104  105 1    
   206  104  225 1    
   207  105  106 1    
   208  105  107 1    
   209  105  226 1    
   210  106  227 1    
   211  106  228 1    
   212  106  229 1    
   213  107  108 2    
   214  107  109 am   BACKBONE|DICT|INTERRES
   215  109  110 1    
   216  109  230 1    
   217  110  111 1    
   218  110  112 1    
   219  110  231 1    
   220  111  232 1    
   221  111  233 1    
   222  111  234 1    
   223  112  113 2    
   224  112  114 am   BACKBONE|DICT|INTERRES
   225  114  115 1    
   226  114  235 1    
   227  115  116 1    
   228  115  117 1    
   229  115  236 1    
   230  116  237 1    
   231  116  238 1    
   232  116  239 1    
   233  117  118 2    
   234  117  119 am   BACKBONE|DICT|INTERRES
   235  119  120 1    
   236  119  240 1    
   237  120  121 1    
   238  120  124 1    
   239  120  241 1    
   240  121  122 am   BACKBONE|DICT|INTERRES
   241  121  123 2    
   242  122  242 1    
   243  122  243 1    
   244  124  125 1    
   245  124  244 1    
   246  124  245 1    
   247  125  126 1    
   248  126  246 1    
   249  126  247 1    
@<TRIPOS>SUBSTRUCTURE
     1 UNK         1 GROUP             0       ****    0 ROOT    
