@<TRIPOS>MOLECULE
3R540
247   249    1
SMALL
USER_CHARGES


@<TRIPOS>ATOM
      1 CA          4.5063  -12.0770  -44.6271 C.3       0 UNK        -0.1800 
      2 C           3.1268  -12.3142  -45.2223 C.2       0 UNK         0.5000 
      3 O           2.1805  -12.5878  -44.4847 O.2       0 UNK        -0.5000 
      4 N           3.0087  -12.2101  -46.5521 N.am      1 UNK        -0.5000 
      5 CA          1.7712  -12.4278  -47.3104 C.3       1 UNK         0.1400 
      6 C6          2.0485  -12.4824  -48.8343 C.3       23 UNK        -0.0398 
      7 S7          0.8071  -13.4517  -49.7534 S.3       23 UNK        -0.2404 
      8 C8          1.6805  -15.0388  -49.8905 C.3       23 UNK        -0.0205 
      9 C9          0.9136  -16.0344  -50.7421 C.ar      23 UNK        -0.0193 
     10 C10         1.1485  -16.1169  -52.1177 C.ar      23 UNK        -0.1150 
     11 C11         0.4851  -17.0678  -52.9001 C.ar      23 UNK        -0.0193 
     12 C12        -0.4204  -17.9415  -52.2859 C.ar      23 UNK        -0.1150 
     13 C13        -0.6757  -17.8552  -50.9148 C.ar      23 UNK        -0.0193 
     14 C14        -0.0054  -16.9004  -50.1476 C.ar      23 UNK        -0.1150 
     15 C15        -1.6701  -18.7917  -50.2527 C.3       23 UNK        -0.0205 
     16 S16        -0.8236  -20.2034  -49.4867 S.3       23 UNK        -0.2404 
     17 C17        -2.1287  -20.7681  -48.3521 C.3       23 UNK        -0.0398 
     18 CA         -1.7106  -22.0321  -47.5690 C.3       11 UNK         0.1400 
     19 N          -0.5274  -21.8226  -46.7297 N.am      11 UNK        -0.5000 
     20 C           0.1920  -22.8080  -46.1756 C.2       10 UNK         0.5000 
     21 O          -0.0499  -24.0030  -46.3409 O.2       10 UNK        -0.5000 
     22 CA          1.3387  -22.3889  -45.2357 C.3       10 UNK         0.1400 
     23 CB          2.5862  -21.9994  -46.0423 C.3       10 UNK        -0.1800 
     24 N           0.9687  -21.2835  -44.3514 N.am      10 UNK        -0.5000 
     25 C          -0.0303  -21.3208  -43.4579 C.2       9 UNK         0.5000 
     26 O          -0.6916  -22.3298  -43.2170 O.2       9 UNK        -0.5000 
     27 CA         -0.3930  -19.9957  -42.7618 C.3       9 UNK         0.1400 
     28 CB          0.4263  -19.8198  -41.4767 C.3       9 UNK        -0.1800 
     29 N          -0.2158  -18.8279  -43.6291 N.am      9 UNK        -0.5000 
     30 C          -0.8843  -18.6191  -44.7734 C.2       8 UNK         0.5000 
     31 O          -1.7456  -19.3858  -45.2054 O.2       8 UNK        -0.5000 
     32 CA         -0.5026  -17.3729  -45.5895 C.3       8 UNK         0.1400 
     33 CB         -1.2872  -16.1458  -45.1071 C.3       8 UNK        -0.1800 
     34 N           0.9316  -17.0990  -45.5020 N.am      8 UNK        -0.5000 
     35 C           1.8521  -17.6542  -46.3026 C.2       7 UNK         0.5000 
     36 O           1.5785  -18.4025  -47.2393 O.2       7 UNK        -0.5000 
     37 CA          3.3306  -17.3448  -45.9930 C.3       7 UNK         0.1400 
     38 CB          3.7933  -16.0841  -46.7387 C.3       7 UNK        -0.1800 
     39 N           3.5987  -17.1773  -44.5645 N.am      7 UNK        -0.5000 
     40 C           3.5009  -18.1541  -43.6528 C.2       6 UNK         0.5000 
     41 O           3.1748  -19.3106  -43.9205 O.2       6 UNK        -0.5000 
     42 CA          3.7726  -17.7604  -42.1879 C.3       6 UNK         0.1400 
     43 CB          5.2699  -17.8902  -41.8716 C.3       6 UNK        -0.1800 
     44 N           3.3190  -16.4154  -41.8143 N.am      6 UNK        -0.5000 
     45 C           2.0862  -15.9145  -41.9827 C.2       5 UNK         0.5000 
     46 O           1.1874  -16.5196  -42.5720 O.2       5 UNK        -0.5000 
     47 CA          1.8165  -14.5119  -41.3985 C.3       5 UNK         0.1400 
     48 CB          3.0901  -13.6608  -41.2232 C.3       5 UNK        -0.1800 
     49 N           0.8841  -13.7727  -42.2428 N.am      5 UNK        -0.5000 
     50 C          -0.4483  -13.7576  -42.1119 C.2       4 UNK         0.5000 
     51 O          -1.0618  -14.3730  -41.2376 O.2       4 UNK        -0.5000 
     52 CA         -1.2048  -12.8723  -43.1259 C.3       4 UNK         0.1400 
     53 CB         -2.6953  -12.6748  -42.7814 C.3       4 UNK        -0.1800 
     54 N          -0.5331  -11.5866  -43.3356 N.am      4 UNK        -0.5000 
     55 C          -0.2804  -10.6376  -42.4199 C.2       3 UNK         0.5000 
     56 O          -0.6996  -10.6660  -41.2623 O.2       3 UNK        -0.5000 
     57 CA          0.6238   -9.4678  -42.8568 C.3       3 UNK         0.1400 
     58 CB          2.0132   -9.6042  -42.2129 C.3       3 UNK        -0.1800 
     59 N           0.7898   -9.3849  -44.3084 N.am      3 UNK        -0.5000 
     60 C          -0.1074   -8.8597  -45.1534 C.2       2 UNK         0.5000 
     61 O          -1.1583   -8.3285  -44.7934 O.2       2 UNK        -0.5000 
     62 CA          0.2207   -8.9590  -46.6554 C.3       2 UNK         0.1400 
     63 CB          0.8903   -7.6664  -47.1462 C.3       2 UNK        -0.1800 
     64 N           1.0841  -10.0981  -46.9817 N.am      2 UNK        -0.5000 
     65 C           0.6930  -11.3810  -46.9601 C.2       1 UNK         0.5000 
     66 O          -0.4361  -11.7466  -46.6322 O.2       1 UNK        -0.5000 
     67 C          -2.8936  -22.5707  -46.7444 C.2       11 UNK         0.5000 
     68 O          -3.5920  -23.4683  -47.2114 O.2       11 UNK        -0.5000 
     69 N          -3.0798  -22.0525  -45.5220 N.am      12 UNK        -0.5000 
     70 CA         -4.0980  -22.5262  -44.5806 C.3       12 UNK         0.1400 
     71 CB         -4.1486  -21.5972  -43.3585 C.3       12 UNK        -0.1800 
     72 C          -3.8800  -23.9926  -44.1558 C.2       12 UNK         0.5000 
     73 O          -4.8503  -24.7429  -44.0488 O.2       12 UNK        -0.5000 
     74 N          -2.6117  -24.3787  -43.9589 N.am      13 UNK        -0.5000 
     75 CA         -2.1914  -25.7501  -43.6760 C.3       13 UNK         0.1400 
     76 CB         -0.7369  -25.7466  -43.1809 C.3       13 UNK        -0.1800 
     77 C          -2.3561  -26.6853  -44.8894 C.2       13 UNK         0.5000 
     78 O          -2.8182  -27.8145  -44.7206 O.2       13 UNK        -0.5000 
     79 N          -1.9807  -26.2055  -46.0847 N.am      14 UNK        -0.5000 
     80 CA         -2.0963  -26.9388  -47.3485 C.3       14 UNK         0.1400 
     81 CB         -1.2904  -26.2143  -48.4366 C.3       14 UNK        -0.1800 
     82 C          -3.5541  -27.1511  -47.7990 C.2       14 UNK         0.5000 
     83 O          -3.8605  -28.1972  -48.3733 O.2       14 UNK        -0.5000 
     84 N          -4.4214  -26.1669  -47.5207 N.am      15 UNK        -0.5000 
     85 CA         -5.8626  -26.1462  -47.7761 C.3       15 UNK         0.1400 
     86 CB         -6.5876  -27.1232  -46.8246 C.3       15 UNK        -0.1800 
     87 C          -6.1796  -26.3689  -49.2680 C.2       15 UNK         0.5000 
     88 O          -5.9382  -25.4720  -50.0749 O.2       15 UNK        -0.5000 
     89 N          -6.6747  -27.5616  -49.6231 N.am      16 UNK        -0.5000 
     90 CA         -6.9698  -27.9729  -50.9978 C.3       16 UNK         0.1400 
     91 CB         -7.7060  -29.3210  -50.9647 C.3       16 UNK        -0.1800 
     92 C          -5.7263  -28.0594  -51.9082 C.2       16 UNK         0.5000 
     93 O          -5.8675  -27.9510  -53.1266 O.2       16 UNK        -0.5000 
     94 N          -4.5392  -28.2443  -51.3134 N.am      17 UNK        -0.5000 
     95 CA         -3.2574  -28.3039  -52.0178 C.3       17 UNK         0.1400 
     96 CB         -2.3253  -29.2679  -51.2642 C.3       17 UNK        -0.1800 
     97 C          -2.5937  -26.9217  -52.1942 C.2       17 UNK         0.5000 
     98 O          -1.5300  -26.8498  -52.8122 O.2       17 UNK        -0.5000 
     99 N          -3.1915  -25.8554  -51.6414 N.am      18 UNK        -0.5000 
    100 CA        -2.6806  -24.4866  -51.7305 C.3       18 UNK         0.1400 
    101 CB        -3.4173  -23.6083  -50.7106 C.3       18 UNK        -0.1800 
    102 C         -2.8357  -23.8833  -53.1384 C.2       18 UNK         0.5000 
    103 O         -3.6779  -24.3276  -53.9240 O.2       18 UNK        -0.5000 
    104 N         -2.0493  -22.8349  -53.4089 N.am      19 UNK        -0.5000 
    105 CA        -2.1242  -22.0188  -54.6184 C.3       19 UNK         0.1400 
    106 CB        -0.7826  -21.2932  -54.8132 C.3       19 UNK        -0.1800 
    107 C         -3.3184  -21.0476  -54.5386 C.2       19 UNK         0.5000 
    108 O         -3.1471  -19.8629  -54.2452 O.2       19 UNK        -0.5000 
    109 N         -4.5232  -21.5766  -54.7855 N.am      20 UNK        -0.5000 
    110 CA        -5.8100  -20.8738  -54.7054 C.3       20 UNK         0.1400 
    111 CB        -6.9387  -21.8895  -54.9394 C.3       20 UNK        -0.1800 
    112 C         -5.9577  -19.6691  -55.6604 C.2       20 UNK         0.5000 
    113 O         -6.8260  -18.8248  -55.4381 O.2       20 UNK        -0.5000 
    114 N         -5.1018  -19.5974  -56.6890 N.am      21 UNK        -0.5000 
    115 CA        -4.9823  -18.4715  -57.6162 C.3       21 UNK         0.1400 
    116 CB        -4.1123  -18.9068  -58.8059 C.3       21 UNK        -0.1800 
    117 C         -4.4063  -17.1918  -56.9717 C.2       21 UNK         0.5000 
    118 O         -4.6088  -16.1073  -57.5203 O.2       21 UNK        -0.5000 
    119 N         -3.7039  -17.3301  -55.8404 N.am      22 UNK        -0.5000 
    120 CA        -3.0747  -16.2304  -55.0905 C.3       22 UNK         0.1400 
    121 C         -3.3177  -16.2885  -53.5571 C.2       22 UNK         0.5000 
    122 N         -3.6984  -17.4194  -52.9764 N.am      22 UNK        -0.7600 
    123 O         -3.2064  -15.2675  -52.8841 O.2       22 UNK        -0.5000 
    124 C124       -1.5774  -16.0391  -55.4584 C.3       23 UNK        -0.0398 
    125 S125       -0.6011  -17.5859  -55.4606 S.3       23 UNK        -0.2404 
    126 C126        0.8144  -17.1712  -54.3875 C.3       23 UNK        -0.0205 
    127 H127        4.4469  -11.3596  -43.8092 H         1 UNK         0.0600 
    128 H128        4.9092  -13.0107  -44.2356 H         1 UNK         0.0600 
    129 H129        5.2051  -11.6888  -45.3683 H         1 UNK         0.0600 
    130 H130        3.8262  -11.9761  -47.0976 H         1 UNK         0.3000 
    131 H131        1.3892  -13.4029  -46.9982 H         1 UNK         0.0600 
    132 H132        3.0275  -12.9263  -49.0201 H         1 UNK         0.0800 
    133 H133        2.1042  -11.4825  -49.2684 H         1 UNK         0.0800 
    134 H134        2.6740  -14.8821  -50.3136 H         1 UNK         0.0800 
    135 H135        1.8266  -15.4471  -48.8905 H         1 UNK         0.0800 
    136 H136        1.8655  -15.4498  -52.5754 H         1 UNK         0.1150 
    137 H137       -0.9358  -18.6871  -52.8730 H         1 UNK         0.1150 
    138 H138       -0.1863  -16.8445  -49.0831 H         1 UNK         0.1150 
    139 H139       -2.2348  -18.2420  -49.4980 H         1 UNK         0.0800 
    140 H140       -2.3955  -19.1600  -50.9797 H         1 UNK         0.0800 
    141 H141       -2.3760  -19.9532  -47.6708 H         1 UNK         0.0800 
    142 H142       -3.0291  -20.9588  -48.9386 H         1 UNK         0.0800 
    143 H143       -1.4579  -22.8015  -48.3015 H         1 UNK         0.0600 
    144 H144       -0.2835  -20.8633  -46.5284 H         1 UNK         0.3000 
    145 H145        1.5877  -23.2484  -44.6101 H         1 UNK         0.0600 
    146 H146        3.4284  -21.7833  -45.3846 H         1 UNK         0.0600 
    147 H147        2.8911  -22.8089  -46.7067 H         1 UNK         0.0600 
    148 H148        2.4084  -21.1165  -46.6577 H         1 UNK         0.0600 
    149 H149        1.5169  -20.4336  -44.4290 H         1 UNK         0.3000 
    150 H150       -1.4484  -20.0382  -42.4872 H         1 UNK         0.0600 
    151 H151        0.1817  -20.5989  -40.7538 H         1 UNK         0.0600 
    152 H152        0.2267  -18.8587  -41.0024 H         1 UNK         0.0600 
    153 H153        1.4947  -19.8872  -41.6747 H         1 UNK         0.0600 
    154 H154        0.4334  -18.1145  -43.3101 H         1 UNK         0.3000 
    155 H155       -0.7760  -17.5572  -46.6310 H         1 UNK         0.0600 
    156 H156       -2.3612  -16.3047  -45.2113 H         1 UNK         0.0600 
    157 H157       -1.0300  -15.2612  -45.6901 H         1 UNK         0.0600 
    158 H158       -1.0886  -15.9316  -44.0571 H         1 UNK         0.0600 
    159 H159        1.2390  -16.5587  -44.7027 H         1 UNK         0.3000 
    160 H160        3.9270  -18.1886  -46.3468 H         1 UNK         0.0600 
    161 H161        3.1815  -15.2179  -46.4853 H         1 UNK         0.0600 
    162 H162        3.7351  -16.2307  -47.8172 H         1 UNK         0.0600 
    163 H163        4.8306  -15.8429  -46.5056 H         1 UNK         0.0600 
    164 H164        3.8609  -16.2546  -44.2517 H         1 UNK         0.3000 
    165 H165        3.2368  -18.4652  -41.5524 H         1 UNK         0.0600 
    166 H166        5.8650  -17.1733  -42.4387 H         1 UNK         0.0600 
    167 H167        5.4659  -17.7264  -40.8118 H         1 UNK         0.0600 
    168 H168        5.6364  -18.8881  -42.1168 H         1 UNK         0.0600 
    169 H169        3.9962  -15.8429  -41.3315 H         1 UNK         0.3000 
    170 H170        1.3739  -14.6575  -40.4113 H         1 UNK         0.0600 
    171 H171        3.7619  -14.0913  -40.4800 H         1 UNK         0.0600 
    172 H172        3.6412  -13.5606  -42.1583 H         1 UNK         0.0600 
    173 H173        2.8428  -12.6563  -40.8785 H         1 UNK         0.0600 
    174 H174        1.2981  -13.2710  -43.0263 H         1 UNK         0.3000 
    175 H175       -1.1560  -13.3913  -44.0831 H         1 UNK         0.0600 
    176 H176       -3.1913  -12.0512  -43.5252 H         1 UNK         0.0600 
    177 H177       -3.2184  -13.6315  -42.7593 H         1 UNK         0.0600 
    178 H178       -2.8303  -12.2066  -41.8062 H         1 UNK         0.0600 
    179 H179       -0.1226  -11.4668  -44.2521 H         1 UNK         0.3000 
    180 H180        0.1682   -8.5425  -42.4977 H         1 UNK         0.0600 
    181 H181        2.6639   -8.7759  -42.4936 H         1 UNK         0.0600 
    182 H182        1.9407   -9.6051  -41.1246 H         1 UNK         0.0600 
    183 H183        2.5025  -10.5332  -42.5069 H         1 UNK         0.0600 
    184 H184        1.6204   -9.8084  -44.6939 H         1 UNK         0.3000 
    185 H185       -0.7232   -9.0795  -47.1915 H         1 UNK         0.0600 
    186 H186        1.0626   -7.6952  -48.2223 H         1 UNK         0.0600 
    187 H187        0.2610   -6.7990  -46.9426 H         1 UNK         0.0600 
    188 H188        1.8499   -7.4979  -46.6558 H         1 UNK         0.0600 
    189 H189        2.0373   -9.8840  -47.2370 H         1 UNK         0.3000 
    190 H190       -2.4895  -21.2837  -45.2217 H         1 UNK         0.3000 
    191 H191       -5.0640  -22.4689  -45.0867 H         1 UNK         0.0600 
    192 H192       -4.9737  -21.8699  -42.6996 H         1 UNK         0.0600 
    193 H193       -4.2972  -20.5588  -43.6554 H         1 UNK         0.0600 
    194 H194       -3.2331  -21.6514  -42.7708 H         1 UNK         0.0600 
    195 H195       -1.8803  -23.6745  -43.9900 H         1 UNK         0.3000 
    196 H196       -2.8199  -26.1362  -42.8707 H         1 UNK         0.0600 
    197 H197       -0.4033  -26.7568  -42.9406 H         1 UNK         0.0600 
    198 H198       -0.6303  -25.1446  -42.2783 H         1 UNK         0.0600 
    199 H199       -0.0555  -25.3446  -43.9311 H         1 UNK         0.0600 
    200 H200       -1.5432  -25.2904  -46.1300 H         1 UNK         0.3000 
    201 H201       -1.6530  -27.9263  -47.2048 H         1 UNK         0.0600 
    202 H202       -0.2359  -26.1512  -48.1681 H         1 UNK         0.0600 
    203 H203       -1.6541  -25.2004  -48.5968 H         1 UNK         0.0600 
    204 H204       -1.3500  -26.7406  -49.3889 H         1 UNK         0.0600 
    205 H205       -4.0445  -25.2979  -47.1506 H         1 UNK         0.3000 
    206 H206       -6.2029  -25.1376  -47.5369 H         1 UNK         0.0600 
    207 H207       -6.4117  -26.8468  -45.7846 H         1 UNK         0.0600 
    208 H208       -7.6663  -27.1012  -46.9844 H         1 UNK         0.0600 
    209 H209       -6.2510  -28.1529  -46.9489 H         1 UNK         0.0600 
    210 H210       -6.8077  -28.2575  -48.9039 H         1 UNK         0.3000 
    211 H211       -7.6394  -27.2279  -51.4324 H         1 UNK         0.0600 
    212 H212       -7.0914  -30.1032  -50.5173 H         1 UNK         0.0600 
    213 H213       -7.9708  -29.6470  -51.9715 H         1 UNK         0.0600 
    214 H214       -8.6319  -29.2518  -50.3935 H         1 UNK         0.0600 
    215 H215       -4.4993  -28.3098  -50.3005 H         1 UNK         0.3000 
    216 H216       -3.4137  -28.7122  -53.0184 H         1 UNK         0.0600 
    217 H217       -1.3824  -29.3989  -51.7965 H         1 UNK         0.0600 
    218 H218       -2.7778  -30.2545  -51.1628 H         1 UNK         0.0600 
    219 H219       -2.0877  -28.9050  -50.2647 H         1 UNK         0.0600 
    220 H220       -4.0921  -25.9709  -51.1936 H         1 UNK         0.3000 
    221 H221       -1.6198  -24.5041  -51.4710 H         1 UNK         0.0600 
    222 H222       -4.4586  -23.4493  -50.9933 H         1 UNK         0.0600 
    223 H223       -3.4088  -24.0599  -49.7207 H         1 UNK         0.0600 
    224 H224       -2.9484  -22.6279  -50.6315 H         1 UNK         0.0600 
    225 H225       -1.4106  -22.5088  -52.6982 H         1 UNK         0.3000 
    226 H226       -2.2760  -22.6689  -55.4828 H         1 UNK         0.0600 
    227 H227       -0.8100  -20.6542  -55.6965 H         1 UNK         0.0600 
    228 H228       -0.5313  -20.6652  -53.9589 H         1 UNK         0.0600 
    229 H229        0.0316  -22.0041  -54.9538 H         1 UNK         0.0600 
    230 H230       -4.5680  -22.5752  -54.9505 H         1 UNK         0.3000 
    231 H231       -5.9054  -20.4862  -53.6892 H         1 UNK         0.0600 
    232 H232       -7.9177  -21.4168  -54.8493 H         1 UNK         0.0600 
    233 H233       -6.9011  -22.6968  -54.2075 H         1 UNK         0.0600 
    234 H234       -6.8782  -22.3337  -55.9337 H         1 UNK         0.0600 
    235 H235       -4.4310  -20.3433  -56.7961 H         1 UNK         0.3000 
    236 H236       -5.9798  -18.2307  -57.9895 H         1 UNK         0.0600 
    237 H237       -3.1025  -19.1712  -58.4891 H         1 UNK         0.0600 
    238 H238       -4.5425  -19.7688  -59.3162 H         1 UNK         0.0600 
    239 H239       -4.0261  -18.1056  -59.5412 H         1 UNK         0.0600 
    240 H240       -3.5658  -18.2561  -55.4534 H         1 UNK         0.3000 
    241 H241       -3.5772  -15.3058  -55.3811 H         1 UNK         0.0600 
    242 H242       -3.8823  -17.4126  -51.9878 H         1 UNK         0.3800 
    243 H243       -3.6599  -18.3041  -53.4748 H         1 UNK         0.3800 
    244 H244       -1.1083  -15.3005  -54.8058 H         1 UNK         0.0800 
    245 H245       -1.5125  -15.6205  -56.4633 H         1 UNK         0.0800 
    246 H246        1.5724  -17.9456  -54.5101 H         1 UNK         0.0800 
    247 H247        1.2630  -16.2440  -54.7476 H         1 UNK         0.0800 
@<TRIPOS>BOND
     1    1    2 1    
     2    1  127 1    
     3    1  128 1    
     4    1  129 1    
     5    2    3 2    
     6    2    4 am   BACKBONE|DICT|INTERRES
     7    4    5 1    
     8    4  130 1    
     9    5    6 1    
    10    5   65 1    
    11    5  131 1    
    12    6    7 1    
    13    6  132 1    
    14    6  133 1    
    15    7    8 1    
    16    8    9 1    
    17    8  134 1    
    18    8  135 1    
    19    9   10 ar   
    20    9   14 ar   
    21   10   11 ar   
    22   10  136 1    
    23   11   12 ar   
    24   11  126 1    
    25   12   13 ar   
    26   12  137 1    
    27   13   14 ar   
    28   13   15 1    
    29   14  138 1    
    30   15   16 1    
    31   15  139 1    
    32   15  140 1    
    33   16   17 1    
    34   17   18 1    
    35   17  141 1    
    36   17  142 1    
    37   18   19 1    
    38   18   67 1    
    39   18  143 1    
    40   19   20 am   BACKBONE|DICT|INTERRES
    41   19  144 1    
    42   20   21 2    
    43   20   22 1    
    44   22   23 1    
    45   22   24 1    
    46   22  145 1    
    47   23  146 1    
    48   23  147 1    
    49   23  148 1    
    50   24   25 am   BACKBONE|DICT|INTERRES
    51   24  149 1    
    52   25   26 2    
    53   25   27 1    
    54   27   28 1    
    55   27   29 1    
    56   27  150 1    
    57   28  151 1    
    58   28  152 1    
    59   28  153 1    
    60   29   30 am   BACKBONE|DICT|INTERRES
    61   29  154 1    
    62   30   31 2    
    63   30   32 1    
    64   32   33 1    
    65   32   34 1    
    66   32  155 1    
    67   33  156 1    
    68   33  157 1    
    69   33  158 1    
    70   34   35 am   BACKBONE|DICT|INTERRES
    71   34  159 1    
    72   35   36 2    
    73   35   37 1    
    74   37   38 1    
    75   37   39 1    
    76   37  160 1    
    77   38  161 1    
    78   38  162 1    
    79   38  163 1    
    80   39   40 am   BACKBONE|DICT|INTERRES
    81   39  164 1    
    82   40   41 2    
    83   40   42 1    
    84   42   43 1    
    85   42   44 1    
    86   42  165 1    
    87   43  166 1    
    88   43  167 1    
    89   43  168 1    
    90   44   45 am   BACKBONE|DICT|INTERRES
    91   44  169 1    
    92   45   46 2    
    93   45   47 1    
    94   47   48 1    
    95   47   49 1    
    96   47  170 1    
    97   48  171 1    
    98   48  172 1    
    99   48  173 1    
   100   49   50 am   BACKBONE|DICT|INTERRES
   101   49  174 1    
   102   50   51 2    
   103   50   52 1    
   104   52   53 1    
   105   52   54 1    
   106   52  175 1    
   107   53  176 1    
   108   53  177 1    
   109   53  178 1    
   110   54   55 am   BACKBONE|DICT|INTERRES
   111   54  179 1    
   112   55   56 2    
   113   55   57 1    
   114   57   58 1    
   115   57   59 1    
   116   57  180 1    
   117   58  181 1    
   118   58  182 1    
   119   58  183 1    
   120   59   60 am   BACKBONE|DICT|INTERRES
   121   59  184 1    
   122   60   61 2    
   123   60   62 1    
   124   62   63 1    
   125   62   64 1    
   126   62  185 1    
   127   63  186 1    
   128   63  187 1    
   129   63  188 1    
   130   64   65 am   BACKBONE|DICT|INTERRES
   131   64  189 1    
   132   65   66 2    
   133   67   68 2    
   134   67   69 am   BACKBONE|DICT|INTERRES
   135   69   70 1    
   136   69  190 1    
   137   70   71 1    
   138   70   72 1    
   139   70  191 1    
   140   71  192 1    
   141   71  193 1    
   142   71  194 1    
   143   72   73 2    
   144   72   74 am   BACKBONE|DICT|INTERRES
   145   74   75 1    
   146   74  195 1    
   147   75   76 1    
   148   75   77 1    
   149   75  196 1    
   150   76  197 1    
   151   76  198 1    
   152   76  199 1    
   153   77   78 2    
   154   77   79 am   BACKBONE|DICT|INTERRES
   155   79   80 1    
   156   79  200 1    
   157   80   81 1    
   158   80   82 1    
   159   80  201 1    
   160   81  202 1    
   161   81  203 1    
   162   81  204 1    
   163   82   83 2    
   164   82   84 am   BACKBONE|DICT|INTERRES
   165   84   85 1    
   166   84  205 1    
   167   85   86 1    
   168   85   87 1    
   169   85  206 1    
   170   86  207 1    
   171   86  208 1    
   172   86  209 1    
   173   87   88 2    
   174   87   89 am   BACKBONE|DICT|INTERRES
   175   89   90 1    
   176   89  210 1    
   177   90   91 1    
   178   90   92 1    
   179   90  211 1    
   180   91  212 1    
   181   91  213 1    
   182   91  214 1    
   183   92   93 2    
   184   92   94 am   BACKBONE|DICT|INTERRES
   185   94   95 1    
   186   94  215 1    
   187   95   96 1    
   188   95   97 1    
   189   95  216 1    
   190   96  217 1    
   191   96  218 1    
   192   96  219 1    
   193   97   98 2    
   194   97   99 am   BACKBONE|DICT|INTERRES
   195   99  100 1    
   196   99  220 1    
   197  100  101 1    
   198  100  102 1    
   199  100  221 1    
   200  101  222 1    
   201  101  223 1    
   202  101  224 1    
   203  102  103 2    
   204  102  104 am   BACKBONE|DICT|INTERRES
   205  104  105 1    
   206  104  225 1    
   207  105  106 1    
   208  105  107 1    
   209  105  226 1    
   210  106  227 1    
   211  106  228 1    
   212  106  229 1    
   213  107  108 2    
   214  107  109 am   BACKBONE|DICT|INTERRES
   215  109  110 1    
   216  109  230 1    
   217  110  111 1    
   218  110  112 1    
   219  110  231 1    
   220  111  232 1    
   221  111  233 1    
   222  111  234 1    
   223  112  113 2    
   224  112  114 am   BACKBONE|DICT|INTERRES
   225  114  115 1    
   226  114  235 1    
   227  115  116 1    
   228  115  117 1    
   229  115  236 1    
   230  116  237 1    
   231  116  238 1    
   232  116  239 1    
   233  117  118 2    
   234  117  119 am   BACKBONE|DICT|INTERRES
   235  119  120 1    
   236  119  240 1    
   237  120  121 1    
   238  120  124 1    
   239  120  241 1    
   240  121  122 am   BACKBONE|DICT|INTERRES
   241  121  123 2    
   242  122  242 1    
   243  122  243 1    
   244  124  125 1    
   245  124  244 1    
   246  124  245 1    
   247  125  126 1    
   248  126  246 1    
   249  126  247 1    
@<TRIPOS>SUBSTRUCTURE
     1 UNK         1 GROUP             0       ****    0 ROOT    
