@<TRIPOS>MOLECULE
3R540
247   249    1
SMALL
USER_CHARGES


@<TRIPOS>ATOM
      1 CA          1.3907  -12.4330  -47.9095 C.3       0 UNK        -0.1800 
      2 C           0.7891  -13.7426  -47.4230 C.2       0 UNK         0.5000 
      3 O          -0.0972  -13.7280  -46.5709 O.2       0 UNK        -0.5000 
      4 N           1.2509  -14.8712  -47.9791 N.am      1 UNK        -0.5000 
      5 CA          0.9015  -16.2497  -47.5967 C.3       1 UNK         0.1400 
      6 C6          1.7408  -17.2901  -48.3738 C.3       23 UNK        -0.0398 
      7 S7          3.5343  -17.1100  -48.0862 S.3       23 UNK        -0.2404 
      8 C8          4.2087  -17.2302  -49.7786 C.3       23 UNK        -0.0205 
      9 C9          3.7610  -18.4853  -50.5216 C.ar      23 UNK        -0.0193 
     10 C10         3.2713  -18.3855  -51.8268 C.ar      23 UNK        -0.1150 
     11 C11         2.8371  -19.5233  -52.5122 C.ar      23 UNK        -0.0193 
     12 C12         2.8749  -20.7668  -51.8767 C.ar      23 UNK        -0.1150 
     13 C13         3.3723  -20.8866  -50.5767 C.ar      23 UNK        -0.0193 
     14 C14         3.8357  -19.7434  -49.9155 C.ar      23 UNK        -0.1150 
     15 C15         3.4197  -22.2605  -49.9150 C.3       23 UNK        -0.0205 
     16 S16         2.9538  -22.2417  -48.1532 S.3       23 UNK        -0.2404 
     17 C17         1.2375  -21.6175  -48.2144 C.3       23 UNK        -0.0398 
     18 CA          0.2506  -22.5675  -47.5013 C.3       11 UNK         0.1400 
     19 N           0.6572  -22.8408  -46.1196 N.am      11 UNK        -0.5000 
     20 C           0.2626  -23.9008  -45.4033 C.2       10 UNK         0.5000 
     21 O          -0.5270  -24.7461  -45.8187 O.2       10 UNK        -0.5000 
     22 CA          0.8067  -24.0113  -43.9660 C.3       10 UNK         0.1400 
     23 CB          2.1581  -24.7405  -43.9596 C.3       10 UNK        -0.1800 
     24 N           0.9576  -22.7115  -43.3106 N.am      10 UNK        -0.5000 
     25 C          -0.0468  -21.8560  -43.0771 C.2       9 UNK         0.5000 
     26 O          -1.2238  -22.1018  -43.3385 O.2       9 UNK        -0.5000 
     27 CA          0.3248  -20.4728  -42.5167 C.3       9 UNK         0.1400 
     28 CB          0.1800  -20.4485  -40.9888 C.3       9 UNK        -0.1800 
     29 N           1.6701  -20.0168  -42.8823 N.am      9 UNK        -0.5000 
     30 C           2.1129  -19.8089  -44.1297 C.2       8 UNK         0.5000 
     31 O           1.4231  -19.9868  -45.1354 O.2       8 UNK        -0.5000 
     32 CA          3.5794  -19.3515  -44.2652 C.3       8 UNK         0.1400 
     33 CB          4.2353  -19.9310  -45.5297 C.3       8 UNK        -0.1800 
     34 N           3.7269  -17.8948  -44.2795 N.am      8 UNK        -0.5000 
     35 C           3.5045  -17.0762  -43.2413 C.2       7 UNK         0.5000 
     36 O           3.0904  -17.4703  -42.1486 O.2       7 UNK        -0.5000 
     37 CA          3.8408  -15.5826  -43.4567 C.3       7 UNK         0.1400 
     38 CB          3.3281  -15.0402  -44.8024 C.3       7 UNK        -0.1800 
     39 N           3.3161  -14.7390  -42.3812 N.am      7 UNK        -0.5000 
     40 C           3.9316  -14.5198  -41.2102 C.2       6 UNK         0.5000 
     41 O           5.0359  -14.9885  -40.9276 O.2       6 UNK        -0.5000 
     42 CA          3.2301  -13.6037  -40.1846 C.3       6 UNK         0.1400 
     43 CB          3.9451  -12.2452  -40.1032 C.3       6 UNK        -0.1800 
     44 N           1.8163  -13.3652  -40.4777 N.am      6 UNK        -0.5000 
     45 C           0.8169  -14.2013  -40.1705 C.2       5 UNK         0.5000 
     46 O           0.9752  -15.2648  -39.5697 O.2       5 UNK        -0.5000 
     47 CA         -0.6047  -13.7997  -40.6232 C.3       5 UNK         0.1400 
     48 CB         -0.7593  -12.3029  -40.9781 C.3       5 UNK        -0.1800 
     49 N          -1.0680  -14.6400  -41.7313 N.am      5 UNK        -0.5000 
     50 C          -0.4599  -14.8066  -42.9159 C.2       4 UNK         0.5000 
     51 O           0.5631  -14.2085  -43.2451 O.2       4 UNK        -0.5000 
     52 CA         -1.0885  -15.8118  -43.8979 C.3       4 UNK         0.1400 
     53 CB         -0.2955  -17.1215  -43.8434 C.3       4 UNK        -0.1800 
     54 N          -2.4915  -16.1038  -43.5903 N.am      4 UNK        -0.5000 
     55 C          -3.5958  -15.4345  -43.9623 C.2       3 UNK         0.5000 
     56 O          -4.6861  -15.7218  -43.4716 O.2       3 UNK        -0.5000 
     57 CA         -3.5536  -14.3198  -45.0362 C.3       3 UNK         0.1400 
     58 CB         -2.8955  -13.0182  -44.5470 C.3       3 UNK        -0.1800 
     59 N          -2.9864  -14.7401  -46.3189 N.am      3 UNK        -0.5000 
     60 C          -3.5764  -15.5994  -47.1647 C.2       2 UNK         0.5000 
     61 O          -4.6698  -16.1243  -46.9539 O.2       2 UNK        -0.5000 
     62 CA         -2.8446  -15.9124  -48.4855 C.3       2 UNK         0.1400 
     63 CB         -3.3601  -15.0015  -49.6095 C.3       2 UNK        -0.1800 
     64 N          -1.3926  -15.7749  -48.3947 N.am      2 UNK        -0.5000 
     65 C          -0.5990  -16.6010  -47.7019 C.2       1 UNK         0.5000 
     66 O          -1.0111  -17.6175  -47.1483 O.2       1 UNK        -0.5000 
     67 C          -1.1892  -22.0196  -47.5726 C.2       11 UNK         0.5000 
     68 O          -1.8643  -22.2195  -48.5855 O.2       11 UNK        -0.5000 
     69 N          -1.6428  -21.3638  -46.4942 N.am      12 UNK        -0.5000 
     70 CA         -3.0335  -20.9610  -46.3062 C.3       12 UNK         0.1400 
     71 CB         -3.1314  -19.8324  -45.2680 C.3       12 UNK        -0.1800 
     72 C          -3.9047  -22.1612  -45.9014 C.2       12 UNK         0.5000 
     73 O          -4.9770  -22.3454  -46.4741 O.2       12 UNK        -0.5000 
     74 N          -3.4137  -22.9802  -44.9587 N.am      13 UNK        -0.5000 
     75 CA         -4.0753  -24.1929  -44.4657 C.3       13 UNK         0.1400 
     76 CB         -3.2862  -24.7587  -43.2759 C.3       13 UNK        -0.1800 
     77 C          -4.2661  -25.2693  -45.5513 C.2       13 UNK         0.5000 
     78 O          -5.3104  -25.9205  -45.5857 O.2       13 UNK        -0.5000 
     79 N          -3.2763  -25.4033  -46.4448 N.am      14 UNK        -0.5000 
     80 CA         -3.3245  -26.2551  -47.6361 C.3       14 UNK         0.1400 
     81 CB         -1.8934  -26.4465  -48.1647 C.3       14 UNK        -0.1800 
     82 C          -4.2314  -25.7018  -48.7555 C.2       14 UNK         0.5000 
     83 O          -4.4604  -26.4057  -49.7389 O.2       14 UNK        -0.5000 
     84 N          -4.6960  -24.4506  -48.6087 N.am      15 UNK        -0.5000 
     85 CA         -5.5395  -23.6711  -49.5229 C.3       15 UNK         0.1400 
     86 CB         -6.8561  -24.4107  -49.8298 C.3       15 UNK        -0.1800 
     87 C          -4.8215  -23.1983  -50.8043 C.2       15 UNK         0.5000 
     88 O          -5.4413  -22.5137  -51.6214 O.2       15 UNK        -0.5000 
     89 N          -3.5305  -23.5295  -50.9415 N.am      16 UNK        -0.5000 
     90 CA         -2.6760  -23.2341  -52.0890 C.3       16 UNK         0.1400 
     91 CB         -1.3116  -23.9133  -51.8901 C.3       16 UNK        -0.1800 
     92 C          -2.5008  -21.7280  -52.3299 C.2       16 UNK         0.5000 
     93 O          -2.6688  -21.2654  -53.4582 O.2       16 UNK        -0.5000 
     94 N          -2.1914  -20.9900  -51.2586 N.am      17 UNK        -0.5000 
     95 CA         -2.0382  -19.5389  -51.3095 C.3       17 UNK         0.1400 
     96 CB         -0.9618  -19.1085  -50.3037 C.3       17 UNK        -0.1800 
     97 C          -3.3651  -18.8102  -51.0398 C.2       17 UNK         0.5000 
     98 O          -3.5605  -17.7139  -51.5603 O.2       17 UNK        -0.5000 
     99 N          -4.2431  -19.4084  -50.2223 N.am      18 UNK        -0.5000 
    100 CA        -5.4735  -18.7707  -49.7510 C.3       18 UNK         0.1400 
    101 CB        -5.9019  -19.3870  -48.4107 C.3       18 UNK        -0.1800 
    102 C         -6.6276  -18.8136  -50.7664 C.2       18 UNK         0.5000 
    103 O         -7.2632  -17.7821  -50.9866 O.2       18 UNK        -0.5000 
    104 N         -6.9024  -19.9934  -51.3402 N.am      19 UNK        -0.5000 
    105 CA        -8.0646  -20.2234  -52.2037 C.3       19 UNK         0.1400 
    106 CB        -8.8084  -21.4875  -51.7469 C.3       19 UNK        -0.1800 
    107 C         -7.6492  -20.3541  -53.6729 C.2       19 UNK         0.5000 
    108 O         -8.2653  -19.7262  -54.5346 O.2       19 UNK        -0.5000 
    109 N         -6.6048  -21.1526  -53.9356 N.am      20 UNK        -0.5000 
    110 CA        -6.0624  -21.3701  -55.2796 C.3       20 UNK         0.1400 
    111 CB        -5.3002  -22.7026  -55.3103 C.3       20 UNK        -0.1800 
    112 C         -5.1827  -20.2034  -55.7725 C.2       20 UNK         0.5000 
    113 O         -4.8571  -20.1577  -56.9602 O.2       20 UNK        -0.5000 
    114 N         -4.8207  -19.2859  -54.8610 N.am      21 UNK        -0.5000 
    115 CA        -4.0936  -18.0322  -55.0916 C.3       21 UNK         0.1400 
    116 CB        -5.0042  -17.0253  -55.8242 C.3       21 UNK        -0.1800 
    117 C         -2.7311  -18.2236  -55.7899 C.2       21 UNK         0.5000 
    118 O         -2.3267  -17.3780  -56.5902 O.2       21 UNK        -0.5000 
    119 N         -2.0652  -19.3469  -55.4904 N.am      22 UNK        -0.5000 
    120 CA        -0.8115  -19.8082  -56.1080 C.3       22 UNK         0.1400 
    121 C         -0.9417  -20.2163  -57.6095 C.2       22 UNK         0.5000 
    122 N         -2.1396  -20.4001  -58.1543 N.am      22 UNK        -0.7600 
    123 O          0.0618  -20.4069  -58.2916 O.2       22 UNK        -0.5000 
    124 C124        0.3842  -18.8492  -55.8442 C.3       23 UNK        -0.0398 
    125 S125        0.7190  -18.6397  -54.0607 S.3       23 UNK        -0.2404 
    126 C126        2.3577  -19.4153  -53.9495 C.3       23 UNK        -0.0205 
    127 H127        1.8551  -11.9049  -47.0766 H         1 UNK         0.0600 
    128 H128        0.6122  -11.7951  -48.3278 H         1 UNK         0.0600 
    129 H129        2.1491  -12.5941  -48.6759 H         1 UNK         0.0600 
    130 H130        1.9764  -14.8003  -48.6781 H         1 UNK         0.3000 
    131 H131        1.1481  -16.3556  -46.5403 H         1 UNK         0.0600 
    132 H132        1.4729  -18.3044  -48.0736 H         1 UNK         0.0800 
    133 H133        1.5266  -17.2212  -49.4416 H         1 UNK         0.0800 
    134 H134        3.9212  -16.3335  -50.3296 H         1 UNK         0.0800 
    135 H135        5.2979  -17.2241  -49.7248 H         1 UNK         0.0800 
    136 H136        3.2276  -17.4224  -52.3160 H         1 UNK         0.1150 
    137 H137        2.5313  -21.6466  -52.4026 H         1 UNK         0.1150 
    138 H138        4.2345  -19.8266  -48.9146 H         1 UNK         0.1150 
    139 H139        2.7669  -22.9624  -50.4367 H         1 UNK         0.0800 
    140 H140        4.4329  -22.6537  -50.0047 H         1 UNK         0.0800 
    141 H141        0.9379  -21.4775  -49.2543 H         1 UNK         0.0800 
    142 H142        1.2221  -20.6287  -47.7545 H         1 UNK         0.0800 
    143 H143        0.2542  -23.5142  -48.0462 H         1 UNK         0.0600 
    144 H144        1.2699  -22.1555  -45.6967 H         1 UNK         0.3000 
    145 H145        0.0960  -24.6004  -43.3836 H         1 UNK         0.0600 
    146 H146        2.5201  -24.8927  -42.9427 H         1 UNK         0.0600 
    147 H147        2.0723  -25.7241  -44.4235 H         1 UNK         0.0600 
    148 H148        2.9191  -24.1840  -44.5086 H         1 UNK         0.0600 
    149 H149        1.8944  -22.4296  -43.0632 H         1 UNK         0.3000 
    150 H150       -0.3954  -19.7720  -42.9373 H         1 UNK         0.0600 
    151 H151        0.8950  -21.1159  -40.5063 H         1 UNK         0.0600 
    152 H152       -0.8199  -20.7619  -40.6852 H         1 UNK         0.0600 
    153 H153        0.3380  -19.4441  -40.5949 H         1 UNK         0.0600 
    154 H154        2.2845  -19.7778  -42.1156 H         1 UNK         0.3000 
    155 H155        4.1340  -19.7359  -43.4066 H         1 UNK         0.0600 
    156 H156        3.7361  -19.5911  -46.4374 H         1 UNK         0.0600 
    157 H157        4.1926  -21.0208  -45.5247 H         1 UNK         0.0600 
    158 H158        5.2857  -19.6484  -45.5989 H         1 UNK         0.0600 
    159 H159        4.0371  -17.4953  -45.1534 H         1 UNK         0.3000 
    160 H160        4.9296  -15.5006  -43.4655 H         1 UNK         0.0600 
    161 H161        2.2593  -15.2046  -44.9224 H         1 UNK         0.0600 
    162 H162        3.8356  -15.5117  -45.6425 H         1 UNK         0.0600 
    163 H163        3.5069  -13.9684  -44.8893 H         1 UNK         0.0600 
    164 H164        2.3811  -14.3695  -42.5256 H         1 UNK         0.3000 
    165 H165        3.3116  -14.0868  -39.2085 H         1 UNK         0.0600 
    166 H166        3.5004  -11.6103  -39.3366 H         1 UNK         0.0600 
    167 H167        4.9981  -12.3709  -39.8473 H         1 UNK         0.0600 
    168 H168        3.8998  -11.7094  -41.0522 H         1 UNK         0.0600 
    169 H169        1.5984  -12.5313  -41.0038 H         1 UNK         0.3000 
    170 H170       -1.2633  -14.0050  -39.7780 H         1 UNK         0.0600 
    171 H171       -0.4453  -11.6682  -40.1485 H         1 UNK         0.0600 
    172 H172       -0.1776  -12.0176  -41.8551 H         1 UNK         0.0600 
    173 H173       -1.8016  -12.0621  -41.1875 H         1 UNK         0.0600 
    174 H174       -1.8941  -15.1895  -41.5441 H         1 UNK         0.3000 
    175 H175       -0.9912  -15.4138  -44.9027 H         1 UNK         0.0600 
    176 H176        0.7215  -16.9740  -44.2035 H         1 UNK         0.0600 
    177 H177       -0.2264  -17.5021  -42.8241 H         1 UNK         0.0600 
    178 H178       -0.7455  -17.8918  -44.4686 H         1 UNK         0.0600 
    179 H179       -2.6244  -16.8654  -42.9425 H         1 UNK         0.3000 
    180 H180       -4.5979  -14.0636  -45.2294 H         1 UNK         0.0600 
    181 H181       -1.8094  -13.0508  -44.6055 H         1 UNK         0.0600 
    182 H182       -3.1676  -12.7980  -43.5138 H         1 UNK         0.0600 
    183 H183       -3.2212  -12.1727  -45.1529 H         1 UNK         0.0600 
    184 H184       -2.0706  -14.3710  -46.5530 H         1 UNK         0.3000 
    185 H185       -3.0697  -16.9474  -48.7471 H         1 UNK         0.0600 
    186 H186       -4.4344  -15.1275  -49.7509 H         1 UNK         0.0600 
    187 H187       -3.1769  -13.9486  -49.3916 H         1 UNK         0.0600 
    188 H188       -2.8804  -15.2362  -50.5598 H         1 UNK         0.0600 
    189 H189       -0.9817  -14.9537  -48.8139 H         1 UNK         0.3000 
    190 H190       -1.0186  -21.2327  -45.7108 H         1 UNK         0.3000 
    191 H191       -3.4089  -20.5769  -47.2558 H         1 UNK         0.0600 
    192 H192       -2.5977  -18.9443  -45.6011 H         1 UNK         0.0600 
    193 H193       -4.1698  -19.5384  -45.1097 H         1 UNK         0.0600 
    194 H194       -2.7233  -20.1259  -44.3013 H         1 UNK         0.0600 
    195 H195       -2.5436  -22.7257  -44.4975 H         1 UNK         0.3000 
    196 H196       -5.0664  -23.9044  -44.1097 H         1 UNK         0.0600 
    197 H197       -3.7834  -25.6353  -42.8587 H         1 UNK         0.0600 
    198 H198       -3.1962  -24.0237  -42.4758 H         1 UNK         0.0600 
    199 H199       -2.2807  -25.0602  -43.5689 H         1 UNK         0.0600 
    200 H200       -2.4078  -24.8995  -46.2885 H         1 UNK         0.3000 
    201 H201       -3.7185  -27.2319  -47.3487 H         1 UNK         0.0600 
    202 H202       -1.8783  -27.0986  -49.0389 H         1 UNK         0.0600 
    203 H203       -1.2534  -26.9049  -47.4107 H         1 UNK         0.0600 
    204 H204       -1.4424  -25.4966  -48.4549 H         1 UNK         0.0600 
    205 H205       -4.4580  -23.9635  -47.7529 H         1 UNK         0.3000 
    206 H206       -5.8010  -22.7652  -48.9778 H         1 UNK         0.0600 
    207 H207       -7.3082  -24.8068  -48.9204 H         1 UNK         0.0600 
    208 H208       -7.5846  -23.7394  -50.2790 H         1 UNK         0.0600 
    209 H209       -6.7075  -25.2401  -50.5217 H         1 UNK         0.0600 
    210 H210       -3.1029  -24.0422  -50.1854 H         1 UNK         0.3000 
    211 H211       -3.1456  -23.6671  -52.9732 H         1 UNK         0.0600 
    212 H212       -0.8083  -23.5569  -50.9901 H         1 UNK         0.0600 
    213 H213       -0.6507  -23.7175  -52.7355 H         1 UNK         0.0600 
    214 H214       -1.4192  -24.9950  -51.8060 H         1 UNK         0.0600 
    215 H215       -2.0746  -21.4478  -50.3586 H         1 UNK         0.3000 
    216 H216       -1.6963  -19.2369  -52.3017 H         1 UNK         0.0600 
    217 H217       -0.8170  -18.0285  -50.3366 H         1 UNK         0.0600 
    218 H218       -0.0006  -19.5675  -50.5358 H         1 UNK         0.0600 
    219 H219       -1.2302  -19.3782  -49.2818 H         1 UNK         0.0600 
    220 H220       -4.0183  -20.3191  -49.8532 H         1 UNK         0.3000 
    221 H221       -5.2637  -17.7159  -49.5594 H         1 UNK         0.0600 
    222 H222       -5.9952  -20.4709  -48.4682 H         1 UNK         0.0600 
    223 H223       -5.1865  -19.1457  -47.6255 H         1 UNK         0.0600 
    224 H224       -6.8663  -18.9921  -48.0880 H         1 UNK         0.0600 
    225 H225       -6.3034  -20.7934  -51.1700 H         1 UNK         0.3000 
    226 H226       -8.7674  -19.3907  -52.1293 H         1 UNK         0.0600 
    227 H227       -9.7541  -21.5920  -52.2799 H         1 UNK         0.0600 
    228 H228       -8.2284  -22.3886  -51.9427 H         1 UNK         0.0600 
    229 H229       -9.0364  -21.4532  -50.6814 H         1 UNK         0.0600 
    230 H230       -6.1555  -21.6522  -53.1724 H         1 UNK         0.3000 
    231 H231       -6.8958  -21.4543  -55.9803 H         1 UNK         0.0600 
    232 H232       -4.4597  -22.7003  -54.6212 H         1 UNK         0.0600 
    233 H233       -4.9067  -22.9073  -56.3068 H         1 UNK         0.0600 
    234 H234       -5.9508  -23.5344  -55.0399 H         1 UNK         0.0600 
    235 H235       -5.1106  -19.4535  -53.9089 H         1 UNK         0.3000 
    236 H236       -3.8709  -17.6157  -54.1106 H         1 UNK         0.0600 
    237 H237       -5.9499  -16.8953  -55.2979 H         1 UNK         0.0600 
    238 H238       -4.5334  -16.0437  -55.8889 H         1 UNK         0.0600 
    239 H239       -5.2282  -17.3504  -56.8408 H         1 UNK         0.0600 
    240 H240       -2.4684  -19.9891  -54.8118 H         1 UNK         0.3000 
    241 H241       -0.5814  -20.7466  -55.6022 H         1 UNK         0.0600 
    242 H242       -2.9915  -20.2533  -57.6217 H         1 UNK         0.3800 
    243 H243       -2.2030  -20.6749  -59.1215 H         1 UNK         0.3800 
    244 H244        1.2875  -19.2216  -56.3296 H         1 UNK         0.0800 
    245 H245        0.2032  -17.8678  -56.2827 H         1 UNK         0.0800 
    246 H246        2.3202  -20.4032  -54.4115 H         1 UNK         0.0800 
    247 H247        3.0749  -18.8301  -54.5271 H         1 UNK         0.0800 
@<TRIPOS>BOND
     1    1    2 1    
     2    1  127 1    
     3    1  128 1    
     4    1  129 1    
     5    2    3 2    
     6    2    4 am   BACKBONE|DICT|INTERRES
     7    4    5 1    
     8    4  130 1    
     9    5    6 1    
    10    5   65 1    
    11    5  131 1    
    12    6    7 1    
    13    6  132 1    
    14    6  133 1    
    15    7    8 1    
    16    8    9 1    
    17    8  134 1    
    18    8  135 1    
    19    9   10 ar   
    20    9   14 ar   
    21   10   11 ar   
    22   10  136 1    
    23   11   12 ar   
    24   11  126 1    
    25   12   13 ar   
    26   12  137 1    
    27   13   14 ar   
    28   13   15 1    
    29   14  138 1    
    30   15   16 1    
    31   15  139 1    
    32   15  140 1    
    33   16   17 1    
    34   17   18 1    
    35   17  141 1    
    36   17  142 1    
    37   18   19 1    
    38   18   67 1    
    39   18  143 1    
    40   19   20 am   BACKBONE|DICT|INTERRES
    41   19  144 1    
    42   20   21 2    
    43   20   22 1    
    44   22   23 1    
    45   22   24 1    
    46   22  145 1    
    47   23  146 1    
    48   23  147 1    
    49   23  148 1    
    50   24   25 am   BACKBONE|DICT|INTERRES
    51   24  149 1    
    52   25   26 2    
    53   25   27 1    
    54   27   28 1    
    55   27   29 1    
    56   27  150 1    
    57   28  151 1    
    58   28  152 1    
    59   28  153 1    
    60   29   30 am   BACKBONE|DICT|INTERRES
    61   29  154 1    
    62   30   31 2    
    63   30   32 1    
    64   32   33 1    
    65   32   34 1    
    66   32  155 1    
    67   33  156 1    
    68   33  157 1    
    69   33  158 1    
    70   34   35 am   BACKBONE|DICT|INTERRES
    71   34  159 1    
    72   35   36 2    
    73   35   37 1    
    74   37   38 1    
    75   37   39 1    
    76   37  160 1    
    77   38  161 1    
    78   38  162 1    
    79   38  163 1    
    80   39   40 am   BACKBONE|DICT|INTERRES
    81   39  164 1    
    82   40   41 2    
    83   40   42 1    
    84   42   43 1    
    85   42   44 1    
    86   42  165 1    
    87   43  166 1    
    88   43  167 1    
    89   43  168 1    
    90   44   45 am   BACKBONE|DICT|INTERRES
    91   44  169 1    
    92   45   46 2    
    93   45   47 1    
    94   47   48 1    
    95   47   49 1    
    96   47  170 1    
    97   48  171 1    
    98   48  172 1    
    99   48  173 1    
   100   49   50 am   BACKBONE|DICT|INTERRES
   101   49  174 1    
   102   50   51 2    
   103   50   52 1    
   104   52   53 1    
   105   52   54 1    
   106   52  175 1    
   107   53  176 1    
   108   53  177 1    
   109   53  178 1    
   110   54   55 am   BACKBONE|DICT|INTERRES
   111   54  179 1    
   112   55   56 2    
   113   55   57 1    
   114   57   58 1    
   115   57   59 1    
   116   57  180 1    
   117   58  181 1    
   118   58  182 1    
   119   58  183 1    
   120   59   60 am   BACKBONE|DICT|INTERRES
   121   59  184 1    
   122   60   61 2    
   123   60   62 1    
   124   62   63 1    
   125   62   64 1    
   126   62  185 1    
   127   63  186 1    
   128   63  187 1    
   129   63  188 1    
   130   64   65 am   BACKBONE|DICT|INTERRES
   131   64  189 1    
   132   65   66 2    
   133   67   68 2    
   134   67   69 am   BACKBONE|DICT|INTERRES
   135   69   70 1    
   136   69  190 1    
   137   70   71 1    
   138   70   72 1    
   139   70  191 1    
   140   71  192 1    
   141   71  193 1    
   142   71  194 1    
   143   72   73 2    
   144   72   74 am   BACKBONE|DICT|INTERRES
   145   74   75 1    
   146   74  195 1    
   147   75   76 1    
   148   75   77 1    
   149   75  196 1    
   150   76  197 1    
   151   76  198 1    
   152   76  199 1    
   153   77   78 2    
   154   77   79 am   BACKBONE|DICT|INTERRES
   155   79   80 1    
   156   79  200 1    
   157   80   81 1    
   158   80   82 1    
   159   80  201 1    
   160   81  202 1    
   161   81  203 1    
   162   81  204 1    
   163   82   83 2    
   164   82   84 am   BACKBONE|DICT|INTERRES
   165   84   85 1    
   166   84  205 1    
   167   85   86 1    
   168   85   87 1    
   169   85  206 1    
   170   86  207 1    
   171   86  208 1    
   172   86  209 1    
   173   87   88 2    
   174   87   89 am   BACKBONE|DICT|INTERRES
   175   89   90 1    
   176   89  210 1    
   177   90   91 1    
   178   90   92 1    
   179   90  211 1    
   180   91  212 1    
   181   91  213 1    
   182   91  214 1    
   183   92   93 2    
   184   92   94 am   BACKBONE|DICT|INTERRES
   185   94   95 1    
   186   94  215 1    
   187   95   96 1    
   188   95   97 1    
   189   95  216 1    
   190   96  217 1    
   191   96  218 1    
   192   96  219 1    
   193   97   98 2    
   194   97   99 am   BACKBONE|DICT|INTERRES
   195   99  100 1    
   196   99  220 1    
   197  100  101 1    
   198  100  102 1    
   199  100  221 1    
   200  101  222 1    
   201  101  223 1    
   202  101  224 1    
   203  102  103 2    
   204  102  104 am   BACKBONE|DICT|INTERRES
   205  104  105 1    
   206  104  225 1    
   207  105  106 1    
   208  105  107 1    
   209  105  226 1    
   210  106  227 1    
   211  106  228 1    
   212  106  229 1    
   213  107  108 2    
   214  107  109 am   BACKBONE|DICT|INTERRES
   215  109  110 1    
   216  109  230 1    
   217  110  111 1    
   218  110  112 1    
   219  110  231 1    
   220  111  232 1    
   221  111  233 1    
   222  111  234 1    
   223  112  113 2    
   224  112  114 am   BACKBONE|DICT|INTERRES
   225  114  115 1    
   226  114  235 1    
   227  115  116 1    
   228  115  117 1    
   229  115  236 1    
   230  116  237 1    
   231  116  238 1    
   232  116  239 1    
   233  117  118 2    
   234  117  119 am   BACKBONE|DICT|INTERRES
   235  119  120 1    
   236  119  240 1    
   237  120  121 1    
   238  120  124 1    
   239  120  241 1    
   240  121  122 am   BACKBONE|DICT|INTERRES
   241  121  123 2    
   242  122  242 1    
   243  122  243 1    
   244  124  125 1    
   245  124  244 1    
   246  124  245 1    
   247  125  126 1    
   248  126  246 1    
   249  126  247 1    
@<TRIPOS>SUBSTRUCTURE
     1 UNK         1 GROUP             0       ****    0 ROOT    
