@<TRIPOS>MOLECULE
3R540
247   249    1
SMALL
USER_CHARGES


@<TRIPOS>ATOM
      1 CA         -4.7813  -11.1361  -43.8459 C.3       0 UNK        -0.1800 
      2 C          -3.7196  -11.3217  -44.9206 C.2       0 UNK         0.5000 
      3 O          -3.1923  -10.3368  -45.4397 O.2       0 UNK        -0.5000 
      4 N          -3.4016  -12.5778  -45.2582 N.am      1 UNK        -0.5000 
      5 CA         -2.3790  -12.9545  -46.2366 C.3       1 UNK         0.1400 
      6 C6         -2.6572  -14.3567  -46.8334 C.3       23 UNK        -0.0398 
      7 S7         -1.5514  -14.7586  -48.2305 S.3       23 UNK        -0.2404 
      8 C8         -2.4338  -16.1558  -48.9904 C.3       23 UNK        -0.0205 
      9 C9         -1.5225  -16.9508  -49.9144 C.ar      23 UNK        -0.0193 
     10 C10        -0.9527  -16.3394  -51.0351 C.ar      23 UNK        -0.1150 
     11 C11        -0.1114  -17.0585  -51.8877 C.ar      23 UNK        -0.0193 
     12 C12         0.1518  -18.4044  -51.6200 C.ar      23 UNK        -0.1150 
     13 C13        -0.4141  -19.0299  -50.5053 C.ar      23 UNK        -0.0193 
     14 C14        -1.2496  -18.2981  -49.6557 C.ar      23 UNK        -0.1150 
     15 C15        -0.1556  -20.5070  -50.2516 C.3       23 UNK        -0.0205 
     16 S16         1.4211  -20.8102  -49.3880 S.3       23 UNK        -0.2404 
     17 C17         0.9873  -20.5454  -47.6354 C.3       23 UNK        -0.0398 
     18 CA          0.6087  -21.8617  -46.9054 C.3       11 UNK         0.1400 
     19 N           0.9545  -21.8582  -45.4763 N.am      11 UNK        -0.5000 
     20 C           0.9679  -22.9688  -44.7214 C.2       10 UNK         0.5000 
     21 O           0.6976  -24.0898  -45.1517 O.2       10 UNK        -0.5000 
     22 CA          1.2839  -22.7953  -43.2285 C.3       10 UNK         0.1400 
     23 CB          2.7824  -22.5574  -42.9997 C.3       10 UNK        -0.1800 
     24 N           0.5142  -21.7212  -42.6025 N.am      10 UNK        -0.5000 
     25 C          -0.8076  -21.7620  -42.3884 C.2       9 UNK         0.5000 
     26 O          -1.5307  -22.6451  -42.8492 O.2       9 UNK        -0.5000 
     27 CA         -1.4511  -20.6322  -41.5553 C.3       9 UNK         0.1400 
     28 CB         -2.3333  -21.1933  -40.4226 C.3       9 UNK        -0.1800 
     29 N          -0.5154  -19.6202  -41.0456 N.am      9 UNK        -0.5000 
     30 C           0.4586  -19.7500  -40.1295 C.2       8 UNK         0.5000 
     31 O           0.6942  -20.7996  -39.5310 O.2       8 UNK        -0.5000 
     32 CA          1.3427  -18.5107  -39.8639 C.3       8 UNK         0.1400 
     33 CB          2.8339  -18.8895  -39.8265 C.3       8 UNK        -0.1800 
     34 N           1.1568  -17.4914  -40.8981 N.am      8 UNK        -0.5000 
     35 C           0.5325  -16.3147  -40.7461 C.2       7 UNK         0.5000 
     36 O           0.1064  -15.8987  -39.6686 O.2       7 UNK        -0.5000 
     37 CA          0.3181  -15.4721  -42.0246 C.3       7 UNK         0.1400 
     38 CB          1.4725  -14.4738  -42.1946 C.3       7 UNK        -0.1800 
     39 N           0.2105  -16.2787  -43.2444 N.am      7 UNK        -0.5000 
     40 C          -0.7046  -17.2356  -43.4603 C.2       6 UNK         0.5000 
     41 O          -1.6547  -17.4451  -42.7079 O.2       6 UNK        -0.5000 
     42 CA         -0.4735  -18.1968  -44.6449 C.3       6 UNK         0.1400 
     43 CB         -1.4169  -17.8696  -45.8085 C.3       6 UNK        -0.1800 
     44 N           0.9105  -18.2158  -45.1255 N.am      6 UNK        -0.5000 
     45 C           1.9862  -18.5633  -44.4026 C.2       5 UNK         0.5000 
     46 O           1.9001  -19.1128  -43.3047 O.2       5 UNK        -0.5000 
     47 CA          3.3778  -18.2078  -44.9727 C.3       5 UNK         0.1400 
     48 CB          4.2519  -19.4605  -45.1328 C.3       5 UNK        -0.1800 
     49 N           3.3418  -17.4816  -46.2479 N.am      5 UNK        -0.5000 
     50 C           2.8847  -16.2332  -46.4175 C.2       4 UNK         0.5000 
     51 O           2.4218  -15.5494  -45.5012 O.2       4 UNK        -0.5000 
     52 CA          2.8976  -15.7043  -47.8579 C.3       4 UNK         0.1400 
     53 CB          1.9783  -16.5415  -48.7671 C.3       4 UNK        -0.1800 
     54 N           2.4523  -14.3152  -47.8814 N.am      4 UNK        -0.5000 
     55 C           2.9151  -13.3752  -48.7125 C.2       3 UNK         0.5000 
     56 O           3.7991  -13.5825  -49.5455 O.2       3 UNK        -0.5000 
     57 CA          2.2854  -11.9698  -48.6327 C.3       3 UNK         0.1400 
     58 CB          1.4082  -11.7128  -49.8691 C.3       3 UNK        -0.1800 
     59 N           1.4718  -11.7358  -47.4394 N.am      3 UNK        -0.5000 
     60 C           1.9337  -11.5394  -46.1966 C.2       2 UNK         0.5000 
     61 O           3.1294  -11.5590  -45.9039 O.2       2 UNK        -0.5000 
     62 CA          0.8841  -11.2512  -45.1009 C.3       2 UNK         0.1400 
     63 CB          0.9262   -9.7715  -44.6894 C.3       2 UNK        -0.1800 
     64 N          -0.4823  -11.5827  -45.5153 N.am      2 UNK        -0.5000 
     65 C          -0.9713  -12.8246  -45.6130 C.2       1 UNK         0.5000 
     66 O          -0.3585  -13.8253  -45.2436 O.2       1 UNK        -0.5000 
     67 C          -0.8767  -22.2121  -47.1153 C.2       11 UNK         0.5000 
     68 O          -1.2020  -22.9541  -48.0403 O.2       11 UNK        -0.5000 
     69 N          -1.7438  -21.7038  -46.2271 N.am      12 UNK        -0.5000 
     70 CA         -3.1811  -21.9700  -46.2301 C.3       12 UNK         0.1400 
     71 CB         -3.8762  -21.0803  -45.1890 C.3       12 UNK        -0.1800 
     72 C          -3.5029  -23.4569  -46.0055 C.2       12 UNK         0.5000 
     73 O          -4.3338  -24.0062  -46.7262 O.2       12 UNK        -0.5000 
     74 N          -2.8042  -24.0896  -45.0533 N.am      13 UNK        -0.5000 
     75 CA         -2.8876  -25.5243  -44.7870 C.3       13 UNK         0.1400 
     76 CB         -2.1678  -25.8420  -43.4674 C.3       13 UNK        -0.1800 
     77 C          -2.3201  -26.3773  -45.9370 C.2       13 UNK         0.5000 
     78 O          -2.9358  -27.3783  -46.3039 O.2       13 UNK        -0.5000 
     79 N          -1.1663  -25.9680  -46.4843 N.am      14 UNK        -0.5000 
     80 CA         -0.4641  -26.6705  -47.5595 C.3       14 UNK         0.1400 
     81 CB          0.9481  -26.0876  -47.7227 C.3       14 UNK        -0.1800 
     82 C          -1.2192  -26.6431  -48.8998 C.2       14 UNK         0.5000 
     83 O          -1.3691  -27.6894  -49.5324 O.2       14 UNK        -0.5000 
     84 N          -1.6760  -25.4531  -49.3114 N.am      15 UNK        -0.5000 
     85 CA         -2.3850  -25.2425  -50.5746 C.3       15 UNK         0.1400 
     86 CB         -2.2133  -23.7790  -51.0082 C.3       15 UNK        -0.1800 
     87 C          -3.8801  -25.5960  -50.4965 C.2       15 UNK         0.5000 
     88 O          -4.5075  -25.7642  -51.5426 O.2       15 UNK        -0.5000 
     89 N          -4.4375  -25.6474  -49.2771 N.am      16 UNK        -0.5000 
     90 CA         -5.8433  -25.8652  -48.9013 C.3       16 UNK         0.1400 
     91 CB         -6.3740  -27.2122  -49.4274 C.3       16 UNK        -0.1800 
     92 C          -6.7795  -24.7007  -49.2861 C.2       16 UNK         0.5000 
     93 O          -7.6094  -24.2922  -48.4737 O.2       16 UNK        -0.5000 
     94 N          -6.6127  -24.1740  -50.5034 N.am      17 UNK        -0.5000 
     95 CA         -7.3315  -23.0309  -51.0651 C.3       17 UNK         0.1400 
     96 CB         -7.7637  -23.3930  -52.4953 C.3       17 UNK        -0.1800 
     97 C          -6.4975  -21.7309  -51.0201 C.2       17 UNK         0.5000 
     98 O          -6.8993  -20.7366  -51.6267 O.2       17 UNK        -0.5000 
     99 N          -5.3644  -21.7544  -50.2985 N.am      18 UNK        -0.5000 
    100 CA        -4.4536  -20.6385  -50.0177 C.3       18 UNK         0.1400 
    101 CB        -5.0902  -19.6846  -48.9818 C.3       18 UNK        -0.1800 
    102 C         -3.9602  -19.9310  -51.2972 C.2       18 UNK         0.5000 
    103 O         -3.1670  -20.5140  -52.0374 O.2       18 UNK        -0.5000 
    104 N         -4.4478  -18.7051  -51.5402 N.am      19 UNK        -0.5000 
    105 CA        -4.0781  -17.8179  -52.6479 C.3       19 UNK         0.1400 
    106 CB        -4.8185  -16.4824  -52.4863 C.3       19 UNK        -0.1800 
    107 C         -4.3109  -18.3926  -54.0582 C.2       19 UNK         0.5000 
    108 O         -3.7293  -17.8844  -55.0163 O.2       19 UNK        -0.5000 
    109 N         -5.0980  -19.4712  -54.1752 N.am      20 UNK        -0.5000 
    110 CA        -5.2497  -20.2706  -55.3949 C.3       20 UNK         0.1400 
    111 CB        -6.2558  -21.3954  -55.1233 C.3       20 UNK        -0.1800 
    112 C         -3.9228  -20.8607  -55.9257 C.2       20 UNK         0.5000 
    113 O         -3.8321  -21.1644  -57.1156 O.2       20 UNK        -0.5000 
    114 N         -2.9145  -20.9876  -55.0497 N.am      21 UNK        -0.5000 
    115 CA        -1.5488  -21.3837  -55.3895 C.3       21 UNK         0.1400 
    116 CB        -0.7923  -21.6974  -54.0913 C.3       21 UNK        -0.1800 
    117 C         -0.7692  -20.3306  -56.2053 C.2       21 UNK         0.5000 
    118 O          0.2125  -20.7001  -56.8517 O.2       21 UNK        -0.5000 
    119 N         -1.1869  -19.0577  -56.1576 N.am      22 UNK        -0.5000 
    120 CA        -0.5163  -17.9321  -56.8312 C.3       22 UNK         0.1400 
    121 C         -1.4531  -17.0532  -57.7071 C.2       22 UNK         0.5000 
    122 N         -2.7623  -17.0432  -57.4937 N.am      22 UNK        -0.7600 
    123 O         -0.9823  -16.3838  -58.6231 O.2       22 UNK        -0.5000 
    124 C124        0.3299  -17.0870  -55.8432 C.3       23 UNK        -0.0398 
    125 S125       -0.6431  -16.3244  -54.4933 S.3       23 UNK        -0.2404 
    126 C126        0.5161  -16.3751  -53.0906 C.3       23 UNK        -0.0205 
    127 H127       -5.6207  -10.5652  -44.2427 H         1 UNK         0.0600 
    128 H128       -5.1612  -12.0909  -43.4815 H         1 UNK         0.0600 
    129 H129       -4.3658  -10.5898  -42.9992 H         1 UNK         0.0600 
    130 H130       -3.8495  -13.3438  -44.7755 H         1 UNK         0.3000 
    131 H131       -2.4316  -12.2458  -47.0665 H         1 UNK         0.0600 
    132 H132       -3.6853  -14.4002  -47.1957 H         1 UNK         0.0800 
    133 H133       -2.5702  -15.1292  -46.0685 H         1 UNK         0.0800 
    134 H134       -2.8388  -16.7983  -48.2077 H         1 UNK         0.0800 
    135 H135       -3.2862  -15.7778  -49.5545 H         1 UNK         0.0800 
    136 H136       -1.1609  -15.2988  -51.2405 H         1 UNK         0.1150 
    137 H137        0.7943  -18.9683  -52.2814 H         1 UNK         0.1150 
    138 H138       -1.6995  -18.7837  -48.8032 H         1 UNK         0.1150 
    139 H139       -0.9871  -20.9468  -49.7036 H         1 UNK         0.0800 
    140 H140       -0.1273  -21.0350  -51.2044 H         1 UNK         0.0800 
    141 H141        0.2151  -19.7826  -47.5515 H         1 UNK         0.0800 
    142 H142        1.8759  -20.1142  -47.1772 H         1 UNK         0.0800 
    143 H143        1.1917  -22.6691  -47.3543 H         1 UNK         0.0600 
    144 H144        1.1704  -20.9744  -45.0407 H         1 UNK         0.3000 
    145 H145        1.0168  -23.7291  -42.7289 H         1 UNK         0.0600 
    146 H146        3.0187  -22.5355  -41.9356 H         1 UNK         0.0600 
    147 H147        3.3793  -23.3515  -43.4501 H         1 UNK         0.0600 
    148 H148        3.1087  -21.6139  -43.4321 H         1 UNK         0.0600 
    149 H149        1.0371  -20.9261  -42.2593 H         1 UNK         0.3000 
    150 H150       -2.1122  -20.1033  -42.2425 H         1 UNK         0.0600 
    151 H151       -3.1297  -21.8223  -40.8224 H         1 UNK         0.0600 
    152 H152       -2.8087  -20.3909  -39.8585 H         1 UNK         0.0600 
    153 H153       -1.7603  -21.8030  -39.7237 H         1 UNK         0.0600 
    154 H154       -0.6471  -18.6998  -41.4487 H         1 UNK         0.3000 
    155 H155        1.0621  -18.1194  -38.8843 H         1 UNK         0.0600 
    156 H156        3.1570  -19.3424  -40.7649 H         1 UNK         0.0600 
    157 H157        3.0407  -19.6028  -39.0278 H         1 UNK         0.0600 
    158 H158        3.4575  -18.0139  -39.6455 H         1 UNK         0.0600 
    159 H159        1.4632  -17.7649  -41.8251 H         1 UNK         0.3000 
    160 H160       -0.6131  -14.9139  -41.9098 H         1 UNK         0.0600 
    161 H161        1.3253  -13.8506  -43.0750 H         1 UNK         0.0600 
    162 H162        2.4306  -14.9830  -42.3071 H         1 UNK         0.0600 
    163 H163        1.5486  -13.8102  -41.3324 H         1 UNK         0.0600 
    164 H164        0.9171  -16.1117  -43.9518 H         1 UNK         0.3000 
    165 H165       -0.7163  -19.1978  -44.2854 H         1 UNK         0.0600 
    166 H166       -1.4904  -18.7031  -46.5030 H         1 UNK         0.0600 
    167 H167       -2.4292  -17.6632  -45.4577 H         1 UNK         0.0600 
    168 H168       -1.0719  -16.9962  -46.3601 H         1 UNK         0.0600 
    169 H169        1.0826  -17.7316  -45.9938 H         1 UNK         0.3000 
    170 H170        3.8578  -17.5574  -44.2387 H         1 UNK         0.0600 
    171 H171        4.4507  -19.9183  -44.1639 H         1 UNK         0.0600 
    172 H172        3.7828  -20.2128  -45.7670 H         1 UNK         0.0600 
    173 H173        5.2209  -19.2133  -45.5669 H         1 UNK         0.0600 
    174 H174        3.7052  -17.9767  -47.0498 H         1 UNK         0.3000 
    175 H175        3.9257  -15.7729  -48.2192 H         1 UNK         0.0600 
    176 H176        1.9546  -16.1416  -49.7809 H         1 UNK         0.0600 
    177 H177        2.3138  -17.5762  -48.8418 H         1 UNK         0.0600 
    178 H178        0.9540  -16.5551  -48.3943 H         1 UNK         0.0600 
    179 H179        1.7805  -14.0665  -47.1661 H         1 UNK         0.3000 
    180 H180        3.1035  -11.2465  -48.6359 H         1 UNK         0.0600 
    181 H181        0.5670  -12.4063  -49.9148 H         1 UNK         0.0600 
    182 H182        1.9814  -11.8326  -50.7894 H         1 UNK         0.0600 
    183 H183        1.0092  -10.6983  -49.8678 H         1 UNK         0.0600 
    184 H184        0.4737  -11.7017  -47.5801 H         1 UNK         0.3000 
    185 H185        1.1437  -11.8532  -44.2292 H         1 UNK         0.0600 
    186 H186        1.9204   -9.4903  -44.3393 H         1 UNK         0.0600 
    187 H187        0.6732   -9.1148  -45.5228 H         1 UNK         0.0600 
    188 H188        0.2277   -9.5682  -43.8774 H         1 UNK         0.0600 
    189 H189       -1.0899  -10.8094  -45.7604 H         1 UNK         0.3000 
    190 H190       -1.3855  -21.1612  -45.4584 H         1 UNK         0.3000 
    191 H191       -3.5643  -21.7000  -47.2149 H         1 UNK         0.0600 
    192 H192       -3.5256  -21.2876  -44.1779 H         1 UNK         0.0600 
    193 H193       -4.9549  -21.2418  -45.2000 H         1 UNK         0.0600 
    194 H194       -3.7059  -20.0236  -45.3951 H         1 UNK         0.0600 
    195 H195       -2.1756  -23.5562  -44.4602 H         1 UNK         0.3000 
    196 H196       -3.9415  -25.7846  -44.6683 H         1 UNK         0.0600 
    197 H197       -1.1139  -25.5635  -43.5060 H         1 UNK         0.0600 
    198 H198       -2.2198  -26.9072  -43.2390 H         1 UNK         0.0600 
    199 H199       -2.6226  -25.3074  -42.6332 H         1 UNK         0.0600 
    200 H200       -0.6971  -25.1575  -46.0920 H         1 UNK         0.3000 
    201 H201       -0.3605  -27.7158  -47.2609 H         1 UNK         0.0600 
    202 H202        0.9194  -25.0289  -47.9818 H         1 UNK         0.0600 
    203 H203        1.4963  -26.6043  -48.5115 H         1 UNK         0.0600 
    204 H204        1.5259  -26.1920  -46.8043 H         1 UNK         0.0600 
    205 H205       -1.4970  -24.6239  -48.7475 H         1 UNK         0.3000 
    206 H206       -1.9381  -25.8750  -51.3445 H         1 UNK         0.0600 
    207 H207       -1.1613  -23.5260  -51.1401 H         1 UNK         0.0600 
    208 H208       -2.7191  -23.5859  -51.9550 H         1 UNK         0.0600 
    209 H209       -2.6306  -23.0932  -50.2730 H         1 UNK         0.0600 
    210 H210       -3.8353  -25.4334  -48.4924 H         1 UNK         0.3000 
    211 H211       -5.8489  -25.9238  -47.8120 H         1 UNK         0.0600 
    212 H212       -6.4459  -27.2305  -50.5150 H         1 UNK         0.0600 
    213 H213       -7.3711  -27.4142  -49.0345 H         1 UNK         0.0600 
    214 H214       -5.7298  -28.0356  -49.1190 H         1 UNK         0.0600 
    215 H215       -5.9136  -24.6100  -51.1001 H         1 UNK         0.3000 
    216 H216       -8.2350  -22.8365  -50.4840 H         1 UNK         0.0600 
    217 H217       -8.2647  -22.5589  -52.9879 H         1 UNK         0.0600 
    218 H218       -8.4645  -24.2280  -52.4882 H         1 UNK         0.0600 
    219 H219       -6.9122  -23.6856  -53.1091 H         1 UNK         0.0600 
    220 H220       -5.1258  -22.6329  -49.8632 H         1 UNK         0.3000 
    221 H221       -3.5645  -21.0681  -49.5558 H         1 UNK         0.0600 
    222 H222       -6.0191  -19.2423  -49.3434 H         1 UNK         0.0600 
    223 H223       -5.3236  -20.2131  -48.0577 H         1 UNK         0.0600 
    224 H224       -4.4101  -18.8725  -48.7217 H         1 UNK         0.0600 
    225 H225       -5.1354  -18.3412  -50.8976 H         1 UNK         0.3000 
    226 H226       -3.0069  -17.6287  -52.5645 H         1 UNK         0.0600 
    227 H227       -4.5827  -16.0102  -51.5335 H         1 UNK         0.0600 
    228 H228       -4.5336  -15.7805  -53.2714 H         1 UNK         0.0600 
    229 H229       -5.8999  -16.6146  -52.5390 H         1 UNK         0.0600 
    230 H230       -5.5446  -19.8274  -53.3394 H         1 UNK         0.3000 
    231 H231       -5.6561  -19.6193  -56.1711 H         1 UNK         0.0600 
    232 H232       -7.2112  -21.0006  -54.7771 H         1 UNK         0.0600 
    233 H233       -5.8759  -22.0793  -54.3651 H         1 UNK         0.0600 
    234 H234       -6.4492  -21.9771  -56.0254 H         1 UNK         0.0600 
    235 H235       -3.0786  -20.7407  -54.0783 H         1 UNK         0.3000 
    236 H236       -1.5980  -22.2955  -55.9881 H         1 UNK         0.0600 
    237 H237       -0.7282  -20.8165  -53.4522 H         1 UNK         0.0600 
    238 H238       -1.2858  -22.4878  -53.5280 H         1 UNK         0.0600 
    239 H239        0.2256  -22.0311  -54.2967 H         1 UNK         0.0600 
    240 H240       -2.0107  -18.8199  -55.6181 H         1 UNK         0.3000 
    241 H241        0.1905  -18.3413  -57.5555 H         1 UNK         0.0600 
    242 H242       -3.3503  -16.4769  -58.0835 H         1 UNK         0.3800 
    243 H243       -3.1578  -17.4722  -56.6598 H         1 UNK         0.3800 
    244 H244        1.1006  -17.7287  -55.4156 H         1 UNK         0.0800 
    245 H245        0.8645  -16.2974  -56.3738 H         1 UNK         0.0800 
    246 H246        1.4454  -16.8766  -53.3625 H         1 UNK         0.0800 
    247 H247        0.7949  -15.3537  -52.8275 H         1 UNK         0.0800 
@<TRIPOS>BOND
     1    1    2 1    
     2    1  127 1    
     3    1  128 1    
     4    1  129 1    
     5    2    3 2    
     6    2    4 am   BACKBONE|DICT|INTERRES
     7    4    5 1    
     8    4  130 1    
     9    5    6 1    
    10    5   65 1    
    11    5  131 1    
    12    6    7 1    
    13    6  132 1    
    14    6  133 1    
    15    7    8 1    
    16    8    9 1    
    17    8  134 1    
    18    8  135 1    
    19    9   10 ar   
    20    9   14 ar   
    21   10   11 ar   
    22   10  136 1    
    23   11   12 ar   
    24   11  126 1    
    25   12   13 ar   
    26   12  137 1    
    27   13   14 ar   
    28   13   15 1    
    29   14  138 1    
    30   15   16 1    
    31   15  139 1    
    32   15  140 1    
    33   16   17 1    
    34   17   18 1    
    35   17  141 1    
    36   17  142 1    
    37   18   19 1    
    38   18   67 1    
    39   18  143 1    
    40   19   20 am   BACKBONE|DICT|INTERRES
    41   19  144 1    
    42   20   21 2    
    43   20   22 1    
    44   22   23 1    
    45   22   24 1    
    46   22  145 1    
    47   23  146 1    
    48   23  147 1    
    49   23  148 1    
    50   24   25 am   BACKBONE|DICT|INTERRES
    51   24  149 1    
    52   25   26 2    
    53   25   27 1    
    54   27   28 1    
    55   27   29 1    
    56   27  150 1    
    57   28  151 1    
    58   28  152 1    
    59   28  153 1    
    60   29   30 am   BACKBONE|DICT|INTERRES
    61   29  154 1    
    62   30   31 2    
    63   30   32 1    
    64   32   33 1    
    65   32   34 1    
    66   32  155 1    
    67   33  156 1    
    68   33  157 1    
    69   33  158 1    
    70   34   35 am   BACKBONE|DICT|INTERRES
    71   34  159 1    
    72   35   36 2    
    73   35   37 1    
    74   37   38 1    
    75   37   39 1    
    76   37  160 1    
    77   38  161 1    
    78   38  162 1    
    79   38  163 1    
    80   39   40 am   BACKBONE|DICT|INTERRES
    81   39  164 1    
    82   40   41 2    
    83   40   42 1    
    84   42   43 1    
    85   42   44 1    
    86   42  165 1    
    87   43  166 1    
    88   43  167 1    
    89   43  168 1    
    90   44   45 am   BACKBONE|DICT|INTERRES
    91   44  169 1    
    92   45   46 2    
    93   45   47 1    
    94   47   48 1    
    95   47   49 1    
    96   47  170 1    
    97   48  171 1    
    98   48  172 1    
    99   48  173 1    
   100   49   50 am   BACKBONE|DICT|INTERRES
   101   49  174 1    
   102   50   51 2    
   103   50   52 1    
   104   52   53 1    
   105   52   54 1    
   106   52  175 1    
   107   53  176 1    
   108   53  177 1    
   109   53  178 1    
   110   54   55 am   BACKBONE|DICT|INTERRES
   111   54  179 1    
   112   55   56 2    
   113   55   57 1    
   114   57   58 1    
   115   57   59 1    
   116   57  180 1    
   117   58  181 1    
   118   58  182 1    
   119   58  183 1    
   120   59   60 am   BACKBONE|DICT|INTERRES
   121   59  184 1    
   122   60   61 2    
   123   60   62 1    
   124   62   63 1    
   125   62   64 1    
   126   62  185 1    
   127   63  186 1    
   128   63  187 1    
   129   63  188 1    
   130   64   65 am   BACKBONE|DICT|INTERRES
   131   64  189 1    
   132   65   66 2    
   133   67   68 2    
   134   67   69 am   BACKBONE|DICT|INTERRES
   135   69   70 1    
   136   69  190 1    
   137   70   71 1    
   138   70   72 1    
   139   70  191 1    
   140   71  192 1    
   141   71  193 1    
   142   71  194 1    
   143   72   73 2    
   144   72   74 am   BACKBONE|DICT|INTERRES
   145   74   75 1    
   146   74  195 1    
   147   75   76 1    
   148   75   77 1    
   149   75  196 1    
   150   76  197 1    
   151   76  198 1    
   152   76  199 1    
   153   77   78 2    
   154   77   79 am   BACKBONE|DICT|INTERRES
   155   79   80 1    
   156   79  200 1    
   157   80   81 1    
   158   80   82 1    
   159   80  201 1    
   160   81  202 1    
   161   81  203 1    
   162   81  204 1    
   163   82   83 2    
   164   82   84 am   BACKBONE|DICT|INTERRES
   165   84   85 1    
   166   84  205 1    
   167   85   86 1    
   168   85   87 1    
   169   85  206 1    
   170   86  207 1    
   171   86  208 1    
   172   86  209 1    
   173   87   88 2    
   174   87   89 am   BACKBONE|DICT|INTERRES
   175   89   90 1    
   176   89  210 1    
   177   90   91 1    
   178   90   92 1    
   179   90  211 1    
   180   91  212 1    
   181   91  213 1    
   182   91  214 1    
   183   92   93 2    
   184   92   94 am   BACKBONE|DICT|INTERRES
   185   94   95 1    
   186   94  215 1    
   187   95   96 1    
   188   95   97 1    
   189   95  216 1    
   190   96  217 1    
   191   96  218 1    
   192   96  219 1    
   193   97   98 2    
   194   97   99 am   BACKBONE|DICT|INTERRES
   195   99  100 1    
   196   99  220 1    
   197  100  101 1    
   198  100  102 1    
   199  100  221 1    
   200  101  222 1    
   201  101  223 1    
   202  101  224 1    
   203  102  103 2    
   204  102  104 am   BACKBONE|DICT|INTERRES
   205  104  105 1    
   206  104  225 1    
   207  105  106 1    
   208  105  107 1    
   209  105  226 1    
   210  106  227 1    
   211  106  228 1    
   212  106  229 1    
   213  107  108 2    
   214  107  109 am   BACKBONE|DICT|INTERRES
   215  109  110 1    
   216  109  230 1    
   217  110  111 1    
   218  110  112 1    
   219  110  231 1    
   220  111  232 1    
   221  111  233 1    
   222  111  234 1    
   223  112  113 2    
   224  112  114 am   BACKBONE|DICT|INTERRES
   225  114  115 1    
   226  114  235 1    
   227  115  116 1    
   228  115  117 1    
   229  115  236 1    
   230  116  237 1    
   231  116  238 1    
   232  116  239 1    
   233  117  118 2    
   234  117  119 am   BACKBONE|DICT|INTERRES
   235  119  120 1    
   236  119  240 1    
   237  120  121 1    
   238  120  124 1    
   239  120  241 1    
   240  121  122 am   BACKBONE|DICT|INTERRES
   241  121  123 2    
   242  122  242 1    
   243  122  243 1    
   244  124  125 1    
   245  124  244 1    
   246  124  245 1    
   247  125  126 1    
   248  126  246 1    
   249  126  247 1    
@<TRIPOS>SUBSTRUCTURE
     1 UNK         1 GROUP             0       ****    0 ROOT    
