@<TRIPOS>MOLECULE
3R540
247   249    1
SMALL
USER_CHARGES


@<TRIPOS>ATOM
      1 CA          2.2295  -12.8873  -50.7298 C.3       0 UNK        -0.1800 
      2 C           1.8366  -14.0476  -49.8268 C.2       0 UNK         0.5000 
      3 O           1.4333  -13.8283  -48.6846 O.2       0 UNK        -0.5000 
      4 N           1.9430  -15.2812  -50.3343 N.am      1 UNK        -0.5000 
      5 CA          1.6157  -16.5260  -49.6286 C.3       1 UNK         0.1400 
      6 C6          2.4288  -17.7315  -50.1722 C.3       23 UNK        -0.0398 
      7 S7          4.2285  -17.4659  -50.0315 S.3       23 UNK        -0.2404 
      8 C8          4.8022  -17.8488  -51.7239 C.3       23 UNK        -0.0205 
      9 C9          4.8331  -19.3447  -52.0255 C.ar      23 UNK        -0.0193 
     10 C10         4.3194  -19.8388  -53.2303 C.ar      23 UNK        -0.1150 
     11 C11         4.3598  -21.2112  -53.5211 C.ar      23 UNK        -0.0193 
     12 C12         4.9332  -22.0827  -52.5879 C.ar      23 UNK        -0.1150 
     13 C13         5.4546  -21.6023  -51.3837 C.ar      23 UNK        -0.0193 
     14 C14         5.4123  -20.2337  -51.1165 C.ar      23 UNK        -0.1150 
     15 C15         6.0462  -22.5543  -50.3528 C.3       23 UNK        -0.0205 
     16 S16         4.7769  -23.5369  -49.4851 S.3       23 UNK        -0.2404 
     17 C17         3.4821  -22.2965  -49.1471 C.3       23 UNK        -0.0398 
     18 CA          2.3326  -22.8861  -48.3019 C.3       11 UNK         0.1400 
     19 N           2.7000  -23.0840  -46.8971 N.am      11 UNK        -0.5000 
     20 C           1.9599  -23.7762  -46.0192 C.2       10 UNK         0.5000 
     21 O           0.9143  -24.3524  -46.3160 O.2       10 UNK        -0.5000 
     22 CA          2.4357  -23.7790  -44.5555 C.3       10 UNK         0.1400 
     23 CB          3.4228  -24.9297  -44.3112 C.3       10 UNK        -0.1800 
     24 N           3.0526  -22.5130  -44.1518 N.am      10 UNK        -0.5000 
     25 C           2.4130  -21.3376  -44.0980 C.2       9 UNK         0.5000 
     26 O           1.2239  -21.1883  -44.3898 O.2       9 UNK        -0.5000 
     27 CA          3.2625  -20.1206  -43.7066 C.3       9 UNK         0.1400 
     28 CB          3.3704  -19.1262  -44.8742 C.3       9 UNK        -0.1800 
     29 N           2.6891  -19.4435  -42.5485 N.am      9 UNK        -0.5000 
     30 C           2.9711  -19.7542  -41.2775 C.2       8 UNK         0.5000 
     31 O           3.7109  -20.6849  -40.9546 O.2       8 UNK        -0.5000 
     32 CA          2.3537  -18.8731  -40.1805 C.3       8 UNK         0.1400 
     33 CB          3.0716  -17.5153  -40.1061 C.3       8 UNK        -0.1800 
     34 N           0.9223  -18.6479  -40.3835 N.am      8 UNK        -0.5000 
     35 C          -0.0148  -18.8256  -39.4394 C.2       7 UNK         0.5000 
     36 O           0.2299  -19.2518  -38.3096 O.2       7 UNK        -0.5000 
     37 CA         -1.4722  -18.4499  -39.7842 C.3       7 UNK         0.1400 
     38 CB         -1.8621  -17.1322  -39.0965 C.3       7 UNK        -0.1800 
     39 N          -1.7175  -18.3180  -41.2185 N.am      7 UNK        -0.5000 
     40 C          -1.7759  -19.3450  -42.0771 C.2       6 UNK         0.5000 
     41 O          -1.7328  -20.5241  -41.7266 O.2       6 UNK        -0.5000 
     42 CA         -1.8758  -19.0068  -43.5777 C.3       6 UNK         0.1400 
     43 CB         -3.2973  -19.2675  -44.0941 C.3       6 UNK        -0.1800 
     44 N          -1.4947  -17.6323  -43.9244 N.am      6 UNK        -0.5000 
     45 C          -0.2897  -17.0759  -43.7187 C.2       5 UNK         0.5000 
     46 O           0.6535  -17.6710  -43.1994 O.2       5 UNK        -0.5000 
     47 CA         -0.1141  -15.5959  -44.1081 C.3       5 UNK         0.1400 
     48 CB          0.5460  -15.4866  -45.4902 C.3       5 UNK        -0.1800 
     49 N          -1.3667  -14.8350  -44.0954 N.am      5 UNK        -0.5000 
     50 C          -2.1318  -14.6499  -43.0072 C.2       4 UNK         0.5000 
     51 O          -1.8309  -15.0733  -41.8902 O.2       4 UNK        -0.5000 
     52 CA         -3.4706  -13.9062  -43.1843 C.3       4 UNK         0.1400 
     53 CB         -3.3574  -12.4683  -42.6552 C.3       4 UNK        -0.1800 
     54 N          -3.9781  -13.8642  -44.5578 N.am      4 UNK        -0.5000 
     55 C          -4.3052  -14.9220  -45.3123 C.2       3 UNK         0.5000 
     56 O          -4.1668  -16.0915  -44.9485 O.2       3 UNK        -0.5000 
     57 CA         -4.8573  -14.6359  -46.7246 C.3       3 UNK         0.1400 
     58 CB         -5.0661  -13.1383  -47.0413 C.3       3 UNK        -0.1800 
     59 N          -4.0355  -15.2587  -47.7638 N.am      3 UNK        -0.5000 
     60 C          -2.7229  -15.0994  -47.9687 C.2       2 UNK         0.5000 
     61 O          -1.9930  -14.3727  -47.2891 O.2       2 UNK        -0.5000 
     62 CA         -2.1510  -15.8860  -49.1539 C.3       2 UNK         0.1400 
     63 CB         -2.6384  -15.3026  -50.4923 C.3       2 UNK        -0.1800 
     64 N          -0.6946  -15.8616  -49.1199 N.am      2 UNK        -0.5000 
     65 C           0.0941  -16.7813  -49.6808 C.2       1 UNK         0.5000 
     66 O          -0.3454  -17.7786  -50.2523 O.2       1 UNK        -0.5000 
     67 C           1.0597  -22.0322  -48.4503 C.2       11 UNK         0.5000 
     68 O           0.2344  -22.3468  -49.3020 O.2       11 UNK        -0.5000 
     69 N           0.8897  -21.0070  -47.6033 N.am      12 UNK        -0.5000 
     70 CA         -0.3068  -20.1628  -47.5942 C.3       12 UNK         0.1400 
     71 CB         -0.0248  -18.8863  -46.7976 C.3       12 UNK        -0.1800 
     72 C          -1.5442  -20.8998  -47.0474 C.2       12 UNK         0.5000 
     73 O          -2.6581  -20.6527  -47.5121 O.2       12 UNK        -0.5000 
     74 N          -1.3268  -21.8200  -46.0971 N.am      13 UNK        -0.5000 
     75 CA         -2.3489  -22.7422  -45.6050 C.3       13 UNK         0.1400 
     76 CB         -1.8576  -23.4308  -44.3236 C.3       13 UNK        -0.1800 
     77 C          -2.7578  -23.7660  -46.6811 C.2       13 UNK         0.5000 
     78 O          -3.9524  -23.9662  -46.9000 O.2       13 UNK        -0.5000 
     79 N          -1.7692  -24.3482  -47.3773 N.am      14 UNK        -0.5000 
     80 CA         -1.9641  -25.2576  -48.5129 C.3       14 UNK         0.1400 
     81 CB         -0.6149  -25.8677  -48.9204 C.3       14 UNK        -0.1800 
     82 C          -2.6461  -24.5839  -49.7214 C.2       14 UNK         0.5000 
     83 O          -3.4343  -25.2286  -50.4131 O.2       14 UNK        -0.5000 
     84 N          -2.3751  -23.2862  -49.9152 N.am      15 UNK        -0.5000 
     85 CA         -3.0178  -22.4010  -50.8889 C.3       15 UNK         0.1400 
     86 CB         -2.1842  -21.1171  -51.0157 C.3       15 UNK        -0.1800 
     87 C          -4.4789  -22.0439  -50.5486 C.2       15 UNK         0.5000 
     88 O          -5.1216  -21.3558  -51.3439 O.2       15 UNK        -0.5000 
     89 N          -4.9619  -22.4956  -49.3809 N.am      16 UNK        -0.5000 
     90 CA         -6.2928  -22.2877  -48.8147 C.3       16 UNK         0.1400 
     91 CB         -7.3761  -22.9993  -49.6515 C.3       16 UNK        -0.1800 
     92 C          -6.5820  -20.8066  -48.5084 C.2       16 UNK         0.5000 
     93 O          -7.6887  -20.3226  -48.7570 O.2       16 UNK        -0.5000 
     94 N          -5.5706  -20.1263  -47.9452 N.am      17 UNK        -0.5000 
     95 CA         -5.5991  -18.7646  -47.4140 C.3       17 UNK         0.1400 
     96 CB         -6.4046  -18.7252  -46.0968 C.3       17 UNK        -0.1800 
     97 C          -6.0706  -17.7383  -48.4592 C.2       17 UNK         0.5000 
     98 O          -5.2869  -17.3653  -49.3329 O.2       17 UNK        -0.5000 
     99 N          -7.3228  -17.2795  -48.3436 N.am      18 UNK        -0.5000 
    100 CA        -7.9484  -16.2863  -49.2172 C.3       18 UNK         0.1400 
    101 CB        -9.2809  -15.8482  -48.5913 C.3       18 UNK        -0.1800 
    102 C         -8.1591  -16.7623  -50.6686 C.2       18 UNK         0.5000 
    103 O         -8.3142  -15.9192  -51.5527 O.2       18 UNK        -0.5000 
    104 N         -8.1508  -18.0846  -50.9011 N.am      19 UNK        -0.5000 
    105 CA        -8.2140  -18.6805  -52.2393 C.3       19 UNK         0.1400 
    106 CB        -8.4899  -20.1826  -52.1146 C.3       19 UNK        -0.1800 
    107 C         -6.9370  -18.4305  -53.0677 C.2       19 UNK         0.5000 
    108 O         -7.0240  -18.3487  -54.2934 O.2       19 UNK        -0.5000 
    109 N         -5.7949  -18.2765  -52.3785 N.am      20 UNK        -0.5000 
    110 CA        -4.4952  -17.8399  -52.8940 C.3       20 UNK         0.1400 
    111 CB        -4.5736  -16.3547  -53.3063 C.3       20 UNK        -0.1800 
    112 C         -3.9088  -18.7275  -54.0141 C.2       20 UNK         0.5000 
    113 O         -3.2357  -18.2105  -54.9091 O.2       20 UNK        -0.5000 
    114 N         -4.1377  -20.0466  -53.9446 N.am      21 UNK        -0.5000 
    115 CA        -3.6074  -21.0427  -54.8823 C.3       21 UNK         0.1400 
    116 CB        -4.4368  -22.3328  -54.7554 C.3       21 UNK        -0.1800 
    117 C         -2.0944  -21.2779  -54.6667 C.2       21 UNK         0.5000 
    118 O         -1.7000  -22.2902  -54.0875 O.2       21 UNK        -0.5000 
    119 N         -1.2852  -20.3064  -55.1064 N.am      22 UNK        -0.5000 
    120 CA         0.1342  -20.1220  -54.7558 C.3       22 UNK         0.1400 
    121 C          0.3077  -19.6168  -53.2940 C.2       22 UNK         0.5000 
    122 N         -0.4993  -18.6525  -52.8694 N.am      22 UNK        -0.7600 
    123 O          1.1469  -20.0934  -52.5380 O.2       22 UNK        -0.5000 
    124 C124        1.0481  -21.3242  -55.1389 C.3       23 UNK        -0.0398 
    125 S125        2.6679  -20.7773  -55.7874 S.3       23 UNK        -0.2404 
    126 C126        3.8592  -21.7962  -54.8453 C.3       23 UNK        -0.0205 
    127 H127        1.3774  -12.2246  -50.8803 H         1 UNK         0.0600 
    128 H128        2.5706  -13.2309  -51.7067 H         1 UNK         0.0600 
    129 H129        3.0340  -12.3119  -50.2718 H         1 UNK         0.0600 
    130 H130        2.2640  -15.3951  -51.2846 H         1 UNK         0.3000 
    131 H131        1.8774  -16.4088  -48.5745 H         1 UNK         0.0600 
    132 H132        2.1816  -18.6421  -49.6232 H         1 UNK         0.0800 
    133 H133        2.1709  -17.9290  -51.2139 H         1 UNK         0.0800 
    134 H134        5.8128  -17.4566  -51.8433 H         1 UNK         0.0800 
    135 H135        4.1799  -17.3167  -52.4451 H         1 UNK         0.0800 
    136 H136        3.8933  -19.1464  -53.9410 H         1 UNK         0.1150 
    137 H137        4.9740  -23.1429  -52.7960 H         1 UNK         0.1150 
    138 H138        5.8206  -19.8585  -50.1887 H         1 UNK         0.1150 
    139 H139        6.7462  -23.2320  -50.8434 H         1 UNK         0.0800 
    140 H140        6.6273  -22.0023  -49.6123 H         1 UNK         0.0800 
    141 H141        3.1014  -21.9549  -50.1126 H         1 UNK         0.0800 
    142 H142        3.9218  -21.4236  -48.6617 H         1 UNK         0.0800 
    143 H143        2.0886  -23.8682  -48.7133 H         1 UNK         0.0600 
    144 H144        3.5583  -22.6571  -46.5823 H         1 UNK         0.3000 
    145 H145        1.5592  -23.9402  -43.9243 H         1 UNK         0.0600 
    146 H146        3.7043  -24.9916  -43.2598 H         1 UNK         0.0600 
    147 H147        2.9793  -25.8883  -44.5843 H         1 UNK         0.0600 
    148 H148        4.3348  -24.8111  -44.8977 H         1 UNK         0.0600 
    149 H149        4.0271  -22.5525  -43.8893 H         1 UNK         0.3000 
    150 H150        4.2748  -20.4542  -43.4676 H         1 UNK         0.0600 
    151 H151        3.7529  -19.6112  -45.7731 H         1 UNK         0.0600 
    152 H152        4.0522  -18.3114  -44.6301 H         1 UNK         0.0600 
    153 H153        2.4067  -18.6833  -45.1211 H         1 UNK         0.0600 
    154 H154        2.0106  -18.7129  -42.7550 H         1 UNK         0.3000 
    155 H155        2.5267  -19.3919  -39.2354 H         1 UNK         0.0600 
    156 H156        2.9197  -16.9287  -41.0132 H         1 UNK         0.0600 
    157 H157        4.1464  -17.6463  -39.9736 H         1 UNK         0.0600 
    158 H158        2.7097  -16.9261  -39.2633 H         1 UNK         0.0600 
    159 H159        0.6413  -18.3197  -41.3011 H         1 UNK         0.3000 
    160 H160       -2.1167  -19.2410  -39.3951 H         1 UNK         0.0600 
    161 H161       -1.2388  -16.3036  -39.4351 H         1 UNK         0.0600 
    162 H162       -1.7494  -17.2066  -38.0141 H         1 UNK         0.0600 
    163 H163       -2.9018  -16.8733  -39.2975 H         1 UNK         0.0600 
    164 H164       -1.7620  -17.3747  -41.5834 H         1 UNK         0.3000 
    165 H165       -1.1953  -19.6868  -44.0905 H         1 UNK         0.0600 
    166 H166       -3.3498  -19.1427  -45.1750 H         1 UNK         0.0600 
    167 H167       -3.6196  -20.2841  -43.8676 H         1 UNK         0.0600 
    168 H168       -4.0192  -18.5862  -43.6423 H         1 UNK         0.0600 
    169 H169       -2.2277  -17.0555  -44.3206 H         1 UNK         0.3000 
    170 H170        0.5553  -15.1431  -43.3739 H         1 UNK         0.0600 
    171 H171        1.5125  -15.9924  -45.5040 H         1 UNK         0.0600 
    172 H172       -0.0703  -15.9408  -46.2649 H         1 UNK         0.0600 
    173 H173        0.7190  -14.4467  -45.7680 H         1 UNK         0.0600 
    174 H174       -1.6882  -14.4748  -44.9858 H         1 UNK         0.3000 
    175 H175       -4.2099  -14.4353  -42.5796 H         1 UNK         0.0600 
    176 H176       -2.6516  -11.8792  -43.2421 H         1 UNK         0.0600 
    177 H177       -4.3220  -11.9608  -42.6793 H         1 UNK         0.0600 
    178 H178       -3.0132  -12.4573  -41.6201 H         1 UNK         0.0600 
    179 H179       -4.0945  -12.9451  -44.9589 H         1 UNK         0.3000 
    180 H180       -5.8343  -15.1186  -46.7674 H         1 UNK         0.0600 
    181 H181       -4.1294  -12.5797  -47.0323 H         1 UNK         0.0600 
    182 H182       -5.7446  -12.6718  -46.3259 H         1 UNK         0.0600 
    183 H183       -5.5116  -13.0116  -48.0282 H         1 UNK         0.0600 
    184 H184       -4.5242  -15.8973  -48.3845 H         1 UNK         0.3000 
    185 H185       -2.4964  -16.9184  -49.0602 H         1 UNK         0.0600 
    186 H186       -2.3029  -14.2736  -50.6259 H         1 UNK         0.0600 
    187 H187       -2.2693  -15.8864  -51.3352 H         1 UNK         0.0600 
    188 H188       -3.7269  -15.3040  -50.5498 H         1 UNK         0.0600 
    189 H189       -0.2804  -15.0611  -48.6498 H         1 UNK         0.3000 
    190 H190        1.5728  -20.8424  -46.8793 H         1 UNK         0.3000 
    191 H191       -0.5231  -19.8708  -48.6224 H         1 UNK         0.0600 
    192 H192       -0.8949  -18.2286  -46.7949 H         1 UNK         0.0600 
    193 H193        0.8098  -18.3301  -47.2219 H         1 UNK         0.0600 
    194 H194        0.2256  -19.1148  -45.7646 H         1 UNK         0.0600 
    195 H195       -0.3901  -21.9284  -45.7279 H         1 UNK         0.3000 
    196 H196       -3.2362  -22.1588  -45.3516 H         1 UNK         0.0600 
    197 H197       -2.6346  -24.0717  -43.9055 H         1 UNK         0.0600 
    198 H198       -1.5937  -22.6982  -43.5605 H         1 UNK         0.0600 
    199 H199       -0.9825  -24.0539  -44.5040 H         1 UNK         0.0600 
    200 H200       -0.8071  -24.1731  -47.0989 H         1 UNK         0.3000 
    201 H201       -2.6147  -26.0678  -48.1777 H         1 UNK         0.0600 
    202 H202       -0.1469  -26.3873  -48.0841 H         1 UNK         0.0600 
    203 H203        0.0799  -25.1060  -49.2733 H         1 UNK         0.0600 
    204 H204       -0.7421  -26.5928  -49.7251 H         1 UNK         0.0600 
    205 H205       -1.6239  -22.8706  -49.3725 H         1 UNK         0.3000 
    206 H206       -3.0210  -22.9116  -51.8520 H         1 UNK         0.0600 
    207 H207       -1.1590  -21.3395  -51.3096 H         1 UNK         0.0600 
    208 H208       -2.5918  -20.4482  -51.7702 H         1 UNK         0.0600 
    209 H209       -2.1570  -20.5579  -50.0833 H         1 UNK         0.0600 
    210 H210       -4.3348  -23.0300  -48.7918 H         1 UNK         0.3000 
    211 H211       -6.2814  -22.7774  -47.8402 H         1 UNK         0.0600 
    212 H212       -7.3866  -22.6677  -50.6873 H         1 UNK         0.0600 
    213 H213       -8.3717  -22.8314  -49.2393 H         1 UNK         0.0600 
    214 H214       -7.2098  -24.0764  -49.6582 H         1 UNK         0.0600 
    215 H215       -4.6709  -20.5896  -47.8583 H         1 UNK         0.3000 
    216 H216       -4.5669  -18.5025  -47.1771 H         1 UNK         0.0600 
    217 H217       -6.4054  -17.7231  -45.6658 H         1 UNK         0.0600 
    218 H218       -5.9649  -19.3909  -45.3546 H         1 UNK         0.0600 
    219 H219       -7.4419  -19.0328  -46.2329 H         1 UNK         0.0600 
    220 H220       -7.9081  -17.6731  -47.6209 H         1 UNK         0.3000 
    221 H221       -7.2890  -15.4166  -49.2573 H         1 UNK         0.0600 
    222 H222       -9.9765  -16.6837  -48.5027 H         1 UNK         0.0600 
    223 H223       -9.1309  -15.4275  -47.5968 H         1 UNK         0.0600 
    224 H224       -9.7649  -15.0808  -49.1971 H         1 UNK         0.0600 
    225 H225       -8.0311  -18.7217  -50.1205 H         1 UNK         0.3000 
    226 H226       -9.0508  -18.2261  -52.7740 H         1 UNK         0.0600 
    227 H227       -7.6687  -20.6820  -51.6062 H         1 UNK         0.0600 
    228 H228       -9.4038  -20.3767  -51.5530 H         1 UNK         0.0600 
    229 H229       -8.6001  -20.6454  -53.0960 H         1 UNK         0.0600 
    230 H230       -5.8417  -18.3729  -51.3723 H         1 UNK         0.3000 
    231 H231       -3.8017  -17.9148  -52.0550 H         1 UNK         0.0600 
    232 H232       -3.5831  -15.9507  -53.5177 H         1 UNK         0.0600 
    233 H233       -5.0117  -15.7467  -52.5150 H         1 UNK         0.0600 
    234 H234       -5.1807  -16.2180  -54.2018 H         1 UNK         0.0600 
    235 H235       -4.6615  -20.4045  -53.1521 H         1 UNK         0.3000 
    236 H236       -3.7410  -20.6691  -55.8997 H         1 UNK         0.0600 
    237 H237       -5.4828  -22.1516  -55.0033 H         1 UNK         0.0600 
    238 H238       -4.0698  -23.1016  -55.4363 H         1 UNK         0.0600 
    239 H239       -4.4023  -22.7431  -53.7467 H         1 UNK         0.0600 
    240 H240       -1.7379  -19.4928  -55.5082 H         1 UNK         0.3000 
    241 H241        0.4413  -19.2756  -55.3712 H         1 UNK         0.0600 
    242 H242       -0.4260  -18.3473  -51.8990 H         1 UNK         0.3800 
    243 H243       -1.1792  -18.2349  -53.4827 H         1 UNK         0.3800 
    244 H244        1.1737  -22.0138  -54.3025 H         1 UNK         0.0800 
    245 H245        0.5822  -21.9101  -55.9319 H         1 UNK         0.0800 
    246 H246        4.7308  -21.9563  -55.4810 H         1 UNK         0.0800 
    247 H247        3.4250  -22.7830  -54.6773 H         1 UNK         0.0800 
@<TRIPOS>BOND
     1    1    2 1    
     2    1  127 1    
     3    1  128 1    
     4    1  129 1    
     5    2    3 2    
     6    2    4 am   BACKBONE|DICT|INTERRES
     7    4    5 1    
     8    4  130 1    
     9    5    6 1    
    10    5   65 1    
    11    5  131 1    
    12    6    7 1    
    13    6  132 1    
    14    6  133 1    
    15    7    8 1    
    16    8    9 1    
    17    8  134 1    
    18    8  135 1    
    19    9   10 ar   
    20    9   14 ar   
    21   10   11 ar   
    22   10  136 1    
    23   11   12 ar   
    24   11  126 1    
    25   12   13 ar   
    26   12  137 1    
    27   13   14 ar   
    28   13   15 1    
    29   14  138 1    
    30   15   16 1    
    31   15  139 1    
    32   15  140 1    
    33   16   17 1    
    34   17   18 1    
    35   17  141 1    
    36   17  142 1    
    37   18   19 1    
    38   18   67 1    
    39   18  143 1    
    40   19   20 am   BACKBONE|DICT|INTERRES
    41   19  144 1    
    42   20   21 2    
    43   20   22 1    
    44   22   23 1    
    45   22   24 1    
    46   22  145 1    
    47   23  146 1    
    48   23  147 1    
    49   23  148 1    
    50   24   25 am   BACKBONE|DICT|INTERRES
    51   24  149 1    
    52   25   26 2    
    53   25   27 1    
    54   27   28 1    
    55   27   29 1    
    56   27  150 1    
    57   28  151 1    
    58   28  152 1    
    59   28  153 1    
    60   29   30 am   BACKBONE|DICT|INTERRES
    61   29  154 1    
    62   30   31 2    
    63   30   32 1    
    64   32   33 1    
    65   32   34 1    
    66   32  155 1    
    67   33  156 1    
    68   33  157 1    
    69   33  158 1    
    70   34   35 am   BACKBONE|DICT|INTERRES
    71   34  159 1    
    72   35   36 2    
    73   35   37 1    
    74   37   38 1    
    75   37   39 1    
    76   37  160 1    
    77   38  161 1    
    78   38  162 1    
    79   38  163 1    
    80   39   40 am   BACKBONE|DICT|INTERRES
    81   39  164 1    
    82   40   41 2    
    83   40   42 1    
    84   42   43 1    
    85   42   44 1    
    86   42  165 1    
    87   43  166 1    
    88   43  167 1    
    89   43  168 1    
    90   44   45 am   BACKBONE|DICT|INTERRES
    91   44  169 1    
    92   45   46 2    
    93   45   47 1    
    94   47   48 1    
    95   47   49 1    
    96   47  170 1    
    97   48  171 1    
    98   48  172 1    
    99   48  173 1    
   100   49   50 am   BACKBONE|DICT|INTERRES
   101   49  174 1    
   102   50   51 2    
   103   50   52 1    
   104   52   53 1    
   105   52   54 1    
   106   52  175 1    
   107   53  176 1    
   108   53  177 1    
   109   53  178 1    
   110   54   55 am   BACKBONE|DICT|INTERRES
   111   54  179 1    
   112   55   56 2    
   113   55   57 1    
   114   57   58 1    
   115   57   59 1    
   116   57  180 1    
   117   58  181 1    
   118   58  182 1    
   119   58  183 1    
   120   59   60 am   BACKBONE|DICT|INTERRES
   121   59  184 1    
   122   60   61 2    
   123   60   62 1    
   124   62   63 1    
   125   62   64 1    
   126   62  185 1    
   127   63  186 1    
   128   63  187 1    
   129   63  188 1    
   130   64   65 am   BACKBONE|DICT|INTERRES
   131   64  189 1    
   132   65   66 2    
   133   67   68 2    
   134   67   69 am   BACKBONE|DICT|INTERRES
   135   69   70 1    
   136   69  190 1    
   137   70   71 1    
   138   70   72 1    
   139   70  191 1    
   140   71  192 1    
   141   71  193 1    
   142   71  194 1    
   143   72   73 2    
   144   72   74 am   BACKBONE|DICT|INTERRES
   145   74   75 1    
   146   74  195 1    
   147   75   76 1    
   148   75   77 1    
   149   75  196 1    
   150   76  197 1    
   151   76  198 1    
   152   76  199 1    
   153   77   78 2    
   154   77   79 am   BACKBONE|DICT|INTERRES
   155   79   80 1    
   156   79  200 1    
   157   80   81 1    
   158   80   82 1    
   159   80  201 1    
   160   81  202 1    
   161   81  203 1    
   162   81  204 1    
   163   82   83 2    
   164   82   84 am   BACKBONE|DICT|INTERRES
   165   84   85 1    
   166   84  205 1    
   167   85   86 1    
   168   85   87 1    
   169   85  206 1    
   170   86  207 1    
   171   86  208 1    
   172   86  209 1    
   173   87   88 2    
   174   87   89 am   BACKBONE|DICT|INTERRES
   175   89   90 1    
   176   89  210 1    
   177   90   91 1    
   178   90   92 1    
   179   90  211 1    
   180   91  212 1    
   181   91  213 1    
   182   91  214 1    
   183   92   93 2    
   184   92   94 am   BACKBONE|DICT|INTERRES
   185   94   95 1    
   186   94  215 1    
   187   95   96 1    
   188   95   97 1    
   189   95  216 1    
   190   96  217 1    
   191   96  218 1    
   192   96  219 1    
   193   97   98 2    
   194   97   99 am   BACKBONE|DICT|INTERRES
   195   99  100 1    
   196   99  220 1    
   197  100  101 1    
   198  100  102 1    
   199  100  221 1    
   200  101  222 1    
   201  101  223 1    
   202  101  224 1    
   203  102  103 2    
   204  102  104 am   BACKBONE|DICT|INTERRES
   205  104  105 1    
   206  104  225 1    
   207  105  106 1    
   208  105  107 1    
   209  105  226 1    
   210  106  227 1    
   211  106  228 1    
   212  106  229 1    
   213  107  108 2    
   214  107  109 am   BACKBONE|DICT|INTERRES
   215  109  110 1    
   216  109  230 1    
   217  110  111 1    
   218  110  112 1    
   219  110  231 1    
   220  111  232 1    
   221  111  233 1    
   222  111  234 1    
   223  112  113 2    
   224  112  114 am   BACKBONE|DICT|INTERRES
   225  114  115 1    
   226  114  235 1    
   227  115  116 1    
   228  115  117 1    
   229  115  236 1    
   230  116  237 1    
   231  116  238 1    
   232  116  239 1    
   233  117  118 2    
   234  117  119 am   BACKBONE|DICT|INTERRES
   235  119  120 1    
   236  119  240 1    
   237  120  121 1    
   238  120  124 1    
   239  120  241 1    
   240  121  122 am   BACKBONE|DICT|INTERRES
   241  121  123 2    
   242  122  242 1    
   243  122  243 1    
   244  124  125 1    
   245  124  244 1    
   246  124  245 1    
   247  125  126 1    
   248  126  246 1    
   249  126  247 1    
@<TRIPOS>SUBSTRUCTURE
     1 UNK         1 GROUP             0       ****    0 ROOT    
