@<TRIPOS>MOLECULE
3R540
247   249    1
SMALL
USER_CHARGES


@<TRIPOS>ATOM
      1 CA         -2.8716   -9.9967  -46.8174 C.3       0 UNK        -0.1800 
      2 C          -1.5246  -10.6823  -46.6445 C.2       0 UNK         0.5000 
      3 O          -0.6824  -10.1953  -45.8934 O.2       0 UNK        -0.5000 
      4 N          -1.3220  -11.8203  -47.3190 N.am      1 UNK        -0.5000 
      5 CA         -0.0872  -12.6177  -47.2995 C.3       1 UNK         0.1400 
      6 C6         -0.1675  -13.7554  -48.3470 C.3       23 UNK        -0.0398 
      7 S7          1.4588  -14.3064  -48.9609 S.3       23 UNK        -0.2404 
      8 C8          1.4908  -16.0473  -48.4070 C.3       23 UNK        -0.0205 
      9 C9          0.6761  -17.0375  -49.2481 C.ar      23 UNK        -0.0193 
     10 C10        -0.3312  -16.6359  -50.1354 C.ar      23 UNK        -0.1150 
     11 C11        -1.0607  -17.5731  -50.8688 C.ar      23 UNK        -0.0193 
     12 C12        -0.7856  -18.9326  -50.7091 C.ar      23 UNK        -0.1150 
     13 C13         0.2154  -19.3620  -49.8329 C.ar      23 UNK        -0.0193 
     14 C14         0.9451  -18.4045  -49.1162 C.ar      23 UNK        -0.1150 
     15 C15         0.5008  -20.8614  -49.7308 C.3       23 UNK        -0.0205 
     16 S16         1.2996  -21.4355  -48.1899 S.3       23 UNK        -0.2404 
     17 C17         0.0779  -20.9898  -46.9115 C.3       23 UNK        -0.0398 
     18 CA         -0.8447  -22.1628  -46.4940 C.3       11 UNK         0.1400 
     19 N          -1.2965  -22.0217  -45.1009 N.am      11 UNK        -0.5000 
     20 C          -2.0575  -22.9109  -44.4401 C.2       10 UNK         0.5000 
     21 O          -2.4306  -23.9724  -44.9353 O.2       10 UNK        -0.5000 
     22 CA         -2.5245  -22.5637  -43.0115 C.3       10 UNK         0.1400 
     23 CB         -1.7159  -23.3627  -41.9786 C.3       10 UNK        -0.1800 
     24 N          -2.4415  -21.1433  -42.6757 N.am      10 UNK        -0.5000 
     25 C          -3.1040  -20.1449  -43.2777 C.2       9 UNK         0.5000 
     26 O          -3.9321  -20.3151  -44.1728 O.2       9 UNK        -0.5000 
     27 CA         -2.7234  -18.7123  -42.8449 C.3       9 UNK         0.1400 
     28 CB         -3.7333  -18.1696  -41.8233 C.3       9 UNK        -0.1800 
     29 N          -1.3671  -18.6069  -42.2866 N.am      9 UNK        -0.5000 
     30 C          -0.2467  -18.9026  -42.9597 C.2       8 UNK         0.5000 
     31 O          -0.2432  -19.2801  -44.1340 O.2       8 UNK        -0.5000 
     32 CA          1.0723  -18.8580  -42.1667 C.3       8 UNK         0.1400 
     33 CB          1.2718  -20.1749  -41.3995 C.3       8 UNK        -0.1800 
     34 N           2.2076  -18.6635  -43.0671 N.am      8 UNK        -0.5000 
     35 C           2.5132  -17.4895  -43.6269 C.2       7 UNK         0.5000 
     36 O           1.9847  -16.4214  -43.3029 O.2       7 UNK        -0.5000 
     37 CA          3.5640  -17.5156  -44.7476 C.3       7 UNK         0.1400 
     38 CB          3.0620  -18.3095  -45.9665 C.3       7 UNK        -0.1800 
     39 N           3.8297  -16.1332  -45.1176 N.am      7 UNK        -0.5000 
     40 C           4.9482  -15.6420  -45.6581 C.2       6 UNK         0.5000 
     41 O           5.8677  -16.3382  -46.0895 O.2       6 UNK        -0.5000 
     42 CA          5.0755  -14.1049  -45.6724 C.3       6 UNK         0.1400 
     43 CB          4.6514  -13.5244  -47.0270 C.3       6 UNK        -0.1800 
     44 N           4.2788  -13.4773  -44.6148 N.am      6 UNK        -0.5000 
     45 C           4.6056  -13.4957  -43.3144 C.2       5 UNK         0.5000 
     46 O           5.6614  -13.9660  -42.8864 O.2       5 UNK        -0.5000 
     47 CA          3.5656  -12.9114  -42.3383 C.3       5 UNK         0.1400 
     48 CB          4.1495  -12.5776  -40.9497 C.3       5 UNK        -0.1800 
     49 N           2.8450  -11.7645  -42.8940 N.am      5 UNK        -0.5000 
     50 C           3.3397  -10.5709  -43.2552 C.2       4 UNK         0.5000 
     51 O           4.5262  -10.2564  -43.1565 O.2       4 UNK        -0.5000 
     52 CA          2.3361   -9.5527  -43.8362 C.3       4 UNK         0.1400 
     53 CB          2.5330   -9.4223  -45.3550 C.3       4 UNK        -0.1800 
     54 N           0.9396   -9.9083  -43.5757 N.am      4 UNK        -0.5000 
     55 C           0.3308   -9.8526  -42.3830 C.2       3 UNK         0.5000 
     56 O           0.8474   -9.3811  -41.3698 O.2       3 UNK        -0.5000 
     57 CA         -1.0694  -10.4884  -42.3037 C.3       3 UNK         0.1400 
     58 CB         -2.1530   -9.4963  -42.7534 C.3       3 UNK        -0.1800 
     59 N          -1.1577  -11.7158  -43.1019 N.am      3 UNK        -0.5000 
     60 C          -0.5785  -12.8795  -42.7695 C.2       2 UNK         0.5000 
     61 O           0.0561  -13.0482  -41.7292 O.2       2 UNK        -0.5000 
     62 CA         -0.6959  -14.0414  -43.7734 C.3       2 UNK         0.1400 
     63 CB         -1.9059  -14.9285  -43.4466 C.3       2 UNK        -0.1800 
     64 N          -0.7907  -13.5838  -45.1593 N.am      2 UNK        -0.5000 
     65 C           0.2496  -13.1525  -45.8877 C.2       1 UNK         0.5000 
     66 O           1.4109  -13.1225  -45.4725 O.2       1 UNK        -0.5000 
     67 C          -2.0221  -22.3254  -47.4834 C.2       11 UNK         0.5000 
     68 O          -1.9246  -23.1009  -48.4339 O.2       11 UNK        -0.5000 
     69 N          -3.1408  -21.6432  -47.1982 N.am      12 UNK        -0.5000 
     70 CA         -4.3888  -21.7247  -47.9571 C.3       12 UNK         0.1400 
     71 CB         -5.2836  -20.5449  -47.5492 C.3       12 UNK        -0.1800 
     72 C          -5.1426  -23.0624  -47.7854 C.2       12 UNK         0.5000 
     73 O          -6.0535  -23.3374  -48.5661 O.2       12 UNK        -0.5000 
     74 N          -4.7716  -23.8608  -46.7754 N.am      13 UNK        -0.5000 
     75 CA         -5.3848  -25.1484  -46.4464 C.3       13 UNK         0.1400 
     76 CB         -5.8492  -25.0954  -44.9808 C.3       13 UNK        -0.1800 
     77 C          -4.4251  -26.3349  -46.6663 C.2       13 UNK         0.5000 
     78 O          -4.8449  -27.4785  -46.4838 O.2       13 UNK        -0.5000 
     79 N          -3.1614  -26.0619  -47.0253 N.am      14 UNK        -0.5000 
     80 CA         -2.0909  -27.0535  -47.1539 C.3       14 UNK         0.1400 
     81 CB         -0.7487  -26.3252  -47.3310 C.3       14 UNK        -0.1800 
     82 C          -2.3272  -28.0555  -48.2980 C.2       14 UNK         0.5000 
     83 O          -2.1533  -29.2594  -48.1049 O.2       14 UNK        -0.5000 
     84 N          -2.7436  -27.5303  -49.4530 N.am      15 UNK        -0.5000 
     85 CA         -3.0952  -28.2389  -50.6781 C.3       15 UNK         0.1400 
     86 CB         -1.8647  -28.9377  -51.2908 C.3       15 UNK        -0.1800 
     87 C          -3.6410  -27.1919  -51.6538 C.2       15 UNK         0.5000 
     88 O          -3.2661  -26.0218  -51.5494 O.2       15 UNK        -0.5000 
     89 N          -4.4707  -27.6166  -52.6141 N.am      16 UNK        -0.5000 
     90 CA         -5.0385  -26.7418  -53.6467 C.3       16 UNK         0.1400 
     91 CB         -6.0620  -27.5279  -54.4794 C.3       16 UNK        -0.1800 
     92 C          -3.9662  -26.1105  -54.5559 C.2       16 UNK         0.5000 
     93 O          -4.0714  -24.9328  -54.8983 O.2       16 UNK        -0.5000 
     94 N          -2.9311  -26.8958  -54.8856 N.am      17 UNK        -0.5000 
     95 CA         -1.7756  -26.4633  -55.6729 C.3       17 UNK         0.1400 
     96 CB         -0.9957  -27.7021  -56.1390 C.3       17 UNK        -0.1800 
     97 C          -0.8484  -25.4995  -54.9077 C.2       17 UNK         0.5000 
     98 O          -0.2155  -24.6495  -55.5345 O.2       17 UNK        -0.5000 
     99 N          -0.7856  -25.6446  -53.5761 N.am      18 UNK        -0.5000 
    100 CA        -0.0388  -24.7543  -52.6875 C.3       18 UNK         0.1400 
    101 CB         0.2318  -25.4576  -51.3468 C.3       18 UNK        -0.1800 
    102 C         -0.7900  -23.4315  -52.4715 C.2       18 UNK         0.5000 
    103 O         -0.1818  -22.3656  -52.5602 O.2       18 UNK        -0.5000 
    104 N         -2.1002  -23.5340  -52.2113 N.am      19 UNK        -0.5000 
    105 CA        -3.0103  -22.4146  -51.9976 C.3       19 UNK         0.1400 
    106 CB        -4.3742  -22.9572  -51.5501 C.3       19 UNK        -0.1800 
    107 C         -3.1580  -21.5301  -53.2451 C.2       19 UNK         0.5000 
    108 O         -3.0428  -20.3102  -53.1329 O.2       19 UNK        -0.5000 
    109 N         -3.3921  -22.1596  -54.4072 N.am      20 UNK        -0.5000 
    110 CA        -3.5531  -21.5408  -55.7251 C.3       20 UNK         0.1400 
    111 CB        -2.1796  -21.0726  -56.2552 C.3       20 UNK        -0.1800 
    112 C         -4.6353  -20.4393  -55.7053 C.2       20 UNK         0.5000 
    113 O         -5.8072  -20.7510  -55.4843 O.2       20 UNK        -0.5000 
    114 N         -4.2264  -19.1742  -55.8748 N.am      21 UNK        -0.5000 
    115 CA        -5.0771  -17.9834  -55.7943 C.3       21 UNK         0.1400 
    116 CB        -4.2432  -16.7532  -56.1844 C.3       21 UNK        -0.1800 
    117 C         -5.7372  -17.7677  -54.4156 C.2       21 UNK         0.5000 
    118 O         -6.7905  -17.1325  -54.3491 O.2       21 UNK        -0.5000 
    119 N         -5.1264  -18.3080  -53.3536 N.am      22 UNK        -0.5000 
    120 CA        -5.6722  -18.3313  -51.9878 C.3       22 UNK         0.1400 
    121 C         -6.6043  -19.5496  -51.7157 C.2       22 UNK         0.5000 
    122 N         -6.8459  -20.4470  -52.6660 N.am      22 UNK        -0.7600 
    123 O         -7.1411  -19.6753  -50.6194 O.2       22 UNK        -0.5000 
    124 C124       -4.5534  -18.2130  -50.9171 C.3       23 UNK        -0.0398 
    125 S125       -3.6653  -16.6213  -51.0275 S.3       23 UNK        -0.2404 
    126 C126       -2.1166  -17.0991  -51.8567 C.3       23 UNK        -0.0205 
    127 H127       -3.5027  -10.5176  -47.5377 H         1 UNK         0.0600 
    128 H128       -2.7283   -8.9745  -47.1672 H         1 UNK         0.0600 
    129 H129       -3.3995   -9.9609  -45.8645 H         1 UNK         0.0600 
    130 H130       -2.0587  -12.1665  -47.9172 H         1 UNK         0.3000 
    131 H131        0.7203  -11.9405  -47.5869 H         1 UNK         0.0600 
    132 H132       -0.7463  -14.6012  -47.9708 H         1 UNK         0.0800 
    133 H133       -0.7073  -13.4040  -49.2277 H         1 UNK         0.0800 
    134 H134        2.5344  -16.3658  -48.4020 H         1 UNK         0.0800 
    135 H135        1.1522  -16.0950  -47.3713 H         1 UNK         0.0800 
    136 H136       -0.5606  -15.5919  -50.2779 H         1 UNK         0.1150 
    137 H137       -1.3380  -19.6599  -51.2859 H         1 UNK         0.1150 
    138 H138        1.7355  -18.7220  -48.4537 H         1 UNK         0.1150 
    139 H139       -0.4223  -21.4236  -49.8734 H         1 UNK         0.0800 
    140 H140        1.1509  -21.1328  -50.5630 H         1 UNK         0.0800 
    141 H141       -0.4924  -20.1057  -47.2020 H         1 UNK         0.0800 
    142 H142        0.6777  -20.6781  -46.0569 H         1 UNK         0.0800 
    143 H143       -0.2648  -23.0876  -46.5296 H         1 UNK         0.0600 
    144 H144       -1.0345  -21.1605  -44.6338 H         1 UNK         0.3000 
    145 H145       -3.5720  -22.8618  -42.9342 H         1 UNK         0.0600 
    146 H146       -2.0925  -23.1986  -40.9688 H         1 UNK         0.0600 
    147 H147       -1.7784  -24.4339  -42.1759 H         1 UNK         0.0600 
    148 H148       -0.6605  -23.0872  -41.9937 H         1 UNK         0.0600 
    149 H149       -1.7854  -20.8960  -41.9506 H         1 UNK         0.3000 
    150 H150       -2.7674  -18.0851  -43.7374 H         1 UNK         0.0600 
    151 H151       -3.7174  -18.7449  -40.8968 H         1 UNK         0.0600 
    152 H152       -4.7493  -18.2114  -42.2184 H         1 UNK         0.0600 
    153 H153       -3.5257  -17.1282  -41.5768 H         1 UNK         0.0600 
    154 H154       -1.3001  -18.3198  -41.3205 H         1 UNK         0.3000 
    155 H155        1.0308  -18.0334  -41.4516 H         1 UNK         0.0600 
    156 H156        1.2965  -21.0343  -42.0712 H         1 UNK         0.0600 
    157 H157        0.4654  -20.3404  -40.6840 H         1 UNK         0.0600 
    158 H158        2.2048  -20.1641  -40.8356 H         1 UNK         0.0600 
    159 H159        2.6569  -19.5007  -43.4074 H         1 UNK         0.3000 
    160 H160        4.4791  -17.9662  -44.3582 H         1 UNK         0.0600 
    161 H161        2.0604  -17.9939  -46.2571 H         1 UNK         0.0600 
    162 H162        3.0118  -19.3761  -45.7463 H         1 UNK         0.0600 
    163 H163        3.7209  -18.1890  -46.8264 H         1 UNK         0.0600 
    164 H164        3.1437  -15.4850  -44.7483 H         1 UNK         0.3000 
    165 H165        6.1275  -13.8594  -45.5126 H         1 UNK         0.0600 
    166 H166        5.1909  -13.9984  -47.8479 H         1 UNK         0.0600 
    167 H167        3.5872  -13.6713  -47.2002 H         1 UNK         0.0600 
    168 H168        4.8519  -12.4541  -47.0769 H         1 UNK         0.0600 
    169 H169        3.3713  -13.1101  -44.8853 H         1 UNK         0.3000 
    170 H170        2.8191  -13.6946  -42.1976 H         1 UNK         0.0600 
    171 H171        4.5541  -13.4702  -40.4714 H         1 UNK         0.0600 
    172 H172        4.9560  -11.8467  -41.0125 H         1 UNK         0.0600 
    173 H173        3.3822  -12.1759  -40.2876 H         1 UNK         0.0600 
    174 H174        1.8558  -11.9088  -43.0369 H         1 UNK         0.3000 
    175 H175        2.5394   -8.5845  -43.3745 H         1 UNK         0.0600 
    176 H176        1.8665   -8.6692  -45.7758 H         1 UNK         0.0600 
    177 H177        3.5542   -9.1240  -45.5951 H         1 UNK         0.0600 
    178 H178        2.3366  -10.3656  -45.8667 H         1 UNK         0.0600 
    179 H179        0.4019  -10.2273  -44.3786 H         1 UNK         0.3000 
    180 H180       -1.2611  -10.7449  -41.2595 H         1 UNK         0.0600 
    181 H181       -2.0074   -9.1730  -43.7841 H         1 UNK         0.0600 
    182 H182       -2.1428   -8.6027  -42.1282 H         1 UNK         0.0600 
    183 H183       -3.1477   -9.9354  -42.6758 H         1 UNK         0.0600 
    184 H184       -1.6263  -11.6444  -43.9922 H         1 UNK         0.3000 
    185 H185        0.2027  -14.6500  -43.6733 H         1 UNK         0.0600 
    186 H186       -1.8391  -15.3182  -42.4300 H         1 UNK         0.0600 
    187 H187       -2.8450  -14.3803  -43.5292 H         1 UNK         0.0600 
    188 H188       -1.9546  -15.7854  -44.1184 H         1 UNK         0.0600 
    189 H189       -1.7123  -13.5626  -45.5708 H         1 UNK         0.3000 
    190 H190       -3.1608  -21.0671  -46.3665 H         1 UNK         0.3000 
    191 H191       -4.1477  -21.6153  -49.0154 H         1 UNK         0.0600 
    192 H192       -4.7847  -19.5914  -47.7227 H         1 UNK         0.0600 
    193 H193       -6.2083  -20.5367  -48.1276 H         1 UNK         0.0600 
    194 H194       -5.5567  -20.5943  -46.4944 H         1 UNK         0.0600 
    195 H195       -3.9981  -23.5821  -46.1824 H         1 UNK         0.3000 
    196 H196       -6.2603  -25.3305  -47.0726 H         1 UNK         0.0600 
    197 H197       -6.3534  -26.0190  -44.6936 H         1 UNK         0.0600 
    198 H198       -6.5539  -24.2794  -44.8205 H         1 UNK         0.0600 
    199 H199       -5.0105  -24.9529  -44.2981 H         1 UNK         0.0600 
    200 H200       -2.8956  -25.0952  -47.1469 H         1 UNK         0.3000 
    201 H201       -2.0477  -27.6197  -46.2212 H         1 UNK         0.0600 
    202 H202        0.0731  -27.0359  -47.4267 H         1 UNK         0.0600 
    203 H203       -0.7444  -25.6952  -48.2214 H         1 UNK         0.0600 
    204 H204       -0.5311  -25.6901  -46.4720 H         1 UNK         0.0600 
    205 H205       -2.8656  -26.5269  -49.5224 H         1 UNK         0.3000 
    206 H206       -3.8759  -28.9691  -50.4576 H         1 UNK         0.0600 
    207 H207       -1.4880  -29.7293  -50.6438 H         1 UNK         0.0600 
    208 H208       -2.1111  -29.4015  -52.2467 H         1 UNK         0.0600 
    209 H209       -1.0489  -28.2361  -51.4667 H         1 UNK         0.0600 
    210 H210       -4.7340  -28.5912  -52.6482 H         1 UNK         0.3000 
    211 H211       -5.5635  -25.9270  -53.1433 H         1 UNK         0.0600 
    212 H212       -5.6039  -28.3788  -54.9851 H         1 UNK         0.0600 
    213 H213       -6.5114  -26.8938  -55.2448 H         1 UNK         0.0600 
    214 H214       -6.8723  -27.9045  -53.8548 H         1 UNK         0.0600 
    215 H215       -2.9302  -27.8516  -54.5616 H         1 UNK         0.3000 
    216 H216       -2.1418  -25.9372  -56.5572 H         1 UNK         0.0600 
    217 H217       -0.1388  -27.4166  -56.7506 H         1 UNK         0.0600 
    218 H218       -1.6216  -28.3575  -56.7450 H         1 UNK         0.0600 
    219 H219       -0.6185  -28.2821  -55.2957 H         1 UNK         0.0600 
    220 H220       -1.3710  -26.3391  -53.1379 H         1 UNK         0.3000 
    221 H221        0.9253  -24.5252  -53.1469 H         1 UNK         0.0600 
    222 H222       -0.6908  -25.7188  -50.8288 H         1 UNK         0.0600 
    223 H223        0.8073  -26.3721  -51.4897 H         1 UNK         0.0600 
    224 H224        0.8055  -24.8127  -50.6798 H         1 UNK         0.0600 
    225 H225       -2.5055  -24.4613  -52.1077 H         1 UNK         0.3000 
    226 H226       -2.6032  -21.8035  -51.1899 H         1 UNK         0.0600 
    227 H227       -5.0526  -22.1461  -51.2873 H         1 UNK         0.0600 
    228 H228       -4.8525  -23.5494  -52.3309 H         1 UNK         0.0600 
    229 H229       -4.2713  -23.5929  -50.6712 H         1 UNK         0.0600 
    230 H230       -3.5207  -23.1680  -54.3940 H         1 UNK         0.3000 
    231 H231       -3.9200  -22.3214  -56.3930 H         1 UNK         0.0600 
    232 H232       -1.7186  -20.3254  -55.6081 H         1 UNK         0.0600 
    233 H233       -2.2656  -20.6466  -57.2555 H         1 UNK         0.0600 
    234 H234       -1.4880  -21.9128  -56.3241 H         1 UNK         0.0600 
    235 H235       -3.2400  -19.0107  -56.0137 H         1 UNK         0.3000 
    236 H236       -5.8799  -18.1004  -56.5250 H         1 UNK         0.0600 
    237 H237       -3.8379  -16.8528  -57.1914 H         1 UNK         0.0600 
    238 H238       -4.8512  -15.8476  -56.1685 H         1 UNK         0.0600 
    239 H239       -3.4091  -16.6002  -55.4982 H         1 UNK         0.0600 
    240 H240       -4.2851  -18.8599  -53.4929 H         1 UNK         0.3000 
    241 H241       -6.3155  -17.4582  -51.8645 H         1 UNK         0.0600 
    242 H242       -6.4410  -20.3658  -53.5916 H         1 UNK         0.3800 
    243 H243       -7.4677  -21.2130  -52.4645 H         1 UNK         0.3800 
    244 H244       -3.8510  -19.0437  -50.9858 H         1 UNK         0.0800 
    245 H245       -4.9797  -18.2652  -49.9142 H         1 UNK         0.0800 
    246 H246       -1.7336  -16.2324  -52.3974 H         1 UNK         0.0800 
    247 H247       -2.3119  -17.8573  -52.6148 H         1 UNK         0.0800 
@<TRIPOS>BOND
     1    1    2 1    
     2    1  127 1    
     3    1  128 1    
     4    1  129 1    
     5    2    3 2    
     6    2    4 am   BACKBONE|DICT|INTERRES
     7    4    5 1    
     8    4  130 1    
     9    5    6 1    
    10    5   65 1    
    11    5  131 1    
    12    6    7 1    
    13    6  132 1    
    14    6  133 1    
    15    7    8 1    
    16    8    9 1    
    17    8  134 1    
    18    8  135 1    
    19    9   10 ar   
    20    9   14 ar   
    21   10   11 ar   
    22   10  136 1    
    23   11   12 ar   
    24   11  126 1    
    25   12   13 ar   
    26   12  137 1    
    27   13   14 ar   
    28   13   15 1    
    29   14  138 1    
    30   15   16 1    
    31   15  139 1    
    32   15  140 1    
    33   16   17 1    
    34   17   18 1    
    35   17  141 1    
    36   17  142 1    
    37   18   19 1    
    38   18   67 1    
    39   18  143 1    
    40   19   20 am   BACKBONE|DICT|INTERRES
    41   19  144 1    
    42   20   21 2    
    43   20   22 1    
    44   22   23 1    
    45   22   24 1    
    46   22  145 1    
    47   23  146 1    
    48   23  147 1    
    49   23  148 1    
    50   24   25 am   BACKBONE|DICT|INTERRES
    51   24  149 1    
    52   25   26 2    
    53   25   27 1    
    54   27   28 1    
    55   27   29 1    
    56   27  150 1    
    57   28  151 1    
    58   28  152 1    
    59   28  153 1    
    60   29   30 am   BACKBONE|DICT|INTERRES
    61   29  154 1    
    62   30   31 2    
    63   30   32 1    
    64   32   33 1    
    65   32   34 1    
    66   32  155 1    
    67   33  156 1    
    68   33  157 1    
    69   33  158 1    
    70   34   35 am   BACKBONE|DICT|INTERRES
    71   34  159 1    
    72   35   36 2    
    73   35   37 1    
    74   37   38 1    
    75   37   39 1    
    76   37  160 1    
    77   38  161 1    
    78   38  162 1    
    79   38  163 1    
    80   39   40 am   BACKBONE|DICT|INTERRES
    81   39  164 1    
    82   40   41 2    
    83   40   42 1    
    84   42   43 1    
    85   42   44 1    
    86   42  165 1    
    87   43  166 1    
    88   43  167 1    
    89   43  168 1    
    90   44   45 am   BACKBONE|DICT|INTERRES
    91   44  169 1    
    92   45   46 2    
    93   45   47 1    
    94   47   48 1    
    95   47   49 1    
    96   47  170 1    
    97   48  171 1    
    98   48  172 1    
    99   48  173 1    
   100   49   50 am   BACKBONE|DICT|INTERRES
   101   49  174 1    
   102   50   51 2    
   103   50   52 1    
   104   52   53 1    
   105   52   54 1    
   106   52  175 1    
   107   53  176 1    
   108   53  177 1    
   109   53  178 1    
   110   54   55 am   BACKBONE|DICT|INTERRES
   111   54  179 1    
   112   55   56 2    
   113   55   57 1    
   114   57   58 1    
   115   57   59 1    
   116   57  180 1    
   117   58  181 1    
   118   58  182 1    
   119   58  183 1    
   120   59   60 am   BACKBONE|DICT|INTERRES
   121   59  184 1    
   122   60   61 2    
   123   60   62 1    
   124   62   63 1    
   125   62   64 1    
   126   62  185 1    
   127   63  186 1    
   128   63  187 1    
   129   63  188 1    
   130   64   65 am   BACKBONE|DICT|INTERRES
   131   64  189 1    
   132   65   66 2    
   133   67   68 2    
   134   67   69 am   BACKBONE|DICT|INTERRES
   135   69   70 1    
   136   69  190 1    
   137   70   71 1    
   138   70   72 1    
   139   70  191 1    
   140   71  192 1    
   141   71  193 1    
   142   71  194 1    
   143   72   73 2    
   144   72   74 am   BACKBONE|DICT|INTERRES
   145   74   75 1    
   146   74  195 1    
   147   75   76 1    
   148   75   77 1    
   149   75  196 1    
   150   76  197 1    
   151   76  198 1    
   152   76  199 1    
   153   77   78 2    
   154   77   79 am   BACKBONE|DICT|INTERRES
   155   79   80 1    
   156   79  200 1    
   157   80   81 1    
   158   80   82 1    
   159   80  201 1    
   160   81  202 1    
   161   81  203 1    
   162   81  204 1    
   163   82   83 2    
   164   82   84 am   BACKBONE|DICT|INTERRES
   165   84   85 1    
   166   84  205 1    
   167   85   86 1    
   168   85   87 1    
   169   85  206 1    
   170   86  207 1    
   171   86  208 1    
   172   86  209 1    
   173   87   88 2    
   174   87   89 am   BACKBONE|DICT|INTERRES
   175   89   90 1    
   176   89  210 1    
   177   90   91 1    
   178   90   92 1    
   179   90  211 1    
   180   91  212 1    
   181   91  213 1    
   182   91  214 1    
   183   92   93 2    
   184   92   94 am   BACKBONE|DICT|INTERRES
   185   94   95 1    
   186   94  215 1    
   187   95   96 1    
   188   95   97 1    
   189   95  216 1    
   190   96  217 1    
   191   96  218 1    
   192   96  219 1    
   193   97   98 2    
   194   97   99 am   BACKBONE|DICT|INTERRES
   195   99  100 1    
   196   99  220 1    
   197  100  101 1    
   198  100  102 1    
   199  100  221 1    
   200  101  222 1    
   201  101  223 1    
   202  101  224 1    
   203  102  103 2    
   204  102  104 am   BACKBONE|DICT|INTERRES
   205  104  105 1    
   206  104  225 1    
   207  105  106 1    
   208  105  107 1    
   209  105  226 1    
   210  106  227 1    
   211  106  228 1    
   212  106  229 1    
   213  107  108 2    
   214  107  109 am   BACKBONE|DICT|INTERRES
   215  109  110 1    
   216  109  230 1    
   217  110  111 1    
   218  110  112 1    
   219  110  231 1    
   220  111  232 1    
   221  111  233 1    
   222  111  234 1    
   223  112  113 2    
   224  112  114 am   BACKBONE|DICT|INTERRES
   225  114  115 1    
   226  114  235 1    
   227  115  116 1    
   228  115  117 1    
   229  115  236 1    
   230  116  237 1    
   231  116  238 1    
   232  116  239 1    
   233  117  118 2    
   234  117  119 am   BACKBONE|DICT|INTERRES
   235  119  120 1    
   236  119  240 1    
   237  120  121 1    
   238  120  124 1    
   239  120  241 1    
   240  121  122 am   BACKBONE|DICT|INTERRES
   241  121  123 2    
   242  122  242 1    
   243  122  243 1    
   244  124  125 1    
   245  124  244 1    
   246  124  245 1    
   247  125  126 1    
   248  126  246 1    
   249  126  247 1    
@<TRIPOS>SUBSTRUCTURE
     1 UNK         1 GROUP             0       ****    0 ROOT    
