@<TRIPOS>MOLECULE
3R540
247   249    1
SMALL
USER_CHARGES


@<TRIPOS>ATOM
      1 CA          7.3637  -15.2159  -48.4495 C.3       0 UNK        -0.1800 
      2 C           6.3345  -14.3773  -47.7057 C.2       0 UNK         0.5000 
      3 O           6.4673  -14.1740  -46.4986 O.2       0 UNK        -0.5000 
      4 N           5.3187  -13.8772  -48.4220 N.am      1 UNK        -0.5000 
      5 CA          4.2136  -13.0646  -47.9000 C.3       1 UNK         0.1400 
      6 C6          2.9590  -13.1839  -48.8087 C.3       23 UNK        -0.0398 
      7 S7          1.4010  -12.8110  -47.9320 S.3       23 UNK        -0.2404 
      8 C8          1.0811  -14.3777  -47.0602 C.3       23 UNK        -0.0205 
      9 C9          0.3517  -15.3873  -47.9313 C.ar      23 UNK        -0.0193 
     10 C10        -1.0457  -15.4094  -47.9573 C.ar      23 UNK        -0.1150 
     11 C11        -1.7248  -16.3296  -48.7609 C.ar      23 UNK        -0.0193 
     12 C12        -0.9933  -17.2149  -49.5572 C.ar      23 UNK        -0.1150 
     13 C13         0.4043  -17.2262  -49.5175 C.ar      23 UNK        -0.0193 
     14 C14         1.0695  -16.3116  -48.6960 C.ar      23 UNK        -0.1150 
     15 C15         1.2060  -18.2112  -50.3638 C.3       23 UNK        -0.0205 
     16 S16         0.5708  -19.9208  -50.3024 S.3       23 UNK        -0.2404 
     17 C17         0.5790  -20.2328  -48.5058 C.3       23 UNK        -0.0398 
     18 CA          0.3834  -21.7233  -48.1448 C.3       11 UNK         0.1400 
     19 N           0.7474  -21.9814  -46.7510 N.am      11 UNK        -0.5000 
     20 C           0.8051  -23.1896  -46.1744 C.2       10 UNK         0.5000 
     21 O           0.6139  -24.2484  -46.7715 O.2       10 UNK        -0.5000 
     22 CA          1.0682  -23.2106  -44.6595 C.3       10 UNK         0.1400 
     23 CB          2.5626  -23.0269  -44.3546 C.3       10 UNK        -0.1800 
     24 N           0.2915  -22.1867  -43.9600 N.am      10 UNK        -0.5000 
     25 C          -1.0432  -22.2061  -43.8338 C.2       9 UNK         0.5000 
     26 O          -1.7582  -23.1136  -44.2573 O.2       9 UNK        -0.5000 
     27 CA         -1.6893  -20.9843  -43.1564 C.3       9 UNK         0.1400 
     28 CB         -1.6320  -21.1162  -41.6274 C.3       9 UNK        -0.1800 
     29 N          -1.0668  -19.7225  -43.5600 N.am      9 UNK        -0.5000 
     30 C          -1.1114  -19.2223  -44.8032 C.2       8 UNK         0.5000 
     31 O          -1.6902  -19.7683  -45.7391 O.2       8 UNK        -0.5000 
     32 CA         -0.3315  -17.9221  -45.0513 C.3       8 UNK         0.1400 
     33 CB         -1.1660  -16.7073  -44.6261 C.3       8 UNK        -0.1800 
     34 N           0.9604  -17.8979  -44.3622 N.am      8 UNK        -0.5000 
     35 C           1.9768  -18.7345  -44.6220 C.2       7 UNK         0.5000 
     36 O           1.8953  -19.6622  -45.4286 O.2       7 UNK        -0.5000 
     37 CA          3.2849  -18.5266  -43.8271 C.3       7 UNK         0.1400 
     38 CB          4.5374  -18.9276  -44.6344 C.3       7 UNK        -0.1800 
     39 N           3.4209  -17.1765  -43.2654 N.am      7 UNK        -0.5000 
     40 C           3.5329  -16.0224  -43.9390 C.2       6 UNK         0.5000 
     41 O           3.6087  -15.9410  -45.1643 O.2       6 UNK        -0.5000 
     42 CA          3.5083  -14.7417  -43.0834 C.3       6 UNK         0.1400 
     43 CB          4.5197  -13.6992  -43.5897 C.3       6 UNK        -0.1800 
     44 N           2.1713  -14.1401  -43.0167 N.am      6 UNK        -0.5000 
     45 C           1.1061  -14.6907  -42.4107 C.2       5 UNK         0.5000 
     46 O           1.1094  -15.8343  -41.9530 O.2       5 UNK        -0.5000 
     47 CA         -0.1726  -13.8431  -42.2478 C.3       5 UNK         0.1400 
     48 CB         -0.4045  -13.5194  -40.7628 C.3       5 UNK        -0.1800 
     49 N          -0.1274  -12.5832  -42.9877 N.am      5 UNK        -0.5000 
     50 C          -0.7602  -12.3477  -44.1437 C.2       4 UNK         0.5000 
     51 O          -1.4965  -13.1638  -44.6978 O.2       4 UNK        -0.5000 
     52 CA         -0.5422  -10.9681  -44.8027 C.3       4 UNK         0.1400 
     53 CB         -1.7792  -10.0794  -44.5992 C.3       4 UNK        -0.1800 
     54 N           0.6470  -10.2272  -44.3590 N.am      4 UNK        -0.5000 
     55 C           1.9086  -10.6603  -44.4631 C.2       3 UNK         0.5000 
     56 O           2.2108  -11.8029  -44.8162 O.2       3 UNK        -0.5000 
     57 CA          3.0202   -9.6752  -44.0786 C.3       3 UNK         0.1400 
     58 CB          3.2485   -9.6623  -42.5588 C.3       3 UNK        -0.1800 
     59 N           4.2258  -10.1373  -44.7476 N.am      3 UNK        -0.5000 
     60 C           5.1347   -9.3899  -45.3777 C.2       2 UNK         0.5000 
     61 O           5.1784   -8.1605  -45.3189 O.2       2 UNK        -0.5000 
     62 CA          6.1516  -10.1578  -46.2465 C.3       2 UNK         0.1400 
     63 CB          7.4504  -10.4055  -45.4648 C.3       2 UNK        -0.1800 
     64 N           5.6327  -11.4448  -46.7221 N.am      2 UNK        -0.5000 
     65 C           4.6602  -11.6064  -47.6302 C.2       1 UNK         0.5000 
     66 O           4.1502  -10.6677  -48.2441 O.2       1 UNK        -0.5000 
     67 C          -1.0450  -22.2193  -48.4586 C.2       11 UNK         0.5000 
     68 O          -1.2309  -22.9509  -49.4314 O.2       11 UNK        -0.5000 
     69 N          -2.0116  -21.8682  -47.5971 N.am      12 UNK        -0.5000 
     70 CA         -3.4022  -22.3111  -47.6800 C.3       12 UNK         0.1400 
     71 CB         -4.2404  -21.6278  -46.5901 C.3       12 UNK        -0.1800 
     72 C          -3.5469  -23.8383  -47.5924 C.2       12 UNK         0.5000 
     73 O          -4.2725  -24.4157  -48.4003 O.2       12 UNK        -0.5000 
     74 N          -2.8311  -24.4660  -46.6476 N.am      13 UNK        -0.5000 
     75 CA         -2.7876  -25.9175  -46.4677 C.3       13 UNK         0.1400 
     76 CB         -2.0189  -26.2624  -45.1836 C.3       13 UNK        -0.1800 
     77 C          -2.1882  -26.6516  -47.6800 C.2       13 UNK         0.5000 
     78 O          -2.7666  -27.6407  -48.1312 O.2       13 UNK        -0.5000 
     79 N          -1.0737  -26.1334  -48.2169 N.am      14 UNK        -0.5000 
     80 CA         -0.4163  -26.6427  -49.4243 C.3       14 UNK         0.1400 
     81 CB          0.9189  -25.9113  -49.6292 C.3       14 UNK        -0.1800 
     82 C          -1.2989  -26.5295  -50.6824 C.2       14 UNK         0.5000 
     83 O          -1.2804  -27.4282  -51.5239 O.2       14 UNK        -0.5000 
     84 N          -2.0856  -25.4497  -50.7628 N.am      15 UNK        -0.5000 
     85 CA         -3.0793  -25.2013  -51.8058 C.3       15 UNK         0.1400 
     86 CB         -3.2777  -23.6828  -51.9374 C.3       15 UNK        -0.1800 
     87 C          -4.4301  -25.9044  -51.5534 C.2       15 UNK         0.5000 
     88 O          -5.3689  -25.6765  -52.3180 O.2       15 UNK        -0.5000 
     89 N          -4.5475  -26.6958  -50.4752 N.am      16 UNK        -0.5000 
     90 CA         -5.7525  -27.4139  -50.0330 C.3       16 UNK         0.1400 
     91 CB         -6.0484  -28.5868  -50.9898 C.3       16 UNK        -0.1800 
     92 C          -6.9818  -26.4973  -49.8243 C.2       16 UNK         0.5000 
     93 O          -8.1197  -26.9400  -49.9892 O.2       16 UNK        -0.5000 
     94 N          -6.7146  -25.2258  -49.4935 N.am      17 UNK        -0.5000 
     95 CA         -7.6450  -24.1071  -49.3445 C.3       17 UNK         0.1400 
     96 CB         -8.5257  -24.3107  -48.0946 C.3       17 UNK        -0.1800 
     97 C          -8.4703  -23.7837  -50.6132 C.2       17 UNK         0.5000 
     98 O          -9.5531  -23.2080  -50.4836 O.2       17 UNK        -0.5000 
     99 N          -7.9793  -24.1506  -51.8107 N.am      18 UNK        -0.5000 
    100 CA        -8.7521  -24.0216  -53.0519 C.3       18 UNK         0.1400 
    101 CB        -9.7090  -25.2215  -53.1869 C.3       18 UNK        -0.1800 
    102 C         -7.9211  -23.8648  -54.3372 C.2       18 UNK         0.5000 
    103 O         -8.4171  -23.2436  -55.2786 O.2       18 UNK        -0.5000 
    104 N         -6.7152  -24.4472  -54.4035 N.am      19 UNK        -0.5000 
    105 CA        -5.9379  -24.5561  -55.6440 C.3       19 UNK         0.1400 
    106 CB        -4.8155  -25.5892  -55.4619 C.3       19 UNK        -0.1800 
    107 C         -5.3555  -23.2230  -56.1463 C.2       19 UNK         0.5000 
    108 O         -5.2526  -23.0303  -57.3589 O.2       19 UNK        -0.5000 
    109 N         -4.9841  -22.3345  -55.2193 N.am      20 UNK        -0.5000 
    110 CA        -4.3922  -21.0293  -55.4898 C.3       20 UNK         0.1400 
    111 CB        -2.9287  -21.1887  -55.9456 C.3       20 UNK        -0.1800 
    112 C         -4.4608  -20.1789  -54.2173 C.2       20 UNK         0.5000 
    113 O         -4.4377  -20.7327  -53.1144 O.2       20 UNK        -0.5000 
    114 N         -4.5078  -18.8518  -54.3989 N.am      21 UNK        -0.5000 
    115 CA        -4.4982  -17.8203  -53.3568 C.3       21 UNK         0.1400 
    116 CB        -3.0735  -17.6919  -52.7686 C.3       21 UNK        -0.1800 
    117 C         -5.6044  -18.0488  -52.3018 C.2       21 UNK         0.5000 
    118 O         -6.7827  -18.0790  -52.6619 O.2       21 UNK        -0.5000 
    119 N         -5.2054  -18.2214  -51.0386 N.am      22 UNK        -0.5000 
    120 CA        -6.0611  -18.5900  -49.9026 C.3       22 UNK         0.1400 
    121 C         -6.1793  -20.1280  -49.6750 C.2       22 UNK         0.5000 
    122 N         -5.6142  -20.9829  -50.5208 N.am      22 UNK        -0.7600 
    123 O         -6.8183  -20.5613  -48.7210 O.2       22 UNK        -0.5000 
    124 C124       -5.6541  -17.8160  -48.6176 C.3       23 UNK        -0.0398 
    125 S125       -3.8849  -17.9626  -48.1782 S.3       23 UNK        -0.2404 
    126 C126       -3.2451  -16.3666  -48.7824 C.3       23 UNK        -0.0205 
    127 H127        7.1238  -15.3081  -49.5090 H         1 UNK         0.0600 
    128 H128        7.4085  -16.2178  -48.0224 H         1 UNK         0.0600 
    129 H129        8.3509  -14.7622  -48.3619 H         1 UNK         0.0600 
    130 H130        5.2973  -14.0481  -49.4173 H         1 UNK         0.3000 
    131 H131        3.9478  -13.4857  -46.9289 H         1 UNK         0.0600 
    132 H132        2.8791  -14.1931  -49.2104 H         1 UNK         0.0800 
    133 H133        3.0387  -12.5359  -49.6830 H         1 UNK         0.0800 
    134 H134        2.0178  -14.7995  -46.7040 H         1 UNK         0.0800 
    135 H135        0.4943  -14.1655  -46.1680 H         1 UNK         0.0800 
    136 H136       -1.6012  -14.7093  -47.3484 H         1 UNK         0.1150 
    137 H137       -1.5163  -17.9195  -50.1871 H         1 UNK         0.1150 
    138 H138        2.1493  -16.3145  -48.6553 H         1 UNK         0.1150 
    139 H139        1.1951  -17.8699  -51.3996 H         1 UNK         0.0800 
    140 H140        2.2518  -18.2214  -50.0528 H         1 UNK         0.0800 
    141 H141       -0.1815  -19.6133  -48.0280 H         1 UNK         0.0800 
    142 H142        1.5382  -19.8845  -48.1199 H         1 UNK         0.0800 
    143 H143        1.0726  -22.3100  -48.7561 H         1 UNK         0.0600 
    144 H144        0.9663  -21.1650  -46.1867 H         1 UNK         0.3000 
    145 H145        0.7623  -24.1880  -44.2803 H         1 UNK         0.0600 
    146 H146        2.7582  -23.0969  -43.2845 H         1 UNK         0.0600 
    147 H147        3.1562  -23.7999  -44.8443 H         1 UNK         0.0600 
    148 H148        2.9333  -22.0621  -44.7011 H         1 UNK         0.0600 
    149 H149        0.7977  -21.3838  -43.6193 H         1 UNK         0.3000 
    150 H150       -2.7387  -20.9541  -43.4571 H         1 UNK         0.0600 
    151 H151       -2.1046  -22.0428  -41.2985 H         1 UNK         0.0600 
    152 H152       -2.1577  -20.2944  -41.1410 H         1 UNK         0.0600 
    153 H153       -0.6051  -21.1229  -41.2598 H         1 UNK         0.0600 
    154 H154       -0.5616  -19.2114  -42.8513 H         1 UNK         0.3000 
    155 H155       -0.1403  -17.8465  -46.1239 H         1 UNK         0.0600 
    156 H156       -0.6404  -15.7778  -44.8383 H         1 UNK         0.0600 
    157 H157       -1.3980  -16.7280  -43.5609 H         1 UNK         0.0600 
    158 H158       -2.1110  -16.6749  -45.1703 H         1 UNK         0.0600 
    159 H159        1.0937  -17.1842  -43.6560 H         1 UNK         0.3000 
    160 H160        3.2205  -19.2007  -42.9721 H         1 UNK         0.0600 
    161 H161        4.6225  -18.3605  -45.5617 H         1 UNK         0.0600 
    162 H162        4.5080  -19.9841  -44.9032 H         1 UNK         0.0600 
    163 H163        5.4477  -18.7668  -44.0571 H         1 UNK         0.0600 
    164 H164        3.3059  -17.1183  -42.2623 H         1 UNK         0.3000 
    165 H165        3.8026  -15.0055  -42.0654 H         1 UNK         0.0600 
    166 H166        4.2948  -13.3794  -44.6059 H         1 UNK         0.0600 
    167 H167        4.5328  -12.8154  -42.9524 H         1 UNK         0.0600 
    168 H168        5.5299  -14.1102  -43.5984 H         1 UNK         0.0600 
    169 H169        2.0644  -13.2476  -43.4876 H         1 UNK         0.3000 
    170 H170       -1.0105  -14.4532  -42.5894 H         1 UNK         0.0600 
    171 H171       -0.4825  -14.4311  -40.1688 H         1 UNK         0.0600 
    172 H172        0.4104  -12.9252  -40.3475 H         1 UNK         0.0600 
    173 H173       -1.3313  -12.9629  -40.6218 H         1 UNK         0.0600 
    174 H174        0.4498  -11.8501  -42.6031 H         1 UNK         0.3000 
    175 H175       -0.4275  -11.1489  -45.8735 H         1 UNK         0.0600 
    176 H176       -1.9270   -9.8330  -43.5470 H         1 UNK         0.0600 
    177 H177       -1.6917   -9.1458  -45.1553 H         1 UNK         0.0600 
    178 H178       -2.6836  -10.5789  -44.9495 H         1 UNK         0.0600 
    179 H179        0.4832   -9.2864  -44.0301 H         1 UNK         0.3000 
    180 H180        2.7478   -8.6772  -44.4284 H         1 UNK         0.0600 
    181 H181        3.4845  -10.6563  -42.1770 H         1 UNK         0.0600 
    182 H182        2.3616   -9.3087  -42.0321 H         1 UNK         0.0600 
    183 H183        4.0711   -8.9986  -42.2918 H         1 UNK         0.0600 
    184 H184        4.2273  -11.1340  -44.9221 H         1 UNK         0.3000 
    185 H185        6.3830   -9.5381  -47.1152 H         1 UNK         0.0600 
    186 H186        8.1998  -10.8920  -46.0895 H         1 UNK         0.0600 
    187 H187        7.8803   -9.4666  -45.1131 H         1 UNK         0.0600 
    188 H188        7.2797  -11.0371  -44.5919 H         1 UNK         0.0600 
    189 H189        6.0394  -12.2857  -46.3212 H         1 UNK         0.3000 
    190 H190       -1.7926  -21.2209  -46.8423 H         1 UNK         0.3000 
    191 H191       -3.7852  -21.9960  -48.6515 H         1 UNK         0.0600 
    192 H192       -3.8803  -21.8708  -45.5904 H         1 UNK         0.0600 
    193 H193       -5.2847  -21.9372  -46.6504 H         1 UNK         0.0600 
    194 H194       -4.2193  -20.5441  -46.6983 H         1 UNK         0.0600 
    195 H195       -2.2897  -23.9115  -45.9912 H         1 UNK         0.3000 
    196 H196       -3.8159  -26.2649  -46.3482 H         1 UNK         0.0600 
    197 H197       -1.9800  -27.3413  -45.0285 H         1 UNK         0.0600 
    198 H198       -2.5000  -25.8257  -44.3082 H         1 UNK         0.0600 
    199 H199       -0.9922  -25.8974  -45.2172 H         1 UNK         0.0600 
    200 H200       -0.6366  -25.3333  -47.7665 H         1 UNK         0.3000 
    201 H201       -0.2030  -27.7016  -49.2648 H         1 UNK         0.0600 
    202 H202        1.5829  -26.0582  -48.7773 H         1 UNK         0.0600 
    203 H203        0.7741  -24.8382  -49.7582 H         1 UNK         0.0600 
    204 H204        1.4372  -26.2827  -50.5141 H         1 UNK         0.0600 
    205 H205       -1.9901  -24.7277  -50.0548 H         1 UNK         0.3000 
    206 H206       -2.6943  -25.5758  -52.7559 H         1 UNK         0.0600 
    207 H207       -2.3398  -23.1794  -52.1726 H         1 UNK         0.0600 
    208 H208       -3.9794  -23.4428  -52.7354 H         1 UNK         0.0600 
    209 H209       -3.6653  -23.2477  -51.0159 H         1 UNK         0.0600 
    210 H210       -3.7434  -26.7925  -49.8670 H         1 UNK         0.3000 
    211 H211       -5.5162  -27.8322  -49.0538 H         1 UNK         0.0600 
    212 H212       -6.3497  -28.2355  -51.9773 H         1 UNK         0.0600 
    213 H213       -6.8531  -29.2146  -50.6055 H         1 UNK         0.0600 
    214 H214       -5.1729  -29.2243  -51.1133 H         1 UNK         0.0600 
    215 H215       -5.7394  -24.9930  -49.3112 H         1 UNK         0.3000 
    216 H216       -7.0230  -23.2319  -49.1599 H         1 UNK         0.0600 
    217 H217       -7.9171  -24.5206  -47.2149 H         1 UNK         0.0600 
    218 H218       -9.2263  -25.1360  -48.2243 H         1 UNK         0.0600 
    219 H219       -9.1088  -23.4156  -47.8750 H         1 UNK         0.0600 
    220 H220       -7.0882  -24.6319  -51.8603 H         1 UNK         0.3000 
    221 H221       -9.3570  -23.1140  -52.9933 H         1 UNK         0.0600 
    222 H222       -9.1634  -26.1659  -53.1923 H         1 UNK         0.0600 
    223 H223      -10.4242  -25.2547  -52.3649 H         1 UNK         0.0600 
    224 H224      -10.2846  -25.1669  -54.1120 H         1 UNK         0.0600 
    225 H225       -6.3370  -24.9462  -53.6007 H         1 UNK         0.3000 
    226 H226       -6.6075  -24.9317  -56.4209 H         1 UNK         0.0600 
    227 H227       -5.2085  -26.5482  -55.1239 H         1 UNK         0.0600 
    228 H228       -4.2919  -25.7648  -56.4024 H         1 UNK         0.0600 
    229 H229       -4.0758  -25.2526  -54.7362 H         1 UNK         0.0600 
    230 H230       -5.1286  -22.5368  -54.2385 H         1 UNK         0.3000 
    231 H231       -4.9705  -20.5342  -56.2729 H         1 UNK         0.0600 
    232 H232       -2.4611  -20.2173  -56.1111 H         1 UNK         0.0600 
    233 H233       -2.8570  -21.7423  -56.8816 H         1 UNK         0.0600 
    234 H234       -2.3342  -21.7163  -55.1985 H         1 UNK         0.0600 
    235 H235       -4.5529  -18.5025  -55.3458 H         1 UNK         0.3000 
    236 H236       -4.7386  -16.8768  -53.8488 H         1 UNK         0.0600 
    237 H237       -3.0095  -16.8663  -52.0597 H         1 UNK         0.0600 
    238 H238       -2.7530  -18.6026  -52.2607 H         1 UNK         0.0600 
    239 H239       -2.3473  -17.4869  -53.5552 H         1 UNK         0.0600 
    240 H240       -4.2156  -18.2244  -50.8423 H         1 UNK         0.3000 
    241 H241       -7.0806  -18.2764  -50.1336 H         1 UNK         0.0600 
    242 H242       -5.1297  -20.6692  -51.3582 H         1 UNK         0.3800 
    243 H243       -5.7036  -21.9672  -50.3509 H         1 UNK         0.3800 
    244 H244       -5.8981  -16.7605  -48.7439 H         1 UNK         0.0800 
    245 H245       -6.2484  -18.1436  -47.7631 H         1 UNK         0.0800 
    246 H246       -3.6601  -15.5653  -48.1690 H         1 UNK         0.0800 
    247 H247       -3.5899  -16.1866  -49.8005 H         1 UNK         0.0800 
@<TRIPOS>BOND
     1    1    2 1    
     2    1  127 1    
     3    1  128 1    
     4    1  129 1    
     5    2    3 2    
     6    2    4 am   BACKBONE|DICT|INTERRES
     7    4    5 1    
     8    4  130 1    
     9    5    6 1    
    10    5   65 1    
    11    5  131 1    
    12    6    7 1    
    13    6  132 1    
    14    6  133 1    
    15    7    8 1    
    16    8    9 1    
    17    8  134 1    
    18    8  135 1    
    19    9   10 ar   
    20    9   14 ar   
    21   10   11 ar   
    22   10  136 1    
    23   11   12 ar   
    24   11  126 1    
    25   12   13 ar   
    26   12  137 1    
    27   13   14 ar   
    28   13   15 1    
    29   14  138 1    
    30   15   16 1    
    31   15  139 1    
    32   15  140 1    
    33   16   17 1    
    34   17   18 1    
    35   17  141 1    
    36   17  142 1    
    37   18   19 1    
    38   18   67 1    
    39   18  143 1    
    40   19   20 am   BACKBONE|DICT|INTERRES
    41   19  144 1    
    42   20   21 2    
    43   20   22 1    
    44   22   23 1    
    45   22   24 1    
    46   22  145 1    
    47   23  146 1    
    48   23  147 1    
    49   23  148 1    
    50   24   25 am   BACKBONE|DICT|INTERRES
    51   24  149 1    
    52   25   26 2    
    53   25   27 1    
    54   27   28 1    
    55   27   29 1    
    56   27  150 1    
    57   28  151 1    
    58   28  152 1    
    59   28  153 1    
    60   29   30 am   BACKBONE|DICT|INTERRES
    61   29  154 1    
    62   30   31 2    
    63   30   32 1    
    64   32   33 1    
    65   32   34 1    
    66   32  155 1    
    67   33  156 1    
    68   33  157 1    
    69   33  158 1    
    70   34   35 am   BACKBONE|DICT|INTERRES
    71   34  159 1    
    72   35   36 2    
    73   35   37 1    
    74   37   38 1    
    75   37   39 1    
    76   37  160 1    
    77   38  161 1    
    78   38  162 1    
    79   38  163 1    
    80   39   40 am   BACKBONE|DICT|INTERRES
    81   39  164 1    
    82   40   41 2    
    83   40   42 1    
    84   42   43 1    
    85   42   44 1    
    86   42  165 1    
    87   43  166 1    
    88   43  167 1    
    89   43  168 1    
    90   44   45 am   BACKBONE|DICT|INTERRES
    91   44  169 1    
    92   45   46 2    
    93   45   47 1    
    94   47   48 1    
    95   47   49 1    
    96   47  170 1    
    97   48  171 1    
    98   48  172 1    
    99   48  173 1    
   100   49   50 am   BACKBONE|DICT|INTERRES
   101   49  174 1    
   102   50   51 2    
   103   50   52 1    
   104   52   53 1    
   105   52   54 1    
   106   52  175 1    
   107   53  176 1    
   108   53  177 1    
   109   53  178 1    
   110   54   55 am   BACKBONE|DICT|INTERRES
   111   54  179 1    
   112   55   56 2    
   113   55   57 1    
   114   57   58 1    
   115   57   59 1    
   116   57  180 1    
   117   58  181 1    
   118   58  182 1    
   119   58  183 1    
   120   59   60 am   BACKBONE|DICT|INTERRES
   121   59  184 1    
   122   60   61 2    
   123   60   62 1    
   124   62   63 1    
   125   62   64 1    
   126   62  185 1    
   127   63  186 1    
   128   63  187 1    
   129   63  188 1    
   130   64   65 am   BACKBONE|DICT|INTERRES
   131   64  189 1    
   132   65   66 2    
   133   67   68 2    
   134   67   69 am   BACKBONE|DICT|INTERRES
   135   69   70 1    
   136   69  190 1    
   137   70   71 1    
   138   70   72 1    
   139   70  191 1    
   140   71  192 1    
   141   71  193 1    
   142   71  194 1    
   143   72   73 2    
   144   72   74 am   BACKBONE|DICT|INTERRES
   145   74   75 1    
   146   74  195 1    
   147   75   76 1    
   148   75   77 1    
   149   75  196 1    
   150   76  197 1    
   151   76  198 1    
   152   76  199 1    
   153   77   78 2    
   154   77   79 am   BACKBONE|DICT|INTERRES
   155   79   80 1    
   156   79  200 1    
   157   80   81 1    
   158   80   82 1    
   159   80  201 1    
   160   81  202 1    
   161   81  203 1    
   162   81  204 1    
   163   82   83 2    
   164   82   84 am   BACKBONE|DICT|INTERRES
   165   84   85 1    
   166   84  205 1    
   167   85   86 1    
   168   85   87 1    
   169   85  206 1    
   170   86  207 1    
   171   86  208 1    
   172   86  209 1    
   173   87   88 2    
   174   87   89 am   BACKBONE|DICT|INTERRES
   175   89   90 1    
   176   89  210 1    
   177   90   91 1    
   178   90   92 1    
   179   90  211 1    
   180   91  212 1    
   181   91  213 1    
   182   91  214 1    
   183   92   93 2    
   184   92   94 am   BACKBONE|DICT|INTERRES
   185   94   95 1    
   186   94  215 1    
   187   95   96 1    
   188   95   97 1    
   189   95  216 1    
   190   96  217 1    
   191   96  218 1    
   192   96  219 1    
   193   97   98 2    
   194   97   99 am   BACKBONE|DICT|INTERRES
   195   99  100 1    
   196   99  220 1    
   197  100  101 1    
   198  100  102 1    
   199  100  221 1    
   200  101  222 1    
   201  101  223 1    
   202  101  224 1    
   203  102  103 2    
   204  102  104 am   BACKBONE|DICT|INTERRES
   205  104  105 1    
   206  104  225 1    
   207  105  106 1    
   208  105  107 1    
   209  105  226 1    
   210  106  227 1    
   211  106  228 1    
   212  106  229 1    
   213  107  108 2    
   214  107  109 am   BACKBONE|DICT|INTERRES
   215  109  110 1    
   216  109  230 1    
   217  110  111 1    
   218  110  112 1    
   219  110  231 1    
   220  111  232 1    
   221  111  233 1    
   222  111  234 1    
   223  112  113 2    
   224  112  114 am   BACKBONE|DICT|INTERRES
   225  114  115 1    
   226  114  235 1    
   227  115  116 1    
   228  115  117 1    
   229  115  236 1    
   230  116  237 1    
   231  116  238 1    
   232  116  239 1    
   233  117  118 2    
   234  117  119 am   BACKBONE|DICT|INTERRES
   235  119  120 1    
   236  119  240 1    
   237  120  121 1    
   238  120  124 1    
   239  120  241 1    
   240  121  122 am   BACKBONE|DICT|INTERRES
   241  121  123 2    
   242  122  242 1    
   243  122  243 1    
   244  124  125 1    
   245  124  244 1    
   246  124  245 1    
   247  125  126 1    
   248  126  246 1    
   249  126  247 1    
@<TRIPOS>SUBSTRUCTURE
     1 UNK         1 GROUP             0       ****    0 ROOT    
