@<TRIPOS>MOLECULE
3R540
247   249    1
SMALL
USER_CHARGES


@<TRIPOS>ATOM
      1 CA         -0.5723  -10.3775  -43.1060 C.3       0 UNK        -0.1800 
      2 C          -0.1861  -10.5001  -44.5732 C.2       0 UNK         0.5000 
      3 O           0.0610   -9.4885  -45.2296 O.2       0 UNK        -0.5000 
      4 N          -0.1371  -11.7363  -45.0867 N.am      1 UNK        -0.5000 
      5 CA          0.2332  -12.0785  -46.4688 C.3       1 UNK         0.1400 
      6 C6         -0.0219  -13.5717  -46.7886 C.3       23 UNK        -0.0398 
      7 S7         -1.7155  -14.1081  -46.3806 S.3       23 UNK        -0.2404 
      8 C8         -2.5137  -14.0761  -48.0248 C.3       23 UNK        -0.0205 
      9 C9         -2.1746  -15.2301  -48.9743 C.ar      23 UNK        -0.0193 
     10 C10        -2.6533  -15.1629  -50.2873 C.ar      23 UNK        -0.1150 
     11 C11        -2.4020  -16.1944  -51.1963 C.ar      23 UNK        -0.0193 
     12 C12        -1.6677  -17.3089  -50.7864 C.ar      23 UNK        -0.1150 
     13 C13        -1.1909  -17.4013  -49.4783 C.ar      23 UNK        -0.0193 
     14 C14        -1.4368  -16.3567  -48.5830 C.ar      23 UNK        -0.1150 
     15 C15        -0.4219  -18.6375  -49.0407 C.3       23 UNK        -0.0205 
     16 S16        -1.5584  -19.9901  -48.6078 S.3       23 UNK        -0.2404 
     17 C17        -0.3929  -21.3830  -48.4448 C.3       23 UNK        -0.0398 
     18 CA         -0.7849  -22.4672  -47.4106 C.3       11 UNK         0.1400 
     19 N          -0.5761  -22.0582  -46.0168 N.am      11 UNK        -0.5000 
     20 C          -0.4995  -22.9260  -44.9954 C.2       10 UNK         0.5000 
     21 O          -0.7521  -24.1264  -45.1076 O.2       10 UNK        -0.5000 
     22 CA         -0.0793  -22.3730  -43.6273 C.3       10 UNK         0.1400 
     23 CB          1.3903  -21.9223  -43.6407 C.3       10 UNK        -0.1800 
     24 N          -0.9327  -21.2573  -43.2376 N.am      10 UNK        -0.5000 
     25 C          -2.0396  -21.3727  -42.4915 C.2       9 UNK         0.5000 
     26 O          -2.4298  -22.4344  -42.0047 O.2       9 UNK        -0.5000 
     27 CA         -2.8573  -20.0885  -42.2459 C.3       9 UNK         0.1400 
     28 CB         -2.4949  -19.4716  -40.8866 C.3       9 UNK        -0.1800 
     29 N          -2.6787  -19.0766  -43.2871 N.am      9 UNK        -0.5000 
     30 C          -3.0752  -19.2189  -44.5602 C.2       8 UNK         0.5000 
     31 O          -3.6520  -20.2157  -44.9908 O.2       8 UNK        -0.5000 
     32 CA         -2.7106  -18.0807  -45.5275 C.3       8 UNK         0.1400 
     33 CB         -3.8087  -17.0076  -45.5251 C.3       8 UNK        -0.1800 
     34 N          -1.4136  -17.4650  -45.2344 N.am      8 UNK        -0.5000 
     35 C          -0.2420  -18.1141  -45.1585 C.2       7 UNK         0.5000 
     36 O          -0.1135  -19.3149  -45.3980 O.2       7 UNK        -0.5000 
     37 CA          0.9944  -17.3138  -44.7048 C.3       7 UNK         0.1400 
     38 CB          1.9000  -17.0152  -45.9093 C.3       7 UNK        -0.1800 
     39 N           0.7220  -16.0615  -43.9895 N.am      7 UNK        -0.5000 
     40 C          -0.0256  -15.9131  -42.8869 C.2       6 UNK         0.5000 
     41 O          -0.6680  -16.8245  -42.3610 O.2       6 UNK        -0.5000 
     42 CA         -0.0086  -14.5075  -42.2563 C.3       6 UNK         0.1400 
     43 CB         -1.2265  -14.2550  -41.3510 C.3       6 UNK        -0.1800 
     44 N           1.2131  -14.3287  -41.4759 N.am      6 UNK        -0.5000 
     45 C           2.4279  -14.0932  -41.9865 C.2       5 UNK         0.5000 
     46 O           2.6379  -13.8587  -43.1807 O.2       5 UNK        -0.5000 
     47 CA          3.5971  -14.2202  -41.0000 C.3       5 UNK         0.1400 
     48 CB          3.8757  -15.7145  -40.7252 C.3       5 UNK        -0.1800 
     49 N           4.7883  -13.5708  -41.5426 N.am      5 UNK        -0.5000 
     50 C           5.9298  -13.3648  -40.8713 C.2       4 UNK         0.5000 
     51 O           6.0843  -13.6425  -39.6811 O.2       4 UNK        -0.5000 
     52 CA          7.1046  -12.7518  -41.6547 C.3       4 UNK         0.1400 
     53 CB          7.8006  -13.8220  -42.5105 C.3       4 UNK        -0.1800 
     54 N           6.7014  -11.6398  -42.5115 N.am      4 UNK        -0.5000 
     55 C           6.3401  -10.4252  -42.0736 C.2       3 UNK         0.5000 
     56 O           6.3319  -10.0986  -40.8861 O.2       3 UNK        -0.5000 
     57 CA          5.9210   -9.3990  -43.1468 C.3       3 UNK         0.1400 
     58 CB          7.0999   -8.4802  -43.5033 C.3       3 UNK        -0.1800 
     59 N           5.4145  -10.0249  -44.3722 N.am      3 UNK        -0.5000 
     60 C           4.2604  -10.6982  -44.4436 C.2       2 UNK         0.5000 
     61 O           3.4782  -10.8116  -43.4953 O.2       2 UNK        -0.5000 
     62 CA          3.9546  -11.3852  -45.7818 C.3       2 UNK         0.1400 
     63 CB          4.8378  -12.6293  -45.9823 C.3       2 UNK        -0.1800 
     64 N           2.5591  -11.7920  -45.7668 N.am      2 UNK        -0.5000 
     65 C           1.7019  -11.7277  -46.7894 C.2       1 UNK         0.5000 
     66 O           2.0193  -11.4063  -47.9353 O.2       1 UNK        -0.5000 
     67 C          -2.1706  -23.0903  -47.6761 C.2       11 UNK         0.5000 
     68 O          -2.2755  -23.9432  -48.5590 O.2       11 UNK        -0.5000 
     69 N          -3.1918  -22.7162  -46.8895 N.am      12 UNK        -0.5000 
     70 CA         -4.5268  -23.3214  -46.9315 C.3       12 UNK         0.1400 
     71 CB         -5.5018  -22.4948  -46.0828 C.3       12 UNK        -0.1800 
     72 C          -4.5475  -24.7964  -46.4848 C.2       12 UNK         0.5000 
     73 O          -5.4448  -25.5314  -46.8956 O.2       12 UNK        -0.5000 
     74 N          -3.5645  -25.2071  -45.6733 N.am      13 UNK        -0.5000 
     75 CA         -3.3723  -26.5908  -45.2482 C.3       13 UNK         0.1400 
     76 CB         -2.9354  -26.6129  -43.7745 C.3       13 UNK        -0.1800 
     77 C          -2.3340  -27.2965  -46.1351 C.2       13 UNK         0.5000 
     78 O          -2.5724  -28.4233  -46.5697 O.2       13 UNK        -0.5000 
     79 N          -1.1976  -26.6287  -46.3775 N.am      14 UNK        -0.5000 
     80 CA         -0.0302  -27.2019  -47.0470 C.3       14 UNK         0.1400 
     81 CB          1.1980  -26.3285  -46.7470 C.3       14 UNK        -0.1800 
     82 C          -0.1955  -27.3870  -48.5657 C.2       14 UNK         0.5000 
     83 O           0.3441  -28.3520  -49.1091 O.2       14 UNK        -0.5000 
     84 N          -0.9047  -26.4619  -49.2253 N.am      15 UNK        -0.5000 
     85 CA         -1.0293  -26.4049  -50.6857 C.3       15 UNK         0.1400 
     86 CB         -0.1339  -25.2641  -51.2035 C.3       15 UNK        -0.1800 
     87 C          -2.4816  -26.2132  -51.1550 C.2       15 UNK         0.5000 
     88 O          -2.7040  -26.0387  -52.3548 O.2       15 UNK        -0.5000 
     89 N          -3.4391  -26.1915  -50.2152 N.am      16 UNK        -0.5000 
     90 CA         -4.8555  -25.8618  -50.4168 C.3       16 UNK         0.1400 
     91 CB         -5.5646  -26.9747  -51.2166 C.3       16 UNK        -0.1800 
     92 C          -5.0545  -24.4575  -51.0297 C.2       16 UNK         0.5000 
     93 O          -5.9211  -24.2791  -51.8838 O.2       16 UNK        -0.5000 
     94 N          -4.2086  -23.4992  -50.6171 N.am      17 UNK        -0.5000 
     95 CA         -4.0845  -22.1370  -51.1528 C.3       17 UNK         0.1400 
     96 CB         -5.3344  -21.2950  -50.8267 C.3       17 UNK        -0.1800 
     97 C          -3.7241  -22.1451  -52.6536 C.2       17 UNK         0.5000 
     98 O          -4.3499  -21.4484  -53.4551 O.2       17 UNK        -0.5000 
     99 N          -2.7391  -22.9899  -52.9967 N.am      18 UNK        -0.5000 
    100 CA        -2.2700  -23.3149  -54.3467 C.3       18 UNK         0.1400 
    101 CB        -1.5533  -22.1064  -54.9805 C.3       18 UNK        -0.1800 
    102 C         -3.4114  -23.8748  -55.2174 C.2       18 UNK         0.5000 
    103 O         -3.7260  -23.3115  -56.2667 O.2       18 UNK        -0.5000 
    104 N         -4.0502  -24.9444  -54.7179 N.am      19 UNK        -0.5000 
    105 CA        -5.2246  -25.6178  -55.2912 C.3       19 UNK         0.1400 
    106 CB        -4.8254  -26.3995  -56.5594 C.3       19 UNK        -0.1800 
    107 C         -6.4138  -24.6576  -55.5255 C.2       19 UNK         0.5000 
    108 O         -7.0810  -24.7283  -56.5589 O.2       19 UNK        -0.5000 
    109 N         -6.6170  -23.7480  -54.5628 N.am      20 UNK        -0.5000 
    110 CA        -7.5848  -22.6488  -54.5152 C.3       20 UNK         0.1400 
    111 CB        -9.0273  -23.1943  -54.5107 C.3       20 UNK        -0.1800 
    112 C         -7.3845  -21.5464  -55.5797 C.2       20 UNK         0.5000 
    113 O         -8.2122  -20.6361  -55.6525 O.2       20 UNK        -0.5000 
    114 N         -6.3104  -21.6162  -56.3786 N.am      21 UNK        -0.5000 
    115 CA        -6.0142  -20.6523  -57.4391 C.3       21 UNK         0.1400 
    116 CB        -5.2668  -21.3674  -58.5756 C.3       21 UNK        -0.1800 
    117 C         -5.2010  -19.4465  -56.9362 C.2       21 UNK         0.5000 
    118 O         -5.1966  -18.4109  -57.6027 O.2       21 UNK        -0.5000 
    119 N         -4.5225  -19.5934  -55.7891 N.am      22 UNK        -0.5000 
    120 CA        -3.6340  -18.5925  -55.1728 C.3       22 UNK         0.1400 
    121 C         -2.3462  -18.2572  -55.9930 C.2       22 UNK         0.5000 
    122 N         -1.9585  -19.0598  -56.9771 N.am      22 UNK        -0.7600 
    123 O         -1.6644  -17.2735  -55.7203 O.2       22 UNK        -0.5000 
    124 C124       -4.4062  -17.3298  -54.6710 C.3       23 UNK        -0.0398 
    125 S125       -4.3716  -17.1843  -52.8532 S.3       23 UNK        -0.2404 
    126 C126       -2.9167  -16.1176  -52.6232 C.3       23 UNK        -0.0205 
    127 H127       -1.4018   -9.6796  -42.9917 H         1 UNK         0.0600 
    128 H128        0.2734  -10.0034  -42.5284 H         1 UNK         0.0600 
    129 H129       -0.8753  -11.3356  -42.6839 H         1 UNK         0.0600 
    130 H130       -0.4053  -12.5172  -44.5094 H         1 UNK         0.3000 
    131 H131       -0.3948  -11.4790  -47.1313 H         1 UNK         0.0600 
    132 H132        0.1781  -13.7792  -47.8416 H         1 UNK         0.0800 
    133 H133        0.6661  -14.1995  -46.2225 H         1 UNK         0.0800 
    134 H134       -2.2778  -13.1271  -48.5086 H         1 UNK         0.0800 
    135 H135       -3.5932  -14.0780  -47.8681 H         1 UNK         0.0800 
    136 H136       -3.2299  -14.3043  -50.6025 H         1 UNK         0.1150 
    137 H137       -1.4827  -18.1145  -51.4834 H         1 UNK         0.1150 
    138 H138       -1.0563  -16.4383  -47.5796 H         1 UNK         0.1150 
    139 H139        0.2393  -18.9598  -49.8466 H         1 UNK         0.0800 
    140 H140        0.2169  -18.4113  -48.1863 H         1 UNK         0.0800 
    141 H141       -0.2893  -21.8387  -49.4311 H         1 UNK         0.0800 
    142 H142        0.5960  -20.9942  -48.1976 H         1 UNK         0.0800 
    143 H143       -0.0788  -23.2830  -47.5774 H         1 UNK         0.0600 
    144 H144       -0.3940  -21.0700  -45.8510 H         1 UNK         0.3000 
    145 H145       -0.1677  -23.1818  -42.8986 H         1 UNK         0.0600 
    146 H146        1.7035  -21.5801  -42.6542 H         1 UNK         0.0600 
    147 H147        1.5665  -21.1096  -44.3457 H         1 UNK         0.0600 
    148 H148        2.0467  -22.7468  -43.9216 H         1 UNK         0.0600 
    149 H149       -0.7202  -20.3614  -43.6577 H         1 UNK         0.3000 
    150 H150       -3.9124  -20.3691  -42.2261 H         1 UNK         0.0600 
    151 H151       -2.6488  -20.1872  -40.0780 H         1 UNK         0.0600 
    152 H152       -3.1129  -18.5997  -40.6713 H         1 UNK         0.0600 
    153 H153       -1.4507  -19.1576  -40.8545 H         1 UNK         0.0600 
    154 H154       -2.1649  -18.2422  -43.0253 H         1 UNK         0.3000 
    155 H155       -2.6631  -18.5048  -46.5286 H         1 UNK         0.0600 
    156 H156       -4.7952  -17.4554  -45.6525 H         1 UNK         0.0600 
    157 H157       -3.6728  -16.3061  -46.3466 H         1 UNK         0.0600 
    158 H158       -3.8207  -16.4424  -44.5925 H         1 UNK         0.0600 
    159 H159       -1.4238  -16.4789  -45.0199 H         1 UNK         0.3000 
    160 H160        1.5477  -17.9554  -44.0163 H         1 UNK         0.0600 
    161 H161        1.3910  -16.4071  -46.6573 H         1 UNK         0.0600 
    162 H162        2.2114  -17.9385  -46.3999 H         1 UNK         0.0600 
    163 H163        2.8060  -16.4901  -45.6056 H         1 UNK         0.0600 
    164 H164        1.2845  -15.2681  -44.2685 H         1 UNK         0.3000 
    165 H165       -0.0323  -13.7724  -43.0617 H         1 UNK         0.0600 
    166 H166       -1.2193  -13.2394  -40.9551 H         1 UNK         0.0600 
    167 H167       -2.1570  -14.3809  -41.9062 H         1 UNK         0.0600 
    168 H168       -1.2534  -14.9424  -40.5046 H         1 UNK         0.0600 
    169 H169        1.1382  -14.5440  -40.4920 H         1 UNK         0.3000 
    170 H170        3.3186  -13.7188  -40.0709 H         1 UNK         0.0600 
    171 H171        4.2103  -16.2291  -41.6269 H         1 UNK         0.0600 
    172 H172        4.6395  -15.8520  -39.9605 H         1 UNK         0.0600 
    173 H173        2.9814  -16.2277  -40.3698 H         1 UNK         0.0600 
    174 H174        4.6994  -13.2741  -42.5060 H         1 UNK         0.3000 
    175 H175        7.8298  -12.3772  -40.9289 H         1 UNK         0.0600 
    176 H176        7.1383  -14.2178  -43.2816 H         1 UNK         0.0600 
    177 H177        8.6858  -13.4189  -43.0028 H         1 UNK         0.0600 
    178 H178        8.1265  -14.6619  -41.8954 H         1 UNK         0.0600 
    179 H179        6.6885  -11.8116  -43.5052 H         1 UNK         0.3000 
    180 H180        5.1250   -8.7840  -42.7213 H         1 UNK         0.0600 
    181 H181        7.9253   -9.0377  -43.9479 H         1 UNK         0.0600 
    182 H182        7.4847   -7.9766  -42.6154 H         1 UNK         0.0600 
    183 H183        6.7977   -7.7059  -44.2086 H         1 UNK         0.0600 
    184 H184        6.0047   -9.9628  -45.1897 H         1 UNK         0.3000 
    185 H185        4.1323  -10.6675  -46.5855 H         1 UNK         0.0600 
    186 H186        4.7022  -13.3521  -45.1764 H         1 UNK         0.0600 
    187 H187        4.6012  -13.1306  -46.9209 H         1 UNK         0.0600 
    188 H188        5.8951  -12.3645  -46.0156 H         1 UNK         0.0600 
    189 H189        2.2103  -12.0100  -44.8402 H         1 UNK         0.3000 
    190 H190       -3.0463  -21.9855  -46.2022 H         1 UNK         0.3000 
    191 H191       -4.8794  -23.2890  -47.9630 H         1 UNK         0.0600 
    192 H192       -5.5698  -21.4701  -46.4483 H         1 UNK         0.0600 
    193 H193       -5.1953  -22.4623  -45.0365 H         1 UNK         0.0600 
    194 H194       -6.5071  -22.9166  -46.1175 H         1 UNK         0.0600 
    195 H195       -2.8453  -24.5481  -45.4026 H         1 UNK         0.3000 
    196 H196       -4.3106  -27.1446  -45.3231 H         1 UNK         0.0600 
    197 H197       -3.6925  -26.1594  -43.1347 H         1 UNK         0.0600 
    198 H198       -2.0008  -26.0734  -43.6168 H         1 UNK         0.0600 
    199 H199       -2.7865  -27.6361  -43.4272 H         1 UNK         0.0600 
    200 H200       -1.0669  -25.7138  -45.9516 H         1 UNK         0.3000 
    201 H201        0.1515  -28.1890  -46.6162 H         1 UNK         0.0600 
    202 H202        1.3700  -26.2446  -45.6737 H         1 UNK         0.0600 
    203 H203        1.0838  -25.3209  -47.1466 H         1 UNK         0.0600 
    204 H204        2.0993  -26.7560  -47.1882 H         1 UNK         0.0600 
    205 H205       -1.3107  -25.6847  -48.7147 H         1 UNK         0.3000 
    206 H206       -0.6915  -27.3389  -51.1387 H         1 UNK         0.0600 
    207 H207        0.9051  -25.4184  -50.9120 H         1 UNK         0.0600 
    208 H208       -0.4497  -24.2966  -50.8115 H         1 UNK         0.0600 
    209 H209       -0.1554  -25.2045  -52.2923 H         1 UNK         0.0600 
    210 H210       -3.1555  -26.3402  -49.2579 H         1 UNK         0.3000 
    211 H211       -5.3158  -25.8283  -49.4312 H         1 UNK         0.0600 
    212 H212       -5.1852  -27.0498  -52.2353 H         1 UNK         0.0600 
    213 H213       -6.6375  -26.7895  -51.2798 H         1 UNK         0.0600 
    214 H214       -5.4324  -27.9454  -50.7389 H         1 UNK         0.0600 
    215 H215       -3.5164  -23.7546  -49.9164 H         1 UNK         0.3000 
    216 H216       -3.2388  -21.6786  -50.6387 H         1 UNK         0.0600 
    217 H217       -5.1957  -20.2586  -51.1379 H         1 UNK         0.0600 
    218 H218       -5.5336  -21.2877  -49.7551 H         1 UNK         0.0600 
    219 H219       -6.2239  -21.6710  -51.3321 H         1 UNK         0.0600 
    220 H220       -2.3478  -23.5626  -52.2638 H         1 UNK         0.3000 
    221 H221       -1.5372  -24.1163  -54.2422 H         1 UNK         0.0600 
    222 H222       -2.2320  -21.2693  -55.1310 H         1 UNK         0.0600 
    223 H223       -0.7312  -21.7617  -54.3535 H         1 UNK         0.0600 
    224 H224       -1.1349  -22.3666  -55.9533 H         1 UNK         0.0600 
    225 H225       -3.7056  -25.3279  -53.8408 H         1 UNK         0.3000 
    226 H226       -5.5602  -26.3412  -54.5475 H         1 UNK         0.0600 
    227 H227       -4.0014  -27.0837  -56.3567 H         1 UNK         0.0600 
    228 H228       -5.6588  -26.9975  -56.9297 H         1 UNK         0.0600 
    229 H229       -4.5170  -25.7323  -57.3651 H         1 UNK         0.0600 
    230 H230       -6.0485  -23.8286  -53.7234 H         1 UNK         0.3000 
    231 H231       -7.4169  -22.1607  -53.5543 H         1 UNK         0.0600 
    232 H232       -9.7473  -22.3988  -54.3157 H         1 UNK         0.0600 
    233 H233       -9.1607  -23.9469  -53.7335 H         1 UNK         0.0600 
    234 H234       -9.2930  -23.6463  -55.4666 H         1 UNK         0.0600 
    235 H235       -5.6461  -22.3721  -56.2533 H         1 UNK         0.3000 
    236 H236       -6.9504  -20.2695  -57.8509 H         1 UNK         0.0600 
    237 H237       -4.2817  -21.7113  -58.2606 H         1 UNK         0.0600 
    238 H238       -5.8257  -22.2323  -58.9335 H         1 UNK         0.0600 
    239 H239       -5.1213  -20.6994  -59.4254 H         1 UNK         0.0600 
    240 H240       -4.6019  -20.4661  -55.2772 H         1 UNK         0.3000 
    241 H241       -3.2310  -19.1115  -54.3030 H         1 UNK         0.0600 
    242 H242       -1.1218  -18.8391  -57.4938 H         1 UNK         0.3800 
    243 H243       -2.4963  -19.8766  -57.2159 H         1 UNK         0.3800 
    244 H244       -5.4568  -17.3737  -54.9602 H         1 UNK         0.0800 
    245 H245       -4.0360  -16.4053  -55.1172 H         1 UNK         0.0800 
    246 H246       -3.1719  -15.0915  -52.8921 H         1 UNK         0.0800 
    247 H247       -2.1186  -16.4255  -53.2984 H         1 UNK         0.0800 
@<TRIPOS>BOND
     1    1    2 1    
     2    1  127 1    
     3    1  128 1    
     4    1  129 1    
     5    2    3 2    
     6    2    4 am   BACKBONE|DICT|INTERRES
     7    4    5 1    
     8    4  130 1    
     9    5    6 1    
    10    5   65 1    
    11    5  131 1    
    12    6    7 1    
    13    6  132 1    
    14    6  133 1    
    15    7    8 1    
    16    8    9 1    
    17    8  134 1    
    18    8  135 1    
    19    9   10 ar   
    20    9   14 ar   
    21   10   11 ar   
    22   10  136 1    
    23   11   12 ar   
    24   11  126 1    
    25   12   13 ar   
    26   12  137 1    
    27   13   14 ar   
    28   13   15 1    
    29   14  138 1    
    30   15   16 1    
    31   15  139 1    
    32   15  140 1    
    33   16   17 1    
    34   17   18 1    
    35   17  141 1    
    36   17  142 1    
    37   18   19 1    
    38   18   67 1    
    39   18  143 1    
    40   19   20 am   BACKBONE|DICT|INTERRES
    41   19  144 1    
    42   20   21 2    
    43   20   22 1    
    44   22   23 1    
    45   22   24 1    
    46   22  145 1    
    47   23  146 1    
    48   23  147 1    
    49   23  148 1    
    50   24   25 am   BACKBONE|DICT|INTERRES
    51   24  149 1    
    52   25   26 2    
    53   25   27 1    
    54   27   28 1    
    55   27   29 1    
    56   27  150 1    
    57   28  151 1    
    58   28  152 1    
    59   28  153 1    
    60   29   30 am   BACKBONE|DICT|INTERRES
    61   29  154 1    
    62   30   31 2    
    63   30   32 1    
    64   32   33 1    
    65   32   34 1    
    66   32  155 1    
    67   33  156 1    
    68   33  157 1    
    69   33  158 1    
    70   34   35 am   BACKBONE|DICT|INTERRES
    71   34  159 1    
    72   35   36 2    
    73   35   37 1    
    74   37   38 1    
    75   37   39 1    
    76   37  160 1    
    77   38  161 1    
    78   38  162 1    
    79   38  163 1    
    80   39   40 am   BACKBONE|DICT|INTERRES
    81   39  164 1    
    82   40   41 2    
    83   40   42 1    
    84   42   43 1    
    85   42   44 1    
    86   42  165 1    
    87   43  166 1    
    88   43  167 1    
    89   43  168 1    
    90   44   45 am   BACKBONE|DICT|INTERRES
    91   44  169 1    
    92   45   46 2    
    93   45   47 1    
    94   47   48 1    
    95   47   49 1    
    96   47  170 1    
    97   48  171 1    
    98   48  172 1    
    99   48  173 1    
   100   49   50 am   BACKBONE|DICT|INTERRES
   101   49  174 1    
   102   50   51 2    
   103   50   52 1    
   104   52   53 1    
   105   52   54 1    
   106   52  175 1    
   107   53  176 1    
   108   53  177 1    
   109   53  178 1    
   110   54   55 am   BACKBONE|DICT|INTERRES
   111   54  179 1    
   112   55   56 2    
   113   55   57 1    
   114   57   58 1    
   115   57   59 1    
   116   57  180 1    
   117   58  181 1    
   118   58  182 1    
   119   58  183 1    
   120   59   60 am   BACKBONE|DICT|INTERRES
   121   59  184 1    
   122   60   61 2    
   123   60   62 1    
   124   62   63 1    
   125   62   64 1    
   126   62  185 1    
   127   63  186 1    
   128   63  187 1    
   129   63  188 1    
   130   64   65 am   BACKBONE|DICT|INTERRES
   131   64  189 1    
   132   65   66 2    
   133   67   68 2    
   134   67   69 am   BACKBONE|DICT|INTERRES
   135   69   70 1    
   136   69  190 1    
   137   70   71 1    
   138   70   72 1    
   139   70  191 1    
   140   71  192 1    
   141   71  193 1    
   142   71  194 1    
   143   72   73 2    
   144   72   74 am   BACKBONE|DICT|INTERRES
   145   74   75 1    
   146   74  195 1    
   147   75   76 1    
   148   75   77 1    
   149   75  196 1    
   150   76  197 1    
   151   76  198 1    
   152   76  199 1    
   153   77   78 2    
   154   77   79 am   BACKBONE|DICT|INTERRES
   155   79   80 1    
   156   79  200 1    
   157   80   81 1    
   158   80   82 1    
   159   80  201 1    
   160   81  202 1    
   161   81  203 1    
   162   81  204 1    
   163   82   83 2    
   164   82   84 am   BACKBONE|DICT|INTERRES
   165   84   85 1    
   166   84  205 1    
   167   85   86 1    
   168   85   87 1    
   169   85  206 1    
   170   86  207 1    
   171   86  208 1    
   172   86  209 1    
   173   87   88 2    
   174   87   89 am   BACKBONE|DICT|INTERRES
   175   89   90 1    
   176   89  210 1    
   177   90   91 1    
   178   90   92 1    
   179   90  211 1    
   180   91  212 1    
   181   91  213 1    
   182   91  214 1    
   183   92   93 2    
   184   92   94 am   BACKBONE|DICT|INTERRES
   185   94   95 1    
   186   94  215 1    
   187   95   96 1    
   188   95   97 1    
   189   95  216 1    
   190   96  217 1    
   191   96  218 1    
   192   96  219 1    
   193   97   98 2    
   194   97   99 am   BACKBONE|DICT|INTERRES
   195   99  100 1    
   196   99  220 1    
   197  100  101 1    
   198  100  102 1    
   199  100  221 1    
   200  101  222 1    
   201  101  223 1    
   202  101  224 1    
   203  102  103 2    
   204  102  104 am   BACKBONE|DICT|INTERRES
   205  104  105 1    
   206  104  225 1    
   207  105  106 1    
   208  105  107 1    
   209  105  226 1    
   210  106  227 1    
   211  106  228 1    
   212  106  229 1    
   213  107  108 2    
   214  107  109 am   BACKBONE|DICT|INTERRES
   215  109  110 1    
   216  109  230 1    
   217  110  111 1    
   218  110  112 1    
   219  110  231 1    
   220  111  232 1    
   221  111  233 1    
   222  111  234 1    
   223  112  113 2    
   224  112  114 am   BACKBONE|DICT|INTERRES
   225  114  115 1    
   226  114  235 1    
   227  115  116 1    
   228  115  117 1    
   229  115  236 1    
   230  116  237 1    
   231  116  238 1    
   232  116  239 1    
   233  117  118 2    
   234  117  119 am   BACKBONE|DICT|INTERRES
   235  119  120 1    
   236  119  240 1    
   237  120  121 1    
   238  120  124 1    
   239  120  241 1    
   240  121  122 am   BACKBONE|DICT|INTERRES
   241  121  123 2    
   242  122  242 1    
   243  122  243 1    
   244  124  125 1    
   245  124  244 1    
   246  124  245 1    
   247  125  126 1    
   248  126  246 1    
   249  126  247 1    
@<TRIPOS>SUBSTRUCTURE
     1 UNK         1 GROUP             0       ****    0 ROOT    
