@<TRIPOS>MOLECULE
3R540
247   249    1
SMALL
USER_CHARGES


@<TRIPOS>ATOM
      1 CA         -1.8533  -13.1609  -47.9521 C.3       0 UNK        -0.1800 
      2 C          -0.4997  -12.9154  -48.6043 C.2       0 UNK         0.5000 
      3 O          -0.2862  -11.8588  -49.1978 O.2       0 UNK        -0.5000 
      4 N           0.4191  -13.8833  -48.4867 N.am      1 UNK        -0.5000 
      5 CA          1.7873  -13.8205  -49.0273 C.3       1 UNK         0.1400 
      6 C6          2.4092  -15.2293  -49.1827 C.3       23 UNK        -0.0398 
      7 S7          1.4087  -16.3163  -50.2455 S.3       23 UNK        -0.2404 
      8 C8          2.4150  -17.8267  -50.2081 C.3       23 UNK        -0.0205 
      9 C9          1.6773  -18.9790  -50.8670 C.ar      23 UNK        -0.0193 
     10 C10         1.6339  -19.0833  -52.2588 C.ar      23 UNK        -0.1150 
     11 C11         0.9396  -20.1309  -52.8716 C.ar      23 UNK        -0.0193 
     12 C12         0.3098  -21.0934  -52.0766 C.ar      23 UNK        -0.1150 
     13 C13         0.3645  -21.0115  -50.6817 C.ar      23 UNK        -0.0193 
     14 C14         1.0414  -19.9452  -50.0855 C.ar      23 UNK        -0.1150 
     15 C15        -0.3066  -22.0729  -49.8231 C.3       23 UNK        -0.0205 
     16 S16         0.8932  -23.2743  -49.1725 S.3       23 UNK        -0.2404 
     17 C17         1.3058  -22.5198  -47.5591 C.3       23 UNK        -0.0398 
     18 CA          0.8475  -23.3046  -46.3000 C.3       11 UNK         0.1400 
     19 N           0.9492  -22.4641  -45.1106 N.am      11 UNK        -0.5000 
     20 C           1.2959  -22.8853  -43.8887 C.2       10 UNK         0.5000 
     21 O           1.6354  -24.0407  -43.6315 O.2       10 UNK        -0.5000 
     22 CA          1.2694  -21.8352  -42.7596 C.3       10 UNK         0.1400 
     23 CB          2.6816  -21.2815  -42.5153 C.3       10 UNK        -0.1800 
     24 N           0.3573  -20.7198  -43.0266 N.am      10 UNK        -0.5000 
     25 C          -0.9790  -20.8210  -43.0397 C.2       9 UNK         0.5000 
     26 O          -1.5846  -21.8554  -42.7605 O.2       9 UNK        -0.5000 
     27 CA         -1.7755  -19.5691  -43.4531 C.3       9 UNK         0.1400 
     28 CB         -2.0959  -18.7064  -42.2241 C.3       9 UNK        -0.1800 
     29 N          -1.1113  -18.7400  -44.4616 N.am      9 UNK        -0.5000 
     30 C          -0.8105  -19.1232  -45.7107 C.2       8 UNK         0.5000 
     31 O          -0.9933  -20.2589  -46.1497 O.2       8 UNK        -0.5000 
     32 CA         -0.1698  -18.0609  -46.6152 C.3       8 UNK         0.1400 
     33 CB         -1.2202  -17.0667  -47.1270 C.3       8 UNK        -0.1800 
     34 N           0.9017  -17.3549  -45.9174 N.am      8 UNK        -0.5000 
     35 C           2.1538  -17.8240  -45.8154 C.2       7 UNK         0.5000 
     36 O           2.5529  -18.8327  -46.3976 O.2       7 UNK        -0.5000 
     37 CA          3.1209  -17.0526  -44.8951 C.3       7 UNK         0.1400 
     38 CB          3.9462  -16.0356  -45.6970 C.3       7 UNK        -0.1800 
     39 N           2.4510  -16.3556  -43.7960 N.am      7 UNK        -0.5000 
     40 C           1.8147  -16.9603  -42.7840 C.2       6 UNK         0.5000 
     41 O           1.7227  -18.1807  -42.6632 O.2       6 UNK        -0.5000 
     42 CA          1.1161  -16.0401  -41.7682 C.3       6 UNK         0.1400 
     43 CB          2.1066  -15.5737  -40.6912 C.3       6 UNK        -0.1800 
     44 N           0.4808  -14.8675  -42.3746 N.am      6 UNK        -0.5000 
     45 C          -0.4742  -14.8857  -43.3154 C.2       5 UNK         0.5000 
     46 O          -0.8610  -15.9207  -43.8597 O.2       5 UNK        -0.5000 
     47 CA         -1.0656  -13.5333  -43.7684 C.3       5 UNK         0.1400 
     48 CB         -2.6049  -13.5326  -43.7036 C.3       5 UNK        -0.1800 
     49 N          -0.4969  -12.3534  -43.0987 N.am      5 UNK        -0.5000 
     50 C          -0.6067  -11.9800  -41.8127 C.2       4 UNK         0.5000 
     51 O          -1.2679  -12.5974  -40.9784 O.2       4 UNK        -0.5000 
     52 CA          0.2052  -10.7480  -41.3567 C.3       4 UNK         0.1400 
     53 CB          1.2941  -11.1697  -40.3555 C.3       4 UNK        -0.1800 
     54 N           0.8509  -10.0393  -42.4636 N.am      4 UNK        -0.5000 
     55 C           0.2619   -9.1119  -43.2297 C.2       3 UNK         0.5000 
     56 O          -0.8844   -8.7008  -43.0476 O.2       3 UNK        -0.5000 
     57 CA          1.0855   -8.5740  -44.4190 C.3       3 UNK         0.1400 
     58 CB          1.8313   -7.2920  -44.0181 C.3       3 UNK        -0.1800 
     59 N           2.0481   -9.5353  -44.9758 N.am      3 UNK        -0.5000 
     60 C           1.7222  -10.7177  -45.5132 C.2       2 UNK         0.5000 
     61 O           0.5717  -11.1643  -45.5315 O.2       2 UNK        -0.5000 
     62 CA          2.8667  -11.5660  -46.0850 C.3       2 UNK         0.1400 
     63 CB          3.6166  -12.3019  -44.9620 C.3       2 UNK        -0.1800 
     64 N           2.2686  -12.5446  -46.9826 N.am      2 UNK        -0.5000 
     65 C           2.7144  -12.9083  -48.1890 C.2       1 UNK         0.5000 
     66 O           3.7996  -12.5533  -48.6504 O.2       1 UNK        -0.5000 
     67 C          -0.5820  -23.8828  -46.3676 C.2       11 UNK         0.5000 
     68 O          -0.7434  -25.0946  -46.2161 O.2       11 UNK        -0.5000 
     69 N          -1.5756  -22.9975  -46.5568 N.am      12 UNK        -0.5000 
     70 CA         -3.0259  -23.2229  -46.6083 C.3       12 UNK         0.1400 
     71 CB         -3.6180  -23.0599  -45.1950 C.3       12 UNK        -0.1800 
     72 C          -3.4595  -24.5356  -47.2958 C.2       12 UNK         0.5000 
     73 O          -3.5523  -24.5868  -48.5247 O.2       12 UNK        -0.5000 
     74 N          -3.7010  -25.5762  -46.4859 N.am      13 UNK        -0.5000 
     75 CA         -4.1208  -26.9205  -46.8838 C.3       13 UNK         0.1400 
     76 CB         -4.3403  -27.7659  -45.6209 C.3       13 UNK        -0.1800 
     77 C          -3.1616  -27.6396  -47.8525 C.2       13 UNK         0.5000 
     78 O          -3.6105  -28.5254  -48.5802 O.2       13 UNK        -0.5000 
     79 N          -1.8877  -27.2228  -47.9047 N.am      14 UNK        -0.5000 
     80 CA         -0.9030  -27.6893  -48.8865 C.3       14 UNK         0.1400 
     81 CB          0.4873  -27.1631  -48.5044 C.3       14 UNK        -0.1800 
     82 C          -1.2544  -27.3116  -50.3432 C.2       14 UNK         0.5000 
     83 O          -0.8036  -27.9952  -51.2628 O.2       14 UNK        -0.5000 
     84 N          -2.0795  -26.2705  -50.5258 N.am      15 UNK        -0.5000 
     85 CA         -2.6921  -25.8852  -51.7993 C.3       15 UNK         0.1400 
     86 CB         -2.2380  -24.4647  -52.1647 C.3       15 UNK        -0.1800 
     87 C          -4.2289  -25.9957  -51.7136 C.2       15 UNK         0.5000 
     88 O          -4.9395  -25.2697  -52.4119 O.2       15 UNK        -0.5000 
     89 N          -4.7180  -26.8804  -50.8284 N.am      16 UNK        -0.5000 
     90 CA         -6.1247  -27.1924  -50.5462 C.3       16 UNK         0.1400 
     91 CB         -6.7598  -27.9082  -51.7563 C.3       16 UNK        -0.1800 
     92 C          -6.9648  -25.9832  -50.0799 C.2       16 UNK         0.5000 
     93 O          -8.1884  -26.0083  -50.2193 O.2       16 UNK        -0.5000 
     94 N          -6.3005  -24.9299  -49.5779 N.am      17 UNK        -0.5000 
     95 CA         -6.8059  -23.6001  -49.2092 C.3       17 UNK         0.1400 
     96 CB         -7.8292  -23.6841  -48.0625 C.3       17 UNK        -0.1800 
     97 C          -7.3490  -22.7678  -50.3920 C.2       17 UNK         0.5000 
     98 O          -7.1240  -21.5590  -50.4309 O.2       17 UNK        -0.5000 
     99 N          -8.0273  -23.4159  -51.3454 N.am      18 UNK        -0.5000 
    100 CA        -8.6295  -22.8213  -52.5376 C.3       18 UNK         0.1400 
    101 CB        -9.4627  -23.8929  -53.2570 C.3       18 UNK        -0.1800 
    102 C         -7.6138  -22.1901  -53.5083 C.2       18 UNK         0.5000 
    103 O         -7.9505  -21.2030  -54.1634 O.2       18 UNK        -0.5000 
    104 N         -6.4010  -22.7554  -53.5807 N.am      19 UNK        -0.5000 
    105 CA        -5.3065  -22.2707  -54.4250 C.3       19 UNK         0.1400 
    106 CB        -4.8285  -23.4187  -55.3325 C.3       19 UNK        -0.1800 
    107 C         -4.1555  -21.6730  -53.5917 C.2       19 UNK         0.5000 
    108 O         -3.0613  -21.4883  -54.1243 O.2       19 UNK        -0.5000 
    109 N         -4.4025  -21.3865  -52.3059 N.am      20 UNK        -0.5000 
    110 CA        -3.4471  -20.7367  -51.4106 C.3       20 UNK         0.1400 
    111 CB        -3.7877  -21.1172  -49.9595 C.3       20 UNK        -0.1800 
    112 C         -3.4364  -19.2065  -51.5885 C.2       20 UNK         0.5000 
    113 O         -4.3242  -18.6499  -52.2396 O.2       20 UNK        -0.5000 
    114 N         -2.4463  -18.5605  -50.9546 N.am      21 UNK        -0.5000 
    115 CA        -2.2552  -17.1087  -50.8664 C.3       21 UNK         0.1400 
    116 CB        -3.4224  -16.4418  -50.1052 C.3       21 UNK        -0.1800 
    117 C         -1.9786  -16.4559  -52.2360 C.2       21 UNK         0.5000 
    118 O         -2.6240  -15.4681  -52.5928 O.2       21 UNK        -0.5000 
    119 N         -1.0269  -17.0283  -52.9859 N.am      22 UNK        -0.5000 
    120 CA        -0.6359  -16.5550  -54.3269 C.3       22 UNK         0.1400 
    121 C          0.0731  -15.1679  -54.3540 C.2       22 UNK         0.5000 
    122 N          0.6280  -14.6823  -53.2498 N.am      22 UNK        -0.7600 
    123 O          0.1205  -14.5231  -55.3980 O.2       22 UNK        -0.5000 
    124 C124        0.2123  -17.5892  -55.1127 C.3       23 UNK        -0.0398 
    125 S125       -0.4763  -19.2807  -55.1125 S.3       23 UNK        -0.2404 
    126 C126        0.8905  -20.2447  -54.3885 C.3       23 UNK        -0.0205 
    127 H127       -2.6463  -13.0963  -48.6970 H         1 UNK         0.0600 
    128 H128       -2.0401  -12.4073  -47.1867 H         1 UNK         0.0600 
    129 H129       -1.9090  -14.1418  -47.4809 H         1 UNK         0.0600 
    130 H130        0.1806  -14.7405  -48.0122 H         1 UNK         0.3000 
    131 H131        1.7338  -13.3740  -50.0227 H         1 UNK         0.0600 
    132 H132        2.5166  -15.7120  -48.2119 H         1 UNK         0.0800 
    133 H133        3.4106  -15.1629  -49.6125 H         1 UNK         0.0800 
    134 H134        3.3614  -17.6487  -50.7208 H         1 UNK         0.0800 
    135 H135        2.6623  -18.0765  -49.1748 H         1 UNK         0.0800 
    136 H136        2.1445  -18.3437  -52.8575 H         1 UNK         0.1150 
    137 H137       -0.2173  -21.9118  -52.5474 H         1 UNK         0.1150 
    138 H138        1.0964  -19.8761  -49.0115 H         1 UNK         0.1150 
    139 H139       -0.8596  -21.6052  -49.0086 H         1 UNK         0.0800 
    140 H140       -1.0441  -22.6184  -50.4062 H         1 UNK         0.0800 
    141 H141        0.9033  -21.5091  -47.5250 H         1 UNK         0.0800 
    142 H142        2.3883  -22.3910  -47.5236 H         1 UNK         0.0800 
    143 H143        1.5250  -24.1554  -46.1978 H         1 UNK         0.0600 
    144 H144        0.6270  -21.5106  -45.2088 H         1 UNK         0.3000 
    145 H145        0.9376  -22.3387  -41.8493 H         1 UNK         0.0600 
    146 H146        3.3897  -22.0856  -42.3109 H         1 UNK         0.0600 
    147 H147        3.0505  -20.7280  -43.3800 H         1 UNK         0.0600 
    148 H148        2.6976  -20.6101  -41.6566 H         1 UNK         0.0600 
    149 H149        0.7831  -19.8090  -43.1756 H         1 UNK         0.3000 
    150 H150       -2.7196  -19.9082  -43.8833 H         1 UNK         0.0600 
    151 H151       -2.6990  -17.8393  -42.4945 H         1 UNK         0.0600 
    152 H152       -1.1873  -18.3464  -41.7424 H         1 UNK         0.0600 
    153 H153       -2.6570  -19.2760  -41.4824 H         1 UNK         0.0600 
    154 H154       -0.9429  -17.7718  -44.2013 H         1 UNK         0.3000 
    155 H155        0.2410  -18.5696  -47.4861 H         1 UNK         0.0600 
    156 H156       -2.0496  -17.5976  -47.5938 H         1 UNK         0.0600 
    157 H157       -0.7964  -16.4037  -47.8790 H         1 UNK         0.0600 
    158 H158       -1.6352  -16.4546  -46.3266 H         1 UNK         0.0600 
    159 H159        0.6278  -16.5703  -45.3414 H         1 UNK         0.3000 
    160 H160        3.8072  -17.7841  -44.4631 H         1 UNK         0.0600 
    161 H161        4.4248  -16.5052  -46.5575 H         1 UNK         0.0600 
    162 H162        4.7371  -15.6031  -45.0840 H         1 UNK         0.0600 
    163 H163        3.3275  -15.2176  -46.0649 H         1 UNK         0.0600 
    164 H164        2.4718  -15.3475  -43.8131 H         1 UNK         0.3000 
    165 H165        0.3329  -16.6211  -41.2792 H         1 UNK         0.0600 
    166 H166        1.6025  -14.9971  -39.9151 H         1 UNK         0.0600 
    167 H167        2.5832  -16.4253  -40.2036 H         1 UNK         0.0600 
    168 H168        2.8971  -14.9507  -41.1117 H         1 UNK         0.0600 
    169 H169        0.7248  -13.9721  -41.9806 H         1 UNK         0.3000 
    170 H170       -0.7900  -13.4346  -44.8189 H         1 UNK         0.0600 
    171 H171       -3.0131  -12.5869  -44.0599 H         1 UNK         0.0600 
    172 H172       -3.0219  -14.3213  -44.3311 H         1 UNK         0.0600 
    173 H173       -2.9711  -13.6980  -42.6902 H         1 UNK         0.0600 
    174 H174        0.0359  -11.7514  -43.7179 H         1 UNK         0.3000 
    175 H175       -0.4841  -10.0718  -40.8467 H         1 UNK         0.0600 
    176 H176        2.0116  -11.8579  -40.8042 H         1 UNK         0.0600 
    177 H177        1.8451  -10.3046  -39.9860 H         1 UNK         0.0600 
    178 H178        0.8597  -11.6683  -39.4879 H         1 UNK         0.0600 
    179 H179        1.8007  -10.3036  -42.6803 H         1 UNK         0.3000 
    180 H180        0.3784   -8.3219  -45.2120 H         1 UNK         0.0600 
    181 H181        2.3362   -6.8443  -44.8743 H         1 UNK         0.0600 
    182 H182        2.5799   -7.4859  -43.2490 H         1 UNK         0.0600 
    183 H183        1.1412   -6.5449  -43.6235 H         1 UNK         0.0600 
    184 H184        3.0156   -9.2449  -44.9818 H         1 UNK         0.3000 
    185 H185        3.5510  -10.9122  -46.6297 H         1 UNK         0.0600 
    186 H186        2.9512  -12.9472  -44.3871 H         1 UNK         0.0600 
    187 H187        4.4166  -12.9217  -45.3671 H         1 UNK         0.0600 
    188 H188        4.0750  -11.5975  -44.2671 H         1 UNK         0.0600 
    189 H189        1.3199  -12.7929  -46.7348 H         1 UNK         0.3000 
    190 H190       -1.3137  -22.0151  -46.5948 H         1 UNK         0.3000 
    191 H191       -3.4352  -22.4198  -47.2221 H         1 UNK         0.0600 
    192 H192       -3.1390  -23.7204  -44.4713 H         1 UNK         0.0600 
    193 H193       -4.6894  -23.2651  -45.1838 H         1 UNK         0.0600 
    194 H194       -3.4867  -22.0382  -44.8403 H         1 UNK         0.0600 
    195 H195       -3.5478  -25.4389  -45.4977 H         1 UNK         0.3000 
    196 H196       -5.0790  -26.8201  -47.3971 H         1 UNK         0.0600 
    197 H197       -4.6854  -28.7690  -45.8753 H         1 UNK         0.0600 
    198 H198       -5.0949  -27.3198  -44.9727 H         1 UNK         0.0600 
    199 H199       -3.4203  -27.8712  -45.0443 H         1 UNK         0.0600 
    200 H200       -1.5859  -26.4846  -47.2731 H         1 UNK         0.3000 
    201 H201       -0.8753  -28.7796  -48.8342 H         1 UNK         0.0600 
    202 H202        0.7719  -27.4888  -47.5038 H         1 UNK         0.0600 
    203 H203        0.5200  -26.0751  -48.5231 H         1 UNK         0.0600 
    204 H204        1.2486  -27.5268  -49.1956 H         1 UNK         0.0600 
    205 H205       -2.4088  -25.7585  -49.7128 H         1 UNK         0.3000 
    206 H206       -2.3745  -26.5585  -52.5974 H         1 UNK         0.0600 
    207 H207       -2.5311  -24.2120  -53.1833 H         1 UNK         0.0600 
    208 H208       -2.6864  -23.7264  -51.5009 H         1 UNK         0.0600 
    209 H209       -1.1538  -24.3666  -52.1084 H         1 UNK         0.0600 
    210 H210       -4.0529  -27.4231  -50.2893 H         1 UNK         0.3000 
    211 H211       -6.1207  -27.8945  -49.7117 H         1 UNK         0.0600 
    212 H212       -6.8595  -27.2410  -52.6133 H         1 UNK         0.0600 
    213 H213       -7.7554  -28.2826  -51.5156 H         1 UNK         0.0600 
    214 H214       -6.1610  -28.7647  -52.0661 H         1 UNK         0.0600 
    215 H215       -5.2912  -25.0121  -49.5161 H         1 UNK         0.3000 
    216 H216       -5.9403  -23.0577  -48.8271 H         1 UNK         0.0600 
    217 H217       -8.1090  -22.6873  -47.7196 H         1 UNK         0.0600 
    218 H218       -7.4171  -24.2188  -47.2066 H         1 UNK         0.0600 
    219 H219       -8.7452  -24.1908  -48.3669 H         1 UNK         0.0600 
    220 H220       -8.1848  -24.4090  -51.1990 H         1 UNK         0.3000 
    221 H221       -9.3032  -22.0285  -52.2063 H         1 UNK         0.0600 
    222 H222       -8.8442  -24.7316  -53.5796 H         1 UNK         0.0600 
    223 H223      -10.2464  -24.2847  -52.6083 H         1 UNK         0.0600 
    224 H224       -9.9494  -23.4822  -54.1427 H         1 UNK         0.0600 
    225 H225       -6.1921  -23.5691  -53.0117 H         1 UNK         0.3000 
    226 H226       -5.6534  -21.4663  -55.0762 H         1 UNK         0.0600 
    227 H227       -5.6507  -23.8175  -55.9266 H         1 UNK         0.0600 
    228 H228       -4.0634  -23.0766  -56.0303 H         1 UNK         0.0600 
    229 H229       -4.4028  -24.2406  -54.7583 H         1 UNK         0.0600 
    230 H230       -5.3447  -21.4985  -51.9565 H         1 UNK         0.3000 
    231 H231       -2.4492  -21.1082  -51.6405 H         1 UNK         0.0600 
    232 H232       -4.7591  -20.7249  -49.6593 H         1 UNK         0.0600 
    233 H233       -3.8046  -22.1990  -49.8307 H         1 UNK         0.0600 
    234 H234       -3.0541  -20.7188  -49.2589 H         1 UNK         0.0600 
    235 H235       -1.7517  -19.1122  -50.4728 H         1 UNK         0.3000 
    236 H236       -1.3594  -16.9615  -50.2660 H         1 UNK         0.0600 
    237 H237       -4.3446  -16.4497  -50.6869 H         1 UNK         0.0600 
    238 H238       -3.6262  -16.9446  -49.1610 H         1 UNK         0.0600 
    239 H239       -3.1911  -15.4009  -49.8772 H         1 UNK         0.0600 
    240 H240       -0.5528  -17.8526  -52.6459 H         1 UNK         0.3000 
    241 H241       -1.5649  -16.4237  -54.8853 H         1 UNK         0.0600 
    242 H242        1.0807  -13.7829  -53.2805 H         1 UNK         0.3800 
    243 H243        0.6117  -15.2094  -52.3902 H         1 UNK         0.3800 
    244 H244        0.2939  -17.2784  -56.1558 H         1 UNK         0.0800 
    245 H245        1.2354  -17.6071  -54.7394 H         1 UNK         0.0800 
    246 H246        0.7601  -21.2900  -54.6728 H         1 UNK         0.0800 
    247 H247        1.8411  -19.9341  -54.8246 H         1 UNK         0.0800 
@<TRIPOS>BOND
     1    1    2 1    
     2    1  127 1    
     3    1  128 1    
     4    1  129 1    
     5    2    3 2    
     6    2    4 am   BACKBONE|DICT|INTERRES
     7    4    5 1    
     8    4  130 1    
     9    5    6 1    
    10    5   65 1    
    11    5  131 1    
    12    6    7 1    
    13    6  132 1    
    14    6  133 1    
    15    7    8 1    
    16    8    9 1    
    17    8  134 1    
    18    8  135 1    
    19    9   10 ar   
    20    9   14 ar   
    21   10   11 ar   
    22   10  136 1    
    23   11   12 ar   
    24   11  126 1    
    25   12   13 ar   
    26   12  137 1    
    27   13   14 ar   
    28   13   15 1    
    29   14  138 1    
    30   15   16 1    
    31   15  139 1    
    32   15  140 1    
    33   16   17 1    
    34   17   18 1    
    35   17  141 1    
    36   17  142 1    
    37   18   19 1    
    38   18   67 1    
    39   18  143 1    
    40   19   20 am   BACKBONE|DICT|INTERRES
    41   19  144 1    
    42   20   21 2    
    43   20   22 1    
    44   22   23 1    
    45   22   24 1    
    46   22  145 1    
    47   23  146 1    
    48   23  147 1    
    49   23  148 1    
    50   24   25 am   BACKBONE|DICT|INTERRES
    51   24  149 1    
    52   25   26 2    
    53   25   27 1    
    54   27   28 1    
    55   27   29 1    
    56   27  150 1    
    57   28  151 1    
    58   28  152 1    
    59   28  153 1    
    60   29   30 am   BACKBONE|DICT|INTERRES
    61   29  154 1    
    62   30   31 2    
    63   30   32 1    
    64   32   33 1    
    65   32   34 1    
    66   32  155 1    
    67   33  156 1    
    68   33  157 1    
    69   33  158 1    
    70   34   35 am   BACKBONE|DICT|INTERRES
    71   34  159 1    
    72   35   36 2    
    73   35   37 1    
    74   37   38 1    
    75   37   39 1    
    76   37  160 1    
    77   38  161 1    
    78   38  162 1    
    79   38  163 1    
    80   39   40 am   BACKBONE|DICT|INTERRES
    81   39  164 1    
    82   40   41 2    
    83   40   42 1    
    84   42   43 1    
    85   42   44 1    
    86   42  165 1    
    87   43  166 1    
    88   43  167 1    
    89   43  168 1    
    90   44   45 am   BACKBONE|DICT|INTERRES
    91   44  169 1    
    92   45   46 2    
    93   45   47 1    
    94   47   48 1    
    95   47   49 1    
    96   47  170 1    
    97   48  171 1    
    98   48  172 1    
    99   48  173 1    
   100   49   50 am   BACKBONE|DICT|INTERRES
   101   49  174 1    
   102   50   51 2    
   103   50   52 1    
   104   52   53 1    
   105   52   54 1    
   106   52  175 1    
   107   53  176 1    
   108   53  177 1    
   109   53  178 1    
   110   54   55 am   BACKBONE|DICT|INTERRES
   111   54  179 1    
   112   55   56 2    
   113   55   57 1    
   114   57   58 1    
   115   57   59 1    
   116   57  180 1    
   117   58  181 1    
   118   58  182 1    
   119   58  183 1    
   120   59   60 am   BACKBONE|DICT|INTERRES
   121   59  184 1    
   122   60   61 2    
   123   60   62 1    
   124   62   63 1    
   125   62   64 1    
   126   62  185 1    
   127   63  186 1    
   128   63  187 1    
   129   63  188 1    
   130   64   65 am   BACKBONE|DICT|INTERRES
   131   64  189 1    
   132   65   66 2    
   133   67   68 2    
   134   67   69 am   BACKBONE|DICT|INTERRES
   135   69   70 1    
   136   69  190 1    
   137   70   71 1    
   138   70   72 1    
   139   70  191 1    
   140   71  192 1    
   141   71  193 1    
   142   71  194 1    
   143   72   73 2    
   144   72   74 am   BACKBONE|DICT|INTERRES
   145   74   75 1    
   146   74  195 1    
   147   75   76 1    
   148   75   77 1    
   149   75  196 1    
   150   76  197 1    
   151   76  198 1    
   152   76  199 1    
   153   77   78 2    
   154   77   79 am   BACKBONE|DICT|INTERRES
   155   79   80 1    
   156   79  200 1    
   157   80   81 1    
   158   80   82 1    
   159   80  201 1    
   160   81  202 1    
   161   81  203 1    
   162   81  204 1    
   163   82   83 2    
   164   82   84 am   BACKBONE|DICT|INTERRES
   165   84   85 1    
   166   84  205 1    
   167   85   86 1    
   168   85   87 1    
   169   85  206 1    
   170   86  207 1    
   171   86  208 1    
   172   86  209 1    
   173   87   88 2    
   174   87   89 am   BACKBONE|DICT|INTERRES
   175   89   90 1    
   176   89  210 1    
   177   90   91 1    
   178   90   92 1    
   179   90  211 1    
   180   91  212 1    
   181   91  213 1    
   182   91  214 1    
   183   92   93 2    
   184   92   94 am   BACKBONE|DICT|INTERRES
   185   94   95 1    
   186   94  215 1    
   187   95   96 1    
   188   95   97 1    
   189   95  216 1    
   190   96  217 1    
   191   96  218 1    
   192   96  219 1    
   193   97   98 2    
   194   97   99 am   BACKBONE|DICT|INTERRES
   195   99  100 1    
   196   99  220 1    
   197  100  101 1    
   198  100  102 1    
   199  100  221 1    
   200  101  222 1    
   201  101  223 1    
   202  101  224 1    
   203  102  103 2    
   204  102  104 am   BACKBONE|DICT|INTERRES
   205  104  105 1    
   206  104  225 1    
   207  105  106 1    
   208  105  107 1    
   209  105  226 1    
   210  106  227 1    
   211  106  228 1    
   212  106  229 1    
   213  107  108 2    
   214  107  109 am   BACKBONE|DICT|INTERRES
   215  109  110 1    
   216  109  230 1    
   217  110  111 1    
   218  110  112 1    
   219  110  231 1    
   220  111  232 1    
   221  111  233 1    
   222  111  234 1    
   223  112  113 2    
   224  112  114 am   BACKBONE|DICT|INTERRES
   225  114  115 1    
   226  114  235 1    
   227  115  116 1    
   228  115  117 1    
   229  115  236 1    
   230  116  237 1    
   231  116  238 1    
   232  116  239 1    
   233  117  118 2    
   234  117  119 am   BACKBONE|DICT|INTERRES
   235  119  120 1    
   236  119  240 1    
   237  120  121 1    
   238  120  124 1    
   239  120  241 1    
   240  121  122 am   BACKBONE|DICT|INTERRES
   241  121  123 2    
   242  122  242 1    
   243  122  243 1    
   244  124  125 1    
   245  124  244 1    
   246  124  245 1    
   247  125  126 1    
   248  126  246 1    
   249  126  247 1    
@<TRIPOS>SUBSTRUCTURE
     1 UNK         1 GROUP             0       ****    0 ROOT    
