@<TRIPOS>MOLECULE
3R540
247   249    1
SMALL
USER_CHARGES


@<TRIPOS>ATOM
      1 CA         -1.8698  -11.8066  -47.8005 C.3       0 UNK        -0.1800 
      2 C          -0.7310  -12.8089  -47.9234 C.2       0 UNK         0.5000 
      3 O           0.4081  -12.4894  -47.5798 O.2       0 UNK        -0.5000 
      4 N          -1.0306  -14.0195  -48.4100 N.am      1 UNK        -0.5000 
      5 CA         -0.0843  -15.1278  -48.5741 C.3       1 UNK         0.1400 
      6 C6         -0.5290  -16.1059  -49.6887 C.3       23 UNK        -0.0398 
      7 S7         -0.3457  -15.3733  -51.3497 S.3       23 UNK        -0.2404 
      8 C8          1.3695  -15.8315  -51.7751 C.3       23 UNK        -0.0205 
      9 C9          1.5117  -17.3194  -52.0622 C.ar      23 UNK        -0.0193 
     10 C10         1.1165  -17.8311  -53.2999 C.ar      23 UNK        -0.1150 
     11 C11         1.2251  -19.1972  -53.5683 C.ar      23 UNK        -0.0193 
     12 C12         1.7070  -20.0545  -52.5753 C.ar      23 UNK        -0.1150 
     13 C13         2.1094  -19.5634  -51.3286 C.ar      23 UNK        -0.0193 
     14 C14         2.0389  -18.1825  -51.0961 C.ar      23 UNK        -0.1150 
     15 C15         2.6015  -20.5788  -50.2917 C.3       23 UNK        -0.0205 
     16 S16         3.1889  -19.9368  -48.6816 S.3       23 UNK        -0.2404 
     17 C17         1.6779  -19.3005  -47.8809 C.3       23 UNK        -0.0398 
     18 CA          0.7269  -20.3899  -47.3227 C.3       11 UNK         0.1400 
     19 N           0.3184  -20.1201  -45.9404 N.am      11 UNK        -0.5000 
     20 C          -0.2528  -21.0309  -45.1394 C.2       10 UNK         0.5000 
     21 O          -0.4408  -22.2023  -45.4661 O.2       10 UNK        -0.5000 
     22 CA         -0.7408  -20.5469  -43.7622 C.3       10 UNK         0.1400 
     23 CB          0.3437  -20.7309  -42.6981 C.3       10 UNK        -0.1800 
     24 N          -1.1904  -19.1532  -43.7597 N.am      10 UNK        -0.5000 
     25 C          -2.3011  -18.7358  -44.3847 C.2       9 UNK         0.5000 
     26 O          -2.9987  -19.4819  -45.0709 O.2       9 UNK        -0.5000 
     27 CA         -2.7071  -17.2629  -44.2137 C.3       9 UNK         0.1400 
     28 CB         -4.2329  -17.0847  -44.1096 C.3       9 UNK        -0.1800 
     29 N          -2.0635  -16.6644  -43.0436 N.am      9 UNK        -0.5000 
     30 C          -1.5800  -15.4198  -43.0036 C.2       8 UNK         0.5000 
     31 O          -1.6785  -14.6221  -43.9360 O.2       8 UNK        -0.5000 
     32 CA         -0.8617  -14.9727  -41.7166 C.3       8 UNK         0.1400 
     33 CB         -1.7826  -14.0627  -40.8888 C.3       8 UNK        -0.1800 
     34 N          -0.3480  -16.0294  -40.8390 N.am      8 UNK        -0.5000 
     35 C           0.5389  -16.9950  -41.1260 C.2       7 UNK         0.5000 
     36 O           0.8992  -17.3002  -42.2669 O.2       7 UNK        -0.5000 
     37 CA          1.1450  -17.6914  -39.8925 C.3       7 UNK         0.1400 
     38 CB          2.3306  -18.6152  -40.2225 C.3       7 UNK        -0.1800 
     39 N           1.5977  -16.6533  -38.9672 N.am      7 UNK        -0.5000 
     40 C           1.2698  -16.5461  -37.6730 C.2       6 UNK         0.5000 
     41 O           0.5698  -17.3709  -37.0838 O.2       6 UNK        -0.5000 
     42 CA          1.7568  -15.2848  -36.9194 C.3       6 UNK         0.1400 
     43 CB          2.1711  -15.5858  -35.4633 C.3       6 UNK        -0.1800 
     44 N           2.7937  -14.5213  -37.6299 N.am      6 UNK        -0.5000 
     45 C           4.0523  -14.9054  -37.8825 C.2       5 UNK         0.5000 
     46 O           4.5597  -15.9496  -37.4672 O.2       5 UNK        -0.5000 
     47 CA          4.8740  -13.9766  -38.7980 C.3       5 UNK         0.1400 
     48 CB          5.9401  -13.2174  -37.9936 C.3       5 UNK        -0.1800 
     49 N           5.5229  -14.7396  -39.8653 N.am      5 UNK        -0.5000 
     50 C           4.8661  -15.4468  -40.7936 C.2       4 UNK         0.5000 
     51 O           3.6386  -15.4109  -40.9370 O.2       4 UNK        -0.5000 
     52 CA          5.7169  -16.3743  -41.6767 C.3       4 UNK         0.1400 
     53 CB          6.4017  -17.4612  -40.8192 C.3       4 UNK        -0.1800 
     54 N           4.8377  -16.9887  -42.6650 N.am      4 UNK        -0.5000 
     55 C           5.1936  -17.7533  -43.7036 C.2       3 UNK         0.5000 
     56 O           6.3609  -17.9925  -44.0140 O.2       3 UNK        -0.5000 
     57 CA          4.0479  -18.3610  -44.5336 C.3       3 UNK         0.1400 
     58 CB          3.7106  -19.7676  -44.0203 C.3       3 UNK        -0.1800 
     59 N           2.8467  -17.5199  -44.5025 N.am      3 UNK        -0.5000 
     60 C           2.6635  -16.4918  -45.3381 C.2       2 UNK         0.5000 
     61 O           3.4345  -16.2086  -46.2585 O.2       2 UNK        -0.5000 
     62 CA          1.4308  -15.6128  -45.0873 C.3       2 UNK         0.1400 
     63 CB          1.8189  -14.4137  -44.2086 C.3       2 UNK        -0.1800 
     64 N           0.8911  -15.1153  -46.3460 N.am      2 UNK        -0.5000 
     65 C           0.1736  -15.8265  -47.2213 C.2       1 UNK         0.5000 
     66 O          -0.2666  -16.9580  -46.9946 O.2       1 UNK        -0.5000 
     67 C          -0.5149  -20.5698  -48.2211 C.2       11 UNK         0.5000 
     68 O          -0.5549  -21.5014  -49.0221 O.2       11 UNK        -0.5000 
     69 N          -1.5286  -19.7096  -48.0302 N.am      12 UNK        -0.5000 
     70 CA         -2.8304  -19.8083  -48.6942 C.3       12 UNK         0.1400 
     71 CB         -3.6901  -18.5801  -48.3581 C.3       12 UNK        -0.1800 
     72 C          -3.5736  -21.1076  -48.3340 C.2       12 UNK         0.5000 
     73 O          -4.1155  -21.7607  -49.2239 O.2       12 UNK        -0.5000 
     74 N          -3.5480  -21.4847  -47.0477 N.am      13 UNK        -0.5000 
     75 CA         -4.0955  -22.7433  -46.5408 C.3       13 UNK         0.1400 
     76 CB         -3.9985  -22.7786  -45.0087 C.3       13 UNK        -0.1800 
     77 C          -3.4179  -23.9748  -47.1698 C.2       13 UNK         0.5000 
     78 O          -4.1174  -24.8747  -47.6396 O.2       13 UNK        -0.5000 
     79 N          -2.0763  -23.9606  -47.2143 N.am      14 UNK        -0.5000 
     80 CA         -1.2450  -24.9811  -47.8576 C.3       14 UNK         0.1400 
     81 CB          0.2366  -24.7027  -47.5635 C.3       14 UNK        -0.1800 
     82 C          -1.4880  -25.0945  -49.3744 C.2       14 UNK         0.5000 
     83 O          -1.4739  -26.2048  -49.9077 O.2       14 UNK        -0.5000 
     84 N          -1.7715  -23.9635  -50.0342 N.am      15 UNK        -0.5000 
     85 CA         -2.1877  -23.8559  -51.4345 C.3       15 UNK         0.1400 
     86 CB         -1.9201  -22.4241  -51.9267 C.3       15 UNK        -0.1800 
     87 C          -3.6546  -24.2921  -51.6579 C.2       15 UNK         0.5000 
     88 O          -4.4348  -23.5607  -52.2726 O.2       15 UNK        -0.5000 
     89 N          -3.9921  -25.4865  -51.1499 N.am      16 UNK        -0.5000 
     90 CA         -5.2679  -26.1971  -51.2605 C.3       16 UNK         0.1400 
     91 CB         -5.4016  -26.8099  -52.6689 C.3       16 UNK        -0.1800 
     92 C          -6.4875  -25.3529  -50.8350 C.2       16 UNK         0.5000 
     93 O          -7.4945  -25.3226  -51.5449 O.2       16 UNK        -0.5000 
     94 N          -6.3613  -24.6844  -49.6778 N.am      17 UNK        -0.5000 
     95 CA         -7.3507  -23.7879  -49.0704 C.3       17 UNK         0.1400 
     96 CB         -8.5898  -24.5777  -48.5983 C.3       17 UNK        -0.1800 
     97 C          -7.6970  -22.5892  -49.9789 C.2       17 UNK         0.5000 
     98 O          -8.8699  -22.3442  -50.2683 O.2       17 UNK        -0.5000 
     99 N          -6.6487  -21.8698  -50.4022 N.am      18 UNK        -0.5000 
    100 CA        -6.6564  -20.6875  -51.2648 C.3       18 UNK         0.1400 
    101 CB        -7.3201  -19.4944  -50.5458 C.3       18 UNK        -0.1800 
    102 C         -7.2567  -20.9756  -52.6542 C.2       18 UNK         0.5000 
    103 O         -8.1876  -20.2908  -53.0858 O.2       18 UNK        -0.5000 
    104 N         -6.7153  -22.0000  -53.3265 N.am      19 UNK        -0.5000 
    105 CA        -7.0844  -22.3821  -54.6894 C.3       19 UNK         0.1400 
    106 CB        -6.4253  -23.7266  -55.0258 C.3       19 UNK        -0.1800 
    107 C         -6.6951  -21.3139  -55.7293 C.2       19 UNK         0.5000 
    108 O         -5.7900  -20.5091  -55.4898 O.2       19 UNK        -0.5000 
    109 N         -7.3616  -21.3553  -56.8910 N.am      20 UNK        -0.5000 
    110 CA        -7.2282  -20.4017  -58.0010 C.3       20 UNK         0.1400 
    111 CB        -8.2490  -20.7685  -59.0897 C.3       20 UNK        -0.1800 
    112 C         -5.8139  -20.2830  -58.6085 C.2       20 UNK         0.5000 
    113 O         -5.5281  -19.2908  -59.2796 O.2       20 UNK        -0.5000 
    114 N         -4.9522  -21.2763  -58.3514 N.am      21 UNK        -0.5000 
    115 CA        -3.5306  -21.2664  -58.6958 C.3       21 UNK         0.1400 
    116 CB        -2.9522  -22.6692  -58.4531 C.3       21 UNK        -0.1800 
    117 C         -2.7178  -20.2100  -57.9178 C.2       21 UNK         0.5000 
    118 O         -1.7042  -19.7400  -58.4373 O.2       21 UNK        -0.5000 
    119 N         -3.1687  -19.8593  -56.7052 N.am      22 UNK        -0.5000 
    120 CA        -2.5373  -18.8616  -55.8251 C.3       22 UNK         0.1400 
    121 C         -3.4920  -17.6956  -55.4504 C.2       22 UNK         0.5000 
    122 N         -4.8039  -17.8919  -55.4069 N.am      22 UNK        -0.7600 
    123 O         -3.0331  -16.5831  -55.2081 O.2       22 UNK        -0.5000 
    124 C124       -1.9480  -19.5031  -54.5433 C.3       23 UNK        -0.0398 
    125 S125       -0.6664  -20.7548  -54.8970 S.3       23 UNK        -0.2404 
    126 C126        0.8453  -19.7436  -54.9373 C.3       23 UNK        -0.0205 
    127 H127       -2.8137  -12.2191  -48.1579 H         1 UNK         0.0600 
    128 H128       -1.9994  -11.5138  -46.7585 H         1 UNK         0.0600 
    129 H129       -1.6472  -10.9124  -48.3826 H         1 UNK         0.0600 
    130 H130       -1.9866  -14.2229  -48.6635 H         1 UNK         0.3000 
    131 H131        0.8789  -14.7142  -48.8818 H         1 UNK         0.0600 
    132 H132        0.0332  -17.0357  -49.6557 H         1 UNK         0.0800 
    133 H133       -1.5718  -16.3888  -49.5541 H         1 UNK         0.0800 
    134 H134        2.0422  -15.5257  -50.9725 H         1 UNK         0.0800 
    135 H135        1.6744  -15.2647  -52.6560 H         1 UNK         0.0800 
    136 H136        0.7257  -17.1621  -54.0540 H         1 UNK         0.1150 
    137 H137        1.7705  -21.1146  -52.7789 H         1 UNK         0.1150 
    138 H138        2.3772  -17.7634  -50.1615 H         1 UNK         0.1150 
    139 H139        1.8162  -21.3132  -50.1134 H         1 UNK         0.0800 
    140 H140        3.4295  -21.1331  -50.7359 H         1 UNK         0.0800 
    141 H141        1.1611  -18.6182  -48.5498 H         1 UNK         0.0800 
    142 H142        2.0339  -18.6693  -47.0690 H         1 UNK         0.0800 
    143 H143        1.2597  -21.3434  -47.3140 H         1 UNK         0.0600 
    144 H144        0.3908  -19.1660  -45.6195 H         1 UNK         0.3000 
    145 H145       -1.5884  -21.1750  -43.4810 H         1 UNK         0.0600 
    146 H146       -0.0513  -20.5449  -41.6994 H         1 UNK         0.0600 
    147 H147        0.7442  -21.7455  -42.7082 H         1 UNK         0.0600 
    148 H148        1.1692  -20.0442  -42.8664 H         1 UNK         0.0600 
    149 H149       -0.6200  -18.4858  -43.2555 H         1 UNK         0.3000 
    150 H150       -2.3658  -16.7608  -45.1214 H         1 UNK         0.0600 
    151 H151       -4.7387  -17.4776  -44.9925 H         1 UNK         0.0600 
    152 H152       -4.5013  -16.0313  -44.0283 H         1 UNK         0.0600 
    153 H153       -4.6372  -17.6024  -43.2392 H         1 UNK         0.0600 
    154 H154       -1.9711  -17.2489  -42.2250 H         1 UNK         0.3000 
    155 H155       -0.0017  -14.3775  -42.0232 H         1 UNK         0.0600 
    156 H156       -2.6453  -14.6085  -40.5046 H         1 UNK         0.0600 
    157 H157       -2.1600  -13.2334  -41.4889 H         1 UNK         0.0600 
    158 H158       -1.2528  -13.6293  -40.0403 H         1 UNK         0.0600 
    159 H159       -0.5738  -15.9099  -39.8625 H         1 UNK         0.3000 
    160 H160        0.3532  -18.2932  -39.4424 H         1 UNK         0.0600 
    161 H161        2.7863  -19.0069  -39.3131 H         1 UNK         0.0600 
    162 H162        3.1064  -18.0963  -40.7824 H         1 UNK         0.0600 
    163 H163        2.0127  -19.4716  -40.8124 H         1 UNK         0.0600 
    164 H164        2.1775  -15.9347  -39.3860 H         1 UNK         0.3000 
    165 H165        0.8903  -14.6237  -36.8737 H         1 UNK         0.0600 
    166 H166        2.5144  -14.6844  -34.9556 H         1 UNK         0.0600 
    167 H167        1.3291  -15.9769  -34.8912 H         1 UNK         0.0600 
    168 H168        2.9686  -16.3270  -35.4102 H         1 UNK         0.0600 
    169 H169        2.4793  -13.6450  -38.0241 H         1 UNK         0.3000 
    170 H170        4.2075  -13.2471  -39.2633 H         1 UNK         0.0600 
    171 H171        5.4812  -12.6239  -37.2019 H         1 UNK         0.0600 
    172 H172        6.6507  -13.8983  -37.5233 H         1 UNK         0.0600 
    173 H173        6.5011  -12.5322  -38.6293 H         1 UNK         0.0600 
    174 H174        6.5244  -14.8421  -39.7927 H         1 UNK         0.3000 
    175 H175        6.4678  -15.7727  -42.1920 H         1 UNK         0.0600 
    176 H176        5.6689  -18.0763  -40.2953 H         1 UNK         0.0600 
    177 H177        7.0206  -18.1238  -41.4234 H         1 UNK         0.0600 
    178 H178        7.0570  -17.0223  -40.0665 H         1 UNK         0.0600 
    179 H179        3.8583  -16.7897  -42.5016 H         1 UNK         0.3000 
    180 H180        4.3968  -18.4630  -45.5638 H         1 UNK         0.0600 
    181 H181        3.4286  -19.7541  -42.9676 H         1 UNK         0.0600 
    182 H182        4.5725  -20.4292  -44.1145 H         1 UNK         0.0600 
    183 H183        2.8986  -20.2152  -44.5926 H         1 UNK         0.0600 
    184 H184        2.1958  -17.6541  -43.7340 H         1 UNK         0.3000 
    185 H185        0.6609  -16.2028  -44.5911 H         1 UNK         0.0600 
    186 H186        2.1327  -14.7427  -43.2173 H         1 UNK         0.0600 
    187 H187        2.6442  -13.8471  -44.6420 H         1 UNK         0.0600 
    188 H188        0.9822  -13.7275  -44.0808 H         1 UNK         0.0600 
    189 H189        1.1610  -14.1758  -46.6145 H         1 UNK         0.3000 
    190 H190       -1.4133  -18.9633  -47.3575 H         1 UNK         0.3000 
    191 H191       -2.6512  -19.8114  -49.7712 H         1 UNK         0.0600 
    192 H192       -3.9601  -18.5450  -47.3033 H         1 UNK         0.0600 
    193 H193       -4.6180  -18.5913  -48.9301 H         1 UNK         0.0600 
    194 H194       -3.1752  -17.6523  -48.5977 H         1 UNK         0.0600 
    195 H195       -3.1460  -20.8498  -46.3627 H         1 UNK         0.3000 
    196 H196       -5.1525  -22.7685  -46.8063 H         1 UNK         0.0600 
    197 H197       -4.4697  -23.6780  -44.6106 H         1 UNK         0.0600 
    198 H198       -4.5018  -21.9213  -44.5610 H         1 UNK         0.0600 
    199 H199       -2.9639  -22.7748  -44.6681 H         1 UNK         0.0600 
    200 H200       -1.5810  -23.1926  -46.7718 H         1 UNK         0.3000 
    201 H201       -1.5039  -25.9434  -47.4115 H         1 UNK         0.0600 
    202 H202        0.4321  -24.7011  -46.4910 H         1 UNK         0.0600 
    203 H203        0.5530  -23.7388  -47.9623 H         1 UNK         0.0600 
    204 H204        0.8739  -25.4674  -48.0090 H         1 UNK         0.0600 
    205 H205       -1.7163  -23.0884  -49.5234 H         1 UNK         0.3000 
    206 H206       -1.5658  -24.5275  -52.0294 H         1 UNK         0.0600 
    207 H207       -2.1892  -22.3237  -52.9778 H         1 UNK         0.0600 
    208 H208       -2.5010  -21.6896  -51.3704 H         1 UNK         0.0600 
    209 H209       -0.8666  -22.1600  -51.8324 H         1 UNK         0.0600 
    210 H210       -3.2596  -25.9804  -50.6491 H         1 UNK         0.3000 
    211 H211       -5.2200  -27.0237  -50.5502 H         1 UNK         0.0600 
    212 H212       -5.3723  -26.0466  -53.4447 H         1 UNK         0.0600 
    213 H213       -6.3367  -27.3607  -52.7775 H         1 UNK         0.0600 
    214 H214       -4.5910  -27.5111  -52.8669 H         1 UNK         0.0600 
    215 H215       -5.4861  -24.7726  -49.1702 H         1 UNK         0.3000 
    216 H216       -6.8807  -23.3682  -48.1819 H         1 UNK         0.0600 
    217 H217       -9.2767  -23.9318  -48.0503 H         1 UNK         0.0600 
    218 H218       -8.3068  -25.3907  -47.9298 H         1 UNK         0.0600 
    219 H219       -9.1433  -25.0074  -49.4336 H         1 UNK         0.0600 
    220 H220       -5.7206  -22.1468  -50.0889 H         1 UNK         0.3000 
    221 H221       -5.6096  -20.4282  -51.4312 H         1 UNK         0.0600 
    222 H222       -8.3866  -19.6571  -50.3873 H         1 UNK         0.0600 
    223 H223       -6.8625  -19.3156  -49.5733 H         1 UNK         0.0600 
    224 H224       -7.2123  -18.5799  -51.1301 H         1 UNK         0.0600 
    225 H225       -5.9462  -22.5155  -52.9048 H         1 UNK         0.3000 
    226 H226       -8.1685  -22.5091  -54.7210 H         1 UNK         0.0600 
    227 H227       -6.6632  -24.0463  -56.0409 H         1 UNK         0.0600 
    228 H228       -5.3389  -23.6767  -54.9402 H         1 UNK         0.0600 
    229 H229       -6.7836  -24.5044  -54.3525 H         1 UNK         0.0600 
    230 H230       -8.0682  -22.0668  -57.0115 H         1 UNK         0.3000 
    231 H231       -7.4864  -19.4150  -57.6112 H         1 UNK         0.0600 
    232 H232       -9.2671  -20.7490  -58.7003 H         1 UNK         0.0600 
    233 H233       -8.0621  -21.7634  -59.4958 H         1 UNK         0.0600 
    234 H234       -8.2087  -20.0622  -59.9202 H         1 UNK         0.0600 
    235 H235       -5.2790  -22.0542  -57.7984 H         1 UNK         0.3000 
    236 H236       -3.4408  -21.0366  -59.7596 H         1 UNK         0.0600 
    237 H237       -1.8966  -22.7085  -58.7255 H         1 UNK         0.0600 
    238 H238       -3.0307  -22.9602  -57.4045 H         1 UNK         0.0600 
    239 H239       -3.4695  -23.4196  -59.0512 H         1 UNK         0.0600 
    240 H240       -4.0306  -20.2687  -56.3624 H         1 UNK         0.3000 
    241 H241       -1.7086  -18.3880  -56.3544 H         1 UNK         0.0600 
    242 H242       -5.2017  -18.8222  -55.5166 H         1 UNK         0.3800 
    243 H243       -5.4069  -17.1198  -55.1733 H         1 UNK         0.3800 
    244 H244       -1.5304  -18.7417  -53.8831 H         1 UNK         0.0800 
    245 H245       -2.7407  -19.9895  -53.9723 H         1 UNK         0.0800 
    246 H246        1.6652  -20.3578  -55.3120 H         1 UNK         0.0800 
    247 H247        0.7184  -18.9356  -55.6595 H         1 UNK         0.0800 
@<TRIPOS>BOND
     1    1    2 1    
     2    1  127 1    
     3    1  128 1    
     4    1  129 1    
     5    2    3 2    
     6    2    4 am   BACKBONE|DICT|INTERRES
     7    4    5 1    
     8    4  130 1    
     9    5    6 1    
    10    5   65 1    
    11    5  131 1    
    12    6    7 1    
    13    6  132 1    
    14    6  133 1    
    15    7    8 1    
    16    8    9 1    
    17    8  134 1    
    18    8  135 1    
    19    9   10 ar   
    20    9   14 ar   
    21   10   11 ar   
    22   10  136 1    
    23   11   12 ar   
    24   11  126 1    
    25   12   13 ar   
    26   12  137 1    
    27   13   14 ar   
    28   13   15 1    
    29   14  138 1    
    30   15   16 1    
    31   15  139 1    
    32   15  140 1    
    33   16   17 1    
    34   17   18 1    
    35   17  141 1    
    36   17  142 1    
    37   18   19 1    
    38   18   67 1    
    39   18  143 1    
    40   19   20 am   BACKBONE|DICT|INTERRES
    41   19  144 1    
    42   20   21 2    
    43   20   22 1    
    44   22   23 1    
    45   22   24 1    
    46   22  145 1    
    47   23  146 1    
    48   23  147 1    
    49   23  148 1    
    50   24   25 am   BACKBONE|DICT|INTERRES
    51   24  149 1    
    52   25   26 2    
    53   25   27 1    
    54   27   28 1    
    55   27   29 1    
    56   27  150 1    
    57   28  151 1    
    58   28  152 1    
    59   28  153 1    
    60   29   30 am   BACKBONE|DICT|INTERRES
    61   29  154 1    
    62   30   31 2    
    63   30   32 1    
    64   32   33 1    
    65   32   34 1    
    66   32  155 1    
    67   33  156 1    
    68   33  157 1    
    69   33  158 1    
    70   34   35 am   BACKBONE|DICT|INTERRES
    71   34  159 1    
    72   35   36 2    
    73   35   37 1    
    74   37   38 1    
    75   37   39 1    
    76   37  160 1    
    77   38  161 1    
    78   38  162 1    
    79   38  163 1    
    80   39   40 am   BACKBONE|DICT|INTERRES
    81   39  164 1    
    82   40   41 2    
    83   40   42 1    
    84   42   43 1    
    85   42   44 1    
    86   42  165 1    
    87   43  166 1    
    88   43  167 1    
    89   43  168 1    
    90   44   45 am   BACKBONE|DICT|INTERRES
    91   44  169 1    
    92   45   46 2    
    93   45   47 1    
    94   47   48 1    
    95   47   49 1    
    96   47  170 1    
    97   48  171 1    
    98   48  172 1    
    99   48  173 1    
   100   49   50 am   BACKBONE|DICT|INTERRES
   101   49  174 1    
   102   50   51 2    
   103   50   52 1    
   104   52   53 1    
   105   52   54 1    
   106   52  175 1    
   107   53  176 1    
   108   53  177 1    
   109   53  178 1    
   110   54   55 am   BACKBONE|DICT|INTERRES
   111   54  179 1    
   112   55   56 2    
   113   55   57 1    
   114   57   58 1    
   115   57   59 1    
   116   57  180 1    
   117   58  181 1    
   118   58  182 1    
   119   58  183 1    
   120   59   60 am   BACKBONE|DICT|INTERRES
   121   59  184 1    
   122   60   61 2    
   123   60   62 1    
   124   62   63 1    
   125   62   64 1    
   126   62  185 1    
   127   63  186 1    
   128   63  187 1    
   129   63  188 1    
   130   64   65 am   BACKBONE|DICT|INTERRES
   131   64  189 1    
   132   65   66 2    
   133   67   68 2    
   134   67   69 am   BACKBONE|DICT|INTERRES
   135   69   70 1    
   136   69  190 1    
   137   70   71 1    
   138   70   72 1    
   139   70  191 1    
   140   71  192 1    
   141   71  193 1    
   142   71  194 1    
   143   72   73 2    
   144   72   74 am   BACKBONE|DICT|INTERRES
   145   74   75 1    
   146   74  195 1    
   147   75   76 1    
   148   75   77 1    
   149   75  196 1    
   150   76  197 1    
   151   76  198 1    
   152   76  199 1    
   153   77   78 2    
   154   77   79 am   BACKBONE|DICT|INTERRES
   155   79   80 1    
   156   79  200 1    
   157   80   81 1    
   158   80   82 1    
   159   80  201 1    
   160   81  202 1    
   161   81  203 1    
   162   81  204 1    
   163   82   83 2    
   164   82   84 am   BACKBONE|DICT|INTERRES
   165   84   85 1    
   166   84  205 1    
   167   85   86 1    
   168   85   87 1    
   169   85  206 1    
   170   86  207 1    
   171   86  208 1    
   172   86  209 1    
   173   87   88 2    
   174   87   89 am   BACKBONE|DICT|INTERRES
   175   89   90 1    
   176   89  210 1    
   177   90   91 1    
   178   90   92 1    
   179   90  211 1    
   180   91  212 1    
   181   91  213 1    
   182   91  214 1    
   183   92   93 2    
   184   92   94 am   BACKBONE|DICT|INTERRES
   185   94   95 1    
   186   94  215 1    
   187   95   96 1    
   188   95   97 1    
   189   95  216 1    
   190   96  217 1    
   191   96  218 1    
   192   96  219 1    
   193   97   98 2    
   194   97   99 am   BACKBONE|DICT|INTERRES
   195   99  100 1    
   196   99  220 1    
   197  100  101 1    
   198  100  102 1    
   199  100  221 1    
   200  101  222 1    
   201  101  223 1    
   202  101  224 1    
   203  102  103 2    
   204  102  104 am   BACKBONE|DICT|INTERRES
   205  104  105 1    
   206  104  225 1    
   207  105  106 1    
   208  105  107 1    
   209  105  226 1    
   210  106  227 1    
   211  106  228 1    
   212  106  229 1    
   213  107  108 2    
   214  107  109 am   BACKBONE|DICT|INTERRES
   215  109  110 1    
   216  109  230 1    
   217  110  111 1    
   218  110  112 1    
   219  110  231 1    
   220  111  232 1    
   221  111  233 1    
   222  111  234 1    
   223  112  113 2    
   224  112  114 am   BACKBONE|DICT|INTERRES
   225  114  115 1    
   226  114  235 1    
   227  115  116 1    
   228  115  117 1    
   229  115  236 1    
   230  116  237 1    
   231  116  238 1    
   232  116  239 1    
   233  117  118 2    
   234  117  119 am   BACKBONE|DICT|INTERRES
   235  119  120 1    
   236  119  240 1    
   237  120  121 1    
   238  120  124 1    
   239  120  241 1    
   240  121  122 am   BACKBONE|DICT|INTERRES
   241  121  123 2    
   242  122  242 1    
   243  122  243 1    
   244  124  125 1    
   245  124  244 1    
   246  124  245 1    
   247  125  126 1    
   248  126  246 1    
   249  126  247 1    
@<TRIPOS>SUBSTRUCTURE
     1 UNK         1 GROUP             0       ****    0 ROOT    
