@<TRIPOS>MOLECULE
3R540
247   249    1
SMALL
USER_CHARGES


@<TRIPOS>ATOM
      1 CA         -6.1434  -14.3841  -50.4930 C.3       0 UNK        -0.1800 
      2 C          -4.7235  -14.3121  -49.9490 C.2       0 UNK         0.5000 
      3 O          -3.7659  -14.3174  -50.7221 O.2       0 UNK        -0.5000 
      4 N          -4.5817  -14.2277  -48.6204 N.am      1 UNK        -0.5000 
      5 CA         -3.3047  -14.1922  -47.8990 C.3       1 UNK         0.1400 
      6 C6         -3.4555  -14.6509  -46.4260 C.3       23 UNK        -0.0398 
      7 S7         -3.8050  -16.4335  -46.3212 S.3       23 UNK        -0.2404 
      8 C8         -5.6018  -16.4716  -46.0601 C.3       23 UNK        -0.0205 
      9 C9         -6.1948  -17.6692  -46.7793 C.ar      23 UNK        -0.0193 
     10 C10        -6.7004  -17.5272  -48.0749 C.ar      23 UNK        -0.1150 
     11 C11        -7.1838  -18.6370  -48.7722 C.ar      23 UNK        -0.0193 
     12 C12        -7.1832  -19.8890  -48.1541 C.ar      23 UNK        -0.1150 
     13 C13        -6.6769  -20.0432  -46.8605 C.ar      23 UNK        -0.0193 
     14 C14        -6.1886  -18.9289  -46.1734 C.ar      23 UNK        -0.1150 
     15 C15        -6.6353  -21.4236  -46.2285 C.3       23 UNK        -0.0205 
     16 S16        -5.4157  -22.4855  -47.0606 S.3       23 UNK        -0.2404 
     17 C17        -3.8399  -21.8920  -46.3522 C.3       23 UNK        -0.0398 
     18 CA         -2.7767  -23.0163  -46.3526 C.3       11 UNK         0.1400 
     19 N          -1.4047  -22.5162  -46.2155 N.am      11 UNK        -0.5000 
     20 C          -0.3159  -23.2724  -46.4192 C.2       10 UNK         0.5000 
     21 O          -0.3712  -24.4321  -46.8181 O.2       10 UNK        -0.5000 
     22 CA          1.0592  -22.6714  -46.0900 C.3       10 UNK         0.1400 
     23 CB          1.6134  -21.8931  -47.2860 C.3       10 UNK        -0.1800 
     24 N           1.0330  -21.8159  -44.9078 N.am      10 UNK        -0.5000 
     25 C           0.7845  -22.2501  -43.6654 C.2       9 UNK         0.5000 
     26 O           0.6120  -23.4351  -43.3819 O.2       9 UNK        -0.5000 
     27 CA          0.6468  -21.1756  -42.5712 C.3       9 UNK         0.1400 
     28 CB          2.0248  -20.7176  -42.0716 C.3       9 UNK        -0.1800 
     29 N          -0.1180  -20.0139  -43.0260 N.am      9 UNK        -0.5000 
     30 C          -1.4023  -20.0473  -43.4093 C.2       8 UNK         0.5000 
     31 O          -2.1066  -21.0573  -43.3665 O.2       8 UNK        -0.5000 
     32 CA         -1.9716  -18.7472  -44.0010 C.3       8 UNK         0.1400 
     33 CB         -2.3765  -17.7592  -42.8966 C.3       8 UNK        -0.1800 
     34 N          -1.0221  -18.1106  -44.9151 N.am      8 UNK        -0.5000 
     35 C          -0.7159  -18.5949  -46.1265 C.2       7 UNK         0.5000 
     36 O          -1.2026  -19.6271  -46.5844 O.2       7 UNK        -0.5000 
     37 CA          0.3391  -17.8255  -46.9436 C.3       7 UNK         0.1400 
     38 CB         -0.3085  -16.6589  -47.7028 C.3       7 UNK        -0.1800 
     39 N           1.4474  -17.3233  -46.1295 N.am      7 UNK        -0.5000 
     40 C           2.2969  -18.0972  -45.4417 C.2       6 UNK         0.5000 
     41 O           2.2619  -19.3256  -45.4517 O.2       6 UNK        -0.5000 
     42 CA          3.3184  -17.3828  -44.5393 C.3       6 UNK         0.1400 
     43 CB          4.5392  -16.9232  -45.3502 C.3       6 UNK        -0.1800 
     44 N           2.7578  -16.2478  -43.7994 N.am      6 UNK        -0.5000 
     45 C           1.7217  -16.3141  -42.9498 C.2       5 UNK         0.5000 
     46 O           1.0881  -17.3473  -42.7345 O.2       5 UNK        -0.5000 
     47 CA          1.3104  -15.0221  -42.2144 C.3       5 UNK         0.1400 
     48 CB          1.5380  -15.1816  -40.7032 C.3       5 UNK        -0.1800 
     49 N           2.0430  -13.8348  -42.6688 N.am      5 UNK        -0.5000 
     50 C           1.7679  -13.0393  -43.7124 C.2       4 UNK         0.5000 
     51 O           2.4899  -12.0782  -43.9808 O.2       4 UNK        -0.5000 
     52 CA          0.5105  -13.2941  -44.5791 C.3       4 UNK         0.1400 
     53 CB         -0.6823  -12.4989  -44.0263 C.3       4 UNK        -0.1800 
     54 N           0.7370  -12.9125  -45.9746 N.am      4 UNK        -0.5000 
     55 C           1.5885  -13.5445  -46.7929 C.2       3 UNK         0.5000 
     56 O           2.1528  -14.5941  -46.4827 O.2       3 UNK        -0.5000 
     57 CA          1.8159  -12.9221  -48.1837 C.3       3 UNK         0.1400 
     58 CB          2.6034  -13.8501  -49.1276 C.3       3 UNK        -0.1800 
     59 N           0.5341  -12.5974  -48.8037 N.am      3 UNK        -0.5000 
     60 C           0.0248  -11.3688  -48.9623 C.2       2 UNK         0.5000 
     61 O           0.6075  -10.3345  -48.6367 O.2       2 UNK        -0.5000 
     62 CA         -1.3952  -11.2903  -49.5586 C.3       2 UNK         0.1400 
     63 CB         -1.3317  -11.1257  -51.0846 C.3       2 UNK        -0.1800 
     64 N          -2.2012  -12.4710  -49.2420 N.am      2 UNK        -0.5000 
     65 C          -2.6256  -12.8117  -48.0193 C.2       1 UNK         0.5000 
     66 O          -2.4816  -12.0953  -47.0282 O.2       1 UNK        -0.5000 
     67 C          -3.0875  -24.1120  -45.3102 C.2       11 UNK         0.5000 
     68 O          -3.6379  -25.1511  -45.6752 O.2       11 UNK        -0.5000 
     69 N          -2.6646  -23.9033  -44.0544 N.am      12 UNK        -0.5000 
     70 CA         -2.7653  -24.8932  -42.9765 C.3       12 UNK         0.1400 
     71 CB         -2.3517  -24.2475  -41.6456 C.3       12 UNK        -0.1800 
     72 C          -1.9507  -26.1765  -43.2501 C.2       12 UNK         0.5000 
     73 O          -2.3823  -27.2640  -42.8665 O.2       12 UNK        -0.5000 
     74 N          -0.8155  -26.0318  -43.9466 N.am      13 UNK        -0.5000 
     75 CA          0.0294  -27.1257  -44.4318 C.3       13 UNK         0.1400 
     76 CB          1.4586  -26.5914  -44.6211 C.3       13 UNK        -0.1800 
     77 C          -0.4814  -27.7760  -45.7383 C.2       13 UNK         0.5000 
     78 O           0.1124  -28.7600  -46.1812 O.2       13 UNK        -0.5000 
     79 N          -1.5465  -27.2202  -46.3379 N.am      14 UNK        -0.5000 
     80 CA         -2.1623  -27.5993  -47.6158 C.3       14 UNK         0.1400 
     81 CB         -2.7647  -29.0179  -47.5427 C.3       14 UNK        -0.1800 
     82 C          -1.2324  -27.3958  -48.8337 C.2       14 UNK         0.5000 
     83 O          -1.3282  -28.1314  -49.8174 O.2       14 UNK        -0.5000 
     84 N          -0.3646  -26.3801  -48.7606 N.am      15 UNK        -0.5000 
     85 CA          0.6247  -26.0080  -49.7697 C.3       15 UNK         0.1400 
     86 CB          1.9680  -25.7469  -49.0637 C.3       15 UNK        -0.1800 
     87 C           0.1402  -24.7991  -50.5957 C.2       15 UNK         0.5000 
     88 O           0.8739  -23.8206  -50.7545 O.2       15 UNK        -0.5000 
     89 N          -1.1045  -24.8841  -51.0933 N.am      16 UNK        -0.5000 
     90 CA         -1.7586  -23.9721  -52.0477 C.3       16 UNK         0.1400 
     91 CB         -1.1388  -24.1590  -53.4482 C.3       16 UNK        -0.1800 
     92 C          -1.7817  -22.4859  -51.6238 C.2       16 UNK         0.5000 
     93 O          -1.7481  -21.6022  -52.4833 O.2       16 UNK        -0.5000 
     94 N          -1.7850  -22.2383  -50.3054 N.am      17 UNK        -0.5000 
     95 CA         -1.6658  -20.9276  -49.6533 C.3       17 UNK         0.1400 
     96 CB         -2.9710  -20.1197  -49.8001 C.3       17 UNK        -0.1800 
     97 C          -0.4123  -20.1385  -50.0974 C.2       17 UNK         0.5000 
     98 O          -0.4714  -18.9212  -50.2681 O.2       17 UNK        -0.5000 
     99 N           0.6943  -20.8639  -50.3327 N.am      18 UNK        -0.5000 
    100 CA         1.9829  -20.3795  -50.8472 C.3       18 UNK         0.1400 
    101 CB         2.6408  -19.3882  -49.8612 C.3       18 UNK        -0.1800 
    102 C          1.8953  -19.8032  -52.2782 C.2       18 UNK         0.5000 
    103 O          2.7778  -19.0456  -52.6841 O.2       18 UNK        -0.5000 
    104 N          0.8256  -20.1585  -53.0074 N.am      19 UNK        -0.5000 
    105 CA         0.4247  -19.6487  -54.3208 C.3       19 UNK         0.1400 
    106 CB         1.4689  -19.9989  -55.4014 C.3       19 UNK        -0.1800 
    107 C          0.0416  -18.1517  -54.3158 C.2       19 UNK         0.5000 
    108 O         -0.0124  -17.5390  -55.3839 O.2       19 UNK        -0.5000 
    109 N         -0.2459  -17.5843  -53.1340 N.am      20 UNK        -0.5000 
    110 CA        -0.7943  -16.2402  -52.9831 C.3       20 UNK         0.1400 
    111 CB        -0.5397  -15.7337  -51.5525 C.3       20 UNK        -0.1800 
    112 C         -2.2950  -16.2928  -53.3047 C.2       20 UNK         0.5000 
    113 O         -3.0346  -16.9580  -52.5777 O.2       20 UNK        -0.5000 
    114 N         -2.6935  -15.6440  -54.4096 N.am      21 UNK        -0.5000 
    115 CA        -4.0491  -15.5625  -54.9679 C.3       21 UNK         0.1400 
    116 CB        -4.9297  -14.6356  -54.1043 C.3       21 UNK        -0.1800 
    117 C         -4.6854  -16.9490  -55.2060 C.2       21 UNK         0.5000 
    118 O         -4.5317  -17.5136  -56.2898 O.2       21 UNK        -0.5000 
    119 N         -5.3738  -17.4656  -54.1834 N.am      22 UNK        -0.5000 
    120 CA        -5.9116  -18.8287  -54.0958 C.3       22 UNK         0.1400 
    121 C         -4.8295  -19.9480  -53.9969 C.2       22 UNK         0.5000 
    122 N         -3.6164  -19.6510  -53.5464 N.am      22 UNK        -0.7600 
    123 O         -5.1045  -21.0988  -54.3258 O.2       22 UNK        -0.5000 
    124 C124       -6.9322  -18.9326  -52.9304 C.3       23 UNK        -0.0398 
    125 S125       -6.1950  -18.5152  -51.3100 S.3       23 UNK        -0.2404 
    126 C126       -7.6415  -18.5007  -50.2144 C.3       23 UNK        -0.0205 
    127 H127       -6.3155  -15.3548  -50.9579 H         1 UNK         0.0600 
    128 H128       -6.2969  -13.6112  -51.2460 H         1 UNK         0.0600 
    129 H129       -6.8869  -14.2457  -49.7079 H         1 UNK         0.0600 
    130 H130       -5.4069  -14.1793  -48.0426 H         1 UNK         0.3000 
    131 H131       -2.6292  -14.8980  -48.3875 H         1 UNK         0.0600 
    132 H132       -2.5255  -14.4928  -45.8782 H         1 UNK         0.0800 
    133 H133       -4.2194  -14.0745  -45.9018 H         1 UNK         0.0800 
    134 H134       -6.0647  -15.5538  -46.4233 H         1 UNK         0.0800 
    135 H135       -5.8128  -16.5244  -44.9911 H         1 UNK         0.0800 
    136 H136       -6.6789  -16.5619  -48.5588 H         1 UNK         0.1150 
    137 H137       -7.5394  -20.7552  -48.6942 H         1 UNK         0.1150 
    138 H138       -5.7783  -19.0433  -45.1798 H         1 UNK         0.1150 
    139 H139       -6.4177  -21.3672  -45.1609 H         1 UNK         0.0800 
    140 H140       -7.6206  -21.8836  -46.3163 H         1 UNK         0.0800 
    141 H141       -3.9967  -21.4982  -45.3468 H         1 UNK         0.0800 
    142 H142       -3.5050  -21.0496  -46.9582 H         1 UNK         0.0800 
    143 H143       -2.8182  -23.4962  -47.3333 H         1 UNK         0.0600 
    144 H144       -1.2911  -21.5446  -45.9457 H         1 UNK         0.3000 
    145 H145        1.7410  -23.4992  -45.8873 H         1 UNK         0.0600 
    146 H146        2.6370  -21.5680  -47.1005 H         1 UNK         0.0600 
    147 H147        1.6268  -22.5083  -48.1860 H         1 UNK         0.0600 
    148 H148        1.0140  -21.0079  -47.4949 H         1 UNK         0.0600 
    149 H149        1.2429  -20.8313  -45.0548 H         1 UNK         0.3000 
    150 H150        0.1091  -21.6217  -41.7321 H         1 UNK         0.0600 
    151 H151        2.6020  -21.5613  -41.6915 H         1 UNK         0.0600 
    152 H152        1.9297  -19.9949  -41.2609 H         1 UNK         0.0600 
    153 H153        2.6077  -20.2517  -42.8663 H         1 UNK         0.0600 
    154 H154        0.3776  -19.1278  -43.0703 H         1 UNK         0.3000 
    155 H155       -2.8702  -19.0033  -44.5671 H         1 UNK         0.0600 
    156 H156       -1.5275  -17.4635  -42.2804 H         1 UNK         0.0600 
    157 H157       -3.1213  -18.2030  -42.2350 H         1 UNK         0.0600 
    158 H158       -2.8159  -16.8552  -43.3187 H         1 UNK         0.0600 
    159 H159       -0.5265  -17.3023  -44.5718 H         1 UNK         0.3000 
    160 H160        0.7518  -18.5194  -47.6772 H         1 UNK         0.0600 
    161 H161        0.3920  -16.2157  -48.4090 H         1 UNK         0.0600 
    162 H162       -0.6478  -15.8764  -47.0241 H         1 UNK         0.0600 
    163 H163       -1.1719  -16.9991  -48.2768 H         1 UNK         0.0600 
    164 H164        1.6047  -16.3179  -46.1253 H         1 UNK         0.3000 
    165 H165        3.6615  -18.1100  -43.8007 H         1 UNK         0.0600 
    166 H166        5.3083  -16.5032  -44.7018 H         1 UNK         0.0600 
    167 H167        4.9885  -17.7606  -45.8856 H         1 UNK         0.0600 
    168 H168        4.2742  -16.1672  -46.0896 H         1 UNK         0.0600 
    169 H169        3.2043  -15.3540  -43.9439 H         1 UNK         0.3000 
    170 H170        0.2394  -14.8814  -42.3659 H         1 UNK         0.0600 
    171 H171        0.9785  -16.0311  -40.3086 H         1 UNK         0.0600 
    172 H172        2.5906  -15.3450  -40.4685 H         1 UNK         0.0600 
    173 H173        1.2058  -14.2973  -40.1588 H         1 UNK         0.0600 
    174 H174        2.8643  -13.6146  -42.1245 H         1 UNK         0.3000 
    175 H175        0.2560  -14.3541  -44.5770 H         1 UNK         0.0600 
    176 H176       -1.5946  -12.7107  -44.5814 H         1 UNK         0.0600 
    177 H177       -0.8760  -12.7511  -42.9832 H         1 UNK         0.0600 
    178 H178       -0.5046  -11.4238  -44.0745 H         1 UNK         0.0600 
    179 H179        0.3052  -12.0550  -46.2877 H         1 UNK         0.3000 
    180 H180        2.4095  -12.0184  -48.0323 H         1 UNK         0.0600 
    181 H181        2.0810  -14.7907  -49.3027 H         1 UNK         0.0600 
    182 H182        3.5834  -14.0905  -48.7136 H         1 UNK         0.0600 
    183 H183        2.7691  -13.3761  -50.0951 H         1 UNK         0.0600 
    184 H184       -0.0368  -13.3819  -49.0801 H         1 UNK         0.3000 
    185 H185       -1.8894  -10.4136  -49.1349 H         1 UNK         0.0600 
    186 H186       -0.7590  -10.2386  -51.3585 H         1 UNK         0.0600 
    187 H187       -0.8582  -11.9840  -51.5632 H         1 UNK         0.0600 
    188 H188       -2.3289  -11.0129  -51.5106 H         1 UNK         0.0600 
    189 H189       -2.4560  -13.0846  -50.0117 H         1 UNK         0.3000 
    190 H190       -2.2443  -23.0088  -43.8200 H         1 UNK         0.3000 
    191 H191       -3.8147  -25.1844  -42.8964 H         1 UNK         0.0600 
    192 H192       -2.4778  -24.9467  -40.8182 H         1 UNK         0.0600 
    193 H193       -2.9608  -23.3702  -41.4267 H         1 UNK         0.0600 
    194 H194       -1.3079  -23.9353  -41.6531 H         1 UNK         0.0600 
    195 H195       -0.5019  -25.0918  -44.1594 H         1 UNK         0.3000 
    196 H196        0.0595  -27.9074  -43.6703 H         1 UNK         0.0600 
    197 H197        2.1465  -27.3962  -44.8827 H         1 UNK         0.0600 
    198 H198        1.8332  -26.1283  -43.7079 H         1 UNK         0.0600 
    199 H199        1.5074  -25.8500  -45.4181 H         1 UNK         0.0600 
    200 H200       -1.9624  -26.4095  -45.8949 H         1 UNK         0.3000 
    201 H201       -2.9906  -26.9049  -47.7611 H         1 UNK         0.0600 
    202 H202       -3.4209  -29.1226  -46.6787 H         1 UNK         0.0600 
    203 H203       -1.9930  -29.7849  -47.4739 H         1 UNK         0.0600 
    204 H204       -3.3613  -29.2353  -48.4293 H         1 UNK         0.0600 
    205 H205       -0.3907  -25.7790  -47.9366 H         1 UNK         0.3000 
    206 H206        0.7750  -26.8316  -50.4702 H         1 UNK         0.0600 
    207 H207        2.2988  -26.6282  -48.5139 H         1 UNK         0.0600 
    208 H208        2.7500  -25.5010  -49.7831 H         1 UNK         0.0600 
    209 H209        1.8989  -24.9215  -48.3555 H         1 UNK         0.0600 
    210 H210       -1.6262  -25.7214  -50.8728 H         1 UNK         0.3000 
    211 H211       -2.8028  -24.2826  -52.1035 H         1 UNK         0.0600 
    212 H212       -0.1044  -23.8142  -53.4787 H         1 UNK         0.0600 
    213 H213       -1.6932  -23.6005  -54.2035 H         1 UNK         0.0600 
    214 H214       -1.1523  -25.2064  -53.7496 H         1 UNK         0.0600 
    215 H215       -1.7871  -23.0380  -49.6899 H         1 UNK         0.3000 
    216 H216       -1.5271  -21.1389  -48.5959 H         1 UNK         0.0600 
    217 H217       -2.9433  -19.2196  -49.1842 H         1 UNK         0.0600 
    218 H218       -3.8381  -20.6996  -49.4840 H         1 UNK         0.0600 
    219 H219       -3.1370  -19.8033  -50.8291 H         1 UNK         0.0600 
    220 H220        0.6280  -21.8746  -50.2551 H         1 UNK         0.3000 
    221 H221        2.6268  -21.2575  -50.9135 H         1 UNK         0.0600 
    222 H222        2.0993  -18.4430  -49.8128 H         1 UNK         0.0600 
    223 H223        2.6921  -19.7968  -48.8536 H         1 UNK         0.0600 
    224 H224        3.6630  -19.1584  -50.1633 H         1 UNK         0.0600 
    225 H225        0.1390  -20.7647  -52.5716 H         1 UNK         0.3000 
    226 H226       -0.4921  -20.1830  -54.5734 H         1 UNK         0.0600 
    227 H227        1.0866  -19.7794  -56.3989 H         1 UNK         0.0600 
    228 H228        2.3912  -19.4315  -55.2761 H         1 UNK         0.0600 
    229 H229        1.7196  -21.0594  -55.3786 H         1 UNK         0.0600 
    230 H230       -0.2285  -18.1524  -52.2943 H         1 UNK         0.3000 
    231 H231       -0.2902  -15.5627  -53.6756 H         1 UNK         0.0600 
    232 H232        0.5236  -15.7400  -51.3127 H         1 UNK         0.0600 
    233 H233       -1.0540  -16.3443  -50.8094 H         1 UNK         0.0600 
    234 H234       -0.8981  -14.7106  -51.4352 H         1 UNK         0.0600 
    235 H235       -1.9813  -15.1929  -54.9663 H         1 UNK         0.3000 
    236 H236       -3.9512  -15.0958  -55.9493 H         1 UNK         0.0600 
    237 H237       -4.5212  -13.6255  -54.0740 H         1 UNK         0.0600 
    238 H238       -5.9409  -14.5656  -54.5069 H         1 UNK         0.0600 
    239 H239       -5.0061  -14.9874  -53.0767 H         1 UNK         0.0600 
    240 H240       -5.3490  -16.9631  -53.3067 H         1 UNK         0.3000 
    241 H241       -6.4558  -19.0159  -55.0232 H         1 UNK         0.0600 
    242 H242       -2.9421  -20.3933  -53.3930 H         1 UNK         0.3800 
    243 H243       -3.4260  -18.7137  -53.2022 H         1 UNK         0.3800 
    244 H244       -7.7691  -18.2576  -53.1143 H         1 UNK         0.0800 
    245 H245       -7.3593  -19.9356  -52.8795 H         1 UNK         0.0800 
    246 H246       -8.3150  -19.3178  -50.4779 H         1 UNK         0.0800 
    247 H247       -8.1992  -17.5732  -50.3520 H         1 UNK         0.0800 
@<TRIPOS>BOND
     1    1    2 1    
     2    1  127 1    
     3    1  128 1    
     4    1  129 1    
     5    2    3 2    
     6    2    4 am   BACKBONE|DICT|INTERRES
     7    4    5 1    
     8    4  130 1    
     9    5    6 1    
    10    5   65 1    
    11    5  131 1    
    12    6    7 1    
    13    6  132 1    
    14    6  133 1    
    15    7    8 1    
    16    8    9 1    
    17    8  134 1    
    18    8  135 1    
    19    9   10 ar   
    20    9   14 ar   
    21   10   11 ar   
    22   10  136 1    
    23   11   12 ar   
    24   11  126 1    
    25   12   13 ar   
    26   12  137 1    
    27   13   14 ar   
    28   13   15 1    
    29   14  138 1    
    30   15   16 1    
    31   15  139 1    
    32   15  140 1    
    33   16   17 1    
    34   17   18 1    
    35   17  141 1    
    36   17  142 1    
    37   18   19 1    
    38   18   67 1    
    39   18  143 1    
    40   19   20 am   BACKBONE|DICT|INTERRES
    41   19  144 1    
    42   20   21 2    
    43   20   22 1    
    44   22   23 1    
    45   22   24 1    
    46   22  145 1    
    47   23  146 1    
    48   23  147 1    
    49   23  148 1    
    50   24   25 am   BACKBONE|DICT|INTERRES
    51   24  149 1    
    52   25   26 2    
    53   25   27 1    
    54   27   28 1    
    55   27   29 1    
    56   27  150 1    
    57   28  151 1    
    58   28  152 1    
    59   28  153 1    
    60   29   30 am   BACKBONE|DICT|INTERRES
    61   29  154 1    
    62   30   31 2    
    63   30   32 1    
    64   32   33 1    
    65   32   34 1    
    66   32  155 1    
    67   33  156 1    
    68   33  157 1    
    69   33  158 1    
    70   34   35 am   BACKBONE|DICT|INTERRES
    71   34  159 1    
    72   35   36 2    
    73   35   37 1    
    74   37   38 1    
    75   37   39 1    
    76   37  160 1    
    77   38  161 1    
    78   38  162 1    
    79   38  163 1    
    80   39   40 am   BACKBONE|DICT|INTERRES
    81   39  164 1    
    82   40   41 2    
    83   40   42 1    
    84   42   43 1    
    85   42   44 1    
    86   42  165 1    
    87   43  166 1    
    88   43  167 1    
    89   43  168 1    
    90   44   45 am   BACKBONE|DICT|INTERRES
    91   44  169 1    
    92   45   46 2    
    93   45   47 1    
    94   47   48 1    
    95   47   49 1    
    96   47  170 1    
    97   48  171 1    
    98   48  172 1    
    99   48  173 1    
   100   49   50 am   BACKBONE|DICT|INTERRES
   101   49  174 1    
   102   50   51 2    
   103   50   52 1    
   104   52   53 1    
   105   52   54 1    
   106   52  175 1    
   107   53  176 1    
   108   53  177 1    
   109   53  178 1    
   110   54   55 am   BACKBONE|DICT|INTERRES
   111   54  179 1    
   112   55   56 2    
   113   55   57 1    
   114   57   58 1    
   115   57   59 1    
   116   57  180 1    
   117   58  181 1    
   118   58  182 1    
   119   58  183 1    
   120   59   60 am   BACKBONE|DICT|INTERRES
   121   59  184 1    
   122   60   61 2    
   123   60   62 1    
   124   62   63 1    
   125   62   64 1    
   126   62  185 1    
   127   63  186 1    
   128   63  187 1    
   129   63  188 1    
   130   64   65 am   BACKBONE|DICT|INTERRES
   131   64  189 1    
   132   65   66 2    
   133   67   68 2    
   134   67   69 am   BACKBONE|DICT|INTERRES
   135   69   70 1    
   136   69  190 1    
   137   70   71 1    
   138   70   72 1    
   139   70  191 1    
   140   71  192 1    
   141   71  193 1    
   142   71  194 1    
   143   72   73 2    
   144   72   74 am   BACKBONE|DICT|INTERRES
   145   74   75 1    
   146   74  195 1    
   147   75   76 1    
   148   75   77 1    
   149   75  196 1    
   150   76  197 1    
   151   76  198 1    
   152   76  199 1    
   153   77   78 2    
   154   77   79 am   BACKBONE|DICT|INTERRES
   155   79   80 1    
   156   79  200 1    
   157   80   81 1    
   158   80   82 1    
   159   80  201 1    
   160   81  202 1    
   161   81  203 1    
   162   81  204 1    
   163   82   83 2    
   164   82   84 am   BACKBONE|DICT|INTERRES
   165   84   85 1    
   166   84  205 1    
   167   85   86 1    
   168   85   87 1    
   169   85  206 1    
   170   86  207 1    
   171   86  208 1    
   172   86  209 1    
   173   87   88 2    
   174   87   89 am   BACKBONE|DICT|INTERRES
   175   89   90 1    
   176   89  210 1    
   177   90   91 1    
   178   90   92 1    
   179   90  211 1    
   180   91  212 1    
   181   91  213 1    
   182   91  214 1    
   183   92   93 2    
   184   92   94 am   BACKBONE|DICT|INTERRES
   185   94   95 1    
   186   94  215 1    
   187   95   96 1    
   188   95   97 1    
   189   95  216 1    
   190   96  217 1    
   191   96  218 1    
   192   96  219 1    
   193   97   98 2    
   194   97   99 am   BACKBONE|DICT|INTERRES
   195   99  100 1    
   196   99  220 1    
   197  100  101 1    
   198  100  102 1    
   199  100  221 1    
   200  101  222 1    
   201  101  223 1    
   202  101  224 1    
   203  102  103 2    
   204  102  104 am   BACKBONE|DICT|INTERRES
   205  104  105 1    
   206  104  225 1    
   207  105  106 1    
   208  105  107 1    
   209  105  226 1    
   210  106  227 1    
   211  106  228 1    
   212  106  229 1    
   213  107  108 2    
   214  107  109 am   BACKBONE|DICT|INTERRES
   215  109  110 1    
   216  109  230 1    
   217  110  111 1    
   218  110  112 1    
   219  110  231 1    
   220  111  232 1    
   221  111  233 1    
   222  111  234 1    
   223  112  113 2    
   224  112  114 am   BACKBONE|DICT|INTERRES
   225  114  115 1    
   226  114  235 1    
   227  115  116 1    
   228  115  117 1    
   229  115  236 1    
   230  116  237 1    
   231  116  238 1    
   232  116  239 1    
   233  117  118 2    
   234  117  119 am   BACKBONE|DICT|INTERRES
   235  119  120 1    
   236  119  240 1    
   237  120  121 1    
   238  120  124 1    
   239  120  241 1    
   240  121  122 am   BACKBONE|DICT|INTERRES
   241  121  123 2    
   242  122  242 1    
   243  122  243 1    
   244  124  125 1    
   245  124  244 1    
   246  124  245 1    
   247  125  126 1    
   248  126  246 1    
   249  126  247 1    
@<TRIPOS>SUBSTRUCTURE
     1 UNK         1 GROUP             0       ****    0 ROOT    
