@<TRIPOS>MOLECULE
3R540
247   249    1
SMALL
USER_CHARGES


@<TRIPOS>ATOM
      1 CA          1.7513   -9.5018  -49.6219 C.3       0 UNK        -0.1800 
      2 C           2.6658  -10.6750  -49.3000 C.2       0 UNK         0.5000 
      3 O           3.7319  -10.4802  -48.7147 O.2       0 UNK        -0.5000 
      4 N           2.2545  -11.8936  -49.6727 N.am      1 UNK        -0.5000 
      5 CA          2.9732  -13.1478  -49.4240 C.3       1 UNK         0.1400 
      6 C6          2.6272  -14.2109  -50.5001 C.3       23 UNK        -0.0398 
      7 S7          3.9534  -15.4455  -50.7015 S.3       23 UNK        -0.2404 
      8 C8          3.2543  -16.4943  -52.0139 C.3       23 UNK        -0.0205 
      9 C9          2.2698  -17.5152  -51.4636 C.ar      23 UNK        -0.0193 
     10 C10         0.8921  -17.2829  -51.5204 C.ar      23 UNK        -0.1150 
     11 C11        -0.0099  -18.2416  -51.0472 C.ar      23 UNK        -0.0193 
     12 C12         0.4768  -19.4354  -50.5055 C.ar      23 UNK        -0.1150 
     13 C13         1.8524  -19.6747  -50.4360 C.ar      23 UNK        -0.0193 
     14 C14         2.7423  -18.7125  -50.9196 C.ar      23 UNK        -0.1150 
     15 C15         2.3817  -20.9848  -49.8726 C.3       23 UNK        -0.0205 
     16 S16         3.1504  -20.7946  -48.2309 S.3       23 UNK        -0.2404 
     17 C17         1.7590  -20.2760  -47.1688 C.3       23 UNK        -0.0398 
     18 CA          0.8781  -21.4665  -46.6994 C.3       11 UNK         0.1400 
     19 N           0.5512  -21.4163  -45.2709 N.am      11 UNK        -0.5000 
     20 C          -0.0466  -22.4112  -44.5972 C.2       10 UNK         0.5000 
     21 O          -0.3485  -23.4938  -45.1004 O.2       10 UNK        -0.5000 
     22 CA         -0.4182  -22.1368  -43.1292 C.3       10 UNK         0.1400 
     23 CB          0.8049  -22.2902  -42.2131 C.3       10 UNK        -0.1800 
     24 N          -1.0219  -20.8176  -42.9397 N.am      10 UNK        -0.5000 
     25 C          -2.1832  -20.4325  -43.4890 C.2       9 UNK         0.5000 
     26 O          -2.8909  -21.1671  -44.1777 O.2       9 UNK        -0.5000 
     27 CA         -2.6032  -18.9677  -43.2761 C.3       9 UNK         0.1400 
     28 CB         -3.2338  -18.7751  -41.8891 C.3       9 UNK        -0.1800 
     29 N          -1.4945  -18.0293  -43.4502 N.am      9 UNK        -0.5000 
     30 C          -0.8056  -17.8652  -44.5896 C.2       8 UNK         0.5000 
     31 O          -1.0451  -18.4705  -45.6337 O.2       8 UNK        -0.5000 
     32 CA          0.3891  -16.9002  -44.5377 C.3       8 UNK         0.1400 
     33 CB         -0.0935  -15.4441  -44.5491 C.3       8 UNK        -0.1800 
     34 N           1.2329  -17.1268  -43.3651 N.am      8 UNK        -0.5000 
     35 C           1.8862  -18.2670  -43.0998 C.2       7 UNK         0.5000 
     36 O           1.8869  -19.2475  -43.8429 O.2       7 UNK        -0.5000 
     37 CA          2.6145  -18.3430  -41.7483 C.3       7 UNK         0.1400 
     38 CB          3.9687  -17.6189  -41.8073 C.3       7 UNK        -0.1800 
     39 N           1.8024  -17.7943  -40.6622 N.am      7 UNK        -0.5000 
     40 C           0.6657  -18.3474  -40.2142 C.2       6 UNK         0.5000 
     41 O           0.1978  -19.3995  -40.6487 O.2       6 UNK        -0.5000 
     42 CA         -0.0943  -17.5720  -39.1235 C.3       6 UNK         0.1400 
     43 CB          0.4796  -17.8878  -37.7343 C.3       6 UNK        -0.1800 
     44 N          -0.0662  -16.1254  -39.3437 N.am      6 UNK        -0.5000 
     45 C          -0.6830  -15.5030  -40.3583 C.2       5 UNK         0.5000 
     46 O          -1.3657  -16.0819  -41.2034 O.2       5 UNK        -0.5000 
     47 CA         -0.4478  -13.9848  -40.4740 C.3       5 UNK         0.1400 
     48 CB         -1.3968  -13.2149  -39.5437 C.3       5 UNK        -0.1800 
     49 N           0.9391  -13.5959  -40.1924 N.am      5 UNK        -0.5000 
     50 C           1.9866  -13.9926  -40.9247 C.2       4 UNK         0.5000 
     51 O           1.8870  -14.7400  -41.9037 O.2       4 UNK        -0.5000 
     52 CA          3.3771  -13.5093  -40.4874 C.3       4 UNK         0.1400 
     53 CB          3.8972  -14.3311  -39.2943 C.3       4 UNK        -0.1800 
     54 N           4.2469  -13.6851  -41.6396 N.am      4 UNK        -0.5000 
     55 C           5.4507  -13.1532  -41.8702 C.2       3 UNK         0.5000 
     56 O           6.0606  -12.4464  -41.0676 O.2       3 UNK        -0.5000 
     57 CA          6.0571  -13.4548  -43.2575 C.3       3 UNK         0.1400 
     58 CB          6.9528  -14.7015  -43.1921 C.3       3 UNK        -0.1800 
     59 N           5.0114  -13.6674  -44.2656 N.am      3 UNK        -0.5000 
     60 C           4.2911  -12.6795  -44.8117 C.2       2 UNK         0.5000 
     61 O           4.5711  -11.4842  -44.7039 O.2       2 UNK        -0.5000 
     62 CA          3.0322  -13.0964  -45.5794 C.3       2 UNK         0.1400 
     63 CB          1.7994  -12.3047  -45.1037 C.3       2 UNK        -0.1800 
     64 N           3.2333  -12.8703  -47.0033 N.am      2 UNK        -0.5000 
     65 C           2.7148  -13.6267  -47.9768 C.2       1 UNK         0.5000 
     66 O           2.0210  -14.6224  -47.7618 O.2       1 UNK        -0.5000 
     67 C          -0.3925  -21.5931  -47.5608 C.2       11 UNK         0.5000 
     68 O          -0.4478  -22.4563  -48.4342 O.2       11 UNK        -0.5000 
     69 N          -1.4038  -20.7598  -47.2790 N.am      12 UNK        -0.5000 
     70 CA         -2.6980  -20.7633  -47.9595 C.3       12 UNK         0.1400 
     71 CB         -3.5477  -19.5878  -47.4565 C.3       12 UNK        -0.1800 
     72 C          -3.4557  -22.0941  -47.8147 C.2       12 UNK         0.5000 
     73 O          -4.0261  -22.5710  -48.7965 O.2       12 UNK        -0.5000 
     74 N          -3.4127  -22.6879  -46.6144 N.am      13 UNK        -0.5000 
     75 CA         -3.9644  -24.0105  -46.3261 C.3       13 UNK         0.1400 
     76 CB         -3.9441  -24.2617  -44.8108 C.3       13 UNK        -0.1800 
     77 C          -3.2279  -25.1326  -47.0799 C.2       13 UNK         0.5000 
     78 O          -3.8835  -25.9953  -47.6643 O.2       13 UNK        -0.5000 
     79 N          -1.8875  -25.0853  -47.0821 N.am      14 UNK        -0.5000 
     80 CA         -1.0222  -26.0384  -47.7819 C.3       14 UNK         0.1400 
     81 CB          0.4379  -25.8112  -47.3612 C.3       14 UNK        -0.1800 
     82 C          -1.1641  -25.9694  -49.3140 C.2       14 UNK         0.5000 
     83 O          -1.1977  -27.0109  -49.9704 O.2       14 UNK        -0.5000 
     84 N          -1.2670  -24.7469  -49.8509 N.am      15 UNK        -0.5000 
     85 CA         -1.4719  -24.4681  -51.2727 C.3       15 UNK         0.1400 
     86 CB         -1.0901  -23.0053  -51.5510 C.3       15 UNK        -0.1800 
     87 C          -2.9109  -24.7369  -51.7536 C.2       15 UNK         0.5000 
     88 O          -3.1262  -24.8038  -52.9634 O.2       15 UNK        -0.5000 
     89 N          -3.8602  -24.8566  -50.8123 N.am      16 UNK        -0.5000 
     90 CA         -5.3083  -24.9721  -51.0124 C.3       16 UNK         0.1400 
     91 CB         -5.6718  -26.2952  -51.7175 C.3       16 UNK        -0.1800 
     92 C          -5.8811  -23.7301  -51.7234 C.2       16 UNK         0.5000 
     93 O          -6.6395  -23.8531  -52.6881 O.2       16 UNK        -0.5000 
     94 N          -5.4884  -22.5445  -51.2341 N.am      17 UNK        -0.5000 
     95 CA         -5.7522  -21.2278  -51.8241 C.3       17 UNK         0.1400 
     96 CB         -5.1126  -20.1452  -50.9451 C.3       17 UNK        -0.1800 
     97 C          -7.2386  -20.9025  -52.0579 C.2       17 UNK         0.5000 
     98 O          -7.5484  -20.1435  -52.9743 O.2       17 UNK        -0.5000 
     99 N          -8.1298  -21.5088  -51.2632 N.am      18 UNK        -0.5000 
    100 CA        -9.5834  -21.4090  -51.4054 C.3       18 UNK         0.1400 
    101 CB       -10.2463  -22.0920  -50.1993 C.3       18 UNK        -0.1800 
    102 C        -10.1266  -22.0005  -52.7241 C.2       18 UNK         0.5000 
    103 O        -11.2003  -21.5866  -53.1639 O.2       18 UNK        -0.5000 
    104 N         -9.3889  -22.9449  -53.3245 N.am      19 UNK        -0.5000 
    105 CA        -9.7319  -23.5950  -54.5883 C.3       19 UNK         0.1400 
    106 CB        -9.8277  -25.1123  -54.3597 C.3       19 UNK        -0.1800 
    107 C         -8.6979  -23.2825  -55.6819 C.2       19 UNK         0.5000 
    108 O         -9.0836  -22.9977  -56.8163 O.2       19 UNK        -0.5000 
    109 N         -7.4063  -23.3570  -55.3352 N.am      20 UNK        -0.5000 
    110 CA        -6.2912  -23.2588  -56.2780 C.3       20 UNK         0.1400 
    111 CB        -5.1025  -24.0448  -55.7039 C.3       20 UNK        -0.1800 
    112 C         -5.8591  -21.8149  -56.5888 C.2       20 UNK         0.5000 
    113 O         -5.1492  -21.6087  -57.5730 O.2       20 UNK        -0.5000 
    114 N         -6.2419  -20.8554  -55.7309 N.am      21 UNK        -0.5000 
    115 CA        -5.8674  -19.4313  -55.7586 C.3       21 UNK         0.1400 
    116 CB        -6.3741  -18.7488  -57.0468 C.3       21 UNK        -0.1800 
    117 C         -4.3667  -19.1568  -55.4975 C.2       21 UNK         0.5000 
    118 O         -3.9188  -18.0317  -55.7182 O.2       21 UNK        -0.5000 
    119 N         -3.6329  -20.1833  -55.0411 N.am      22 UNK        -0.5000 
    120 CA        -2.2023  -20.2710  -54.6729 C.3       22 UNK         0.1400 
    121 C         -1.1235  -19.7356  -55.6669 C.2       22 UNK         0.5000 
    122 N         -1.4633  -18.9589  -56.6836 N.am      22 UNK        -0.7600 
    123 O          0.0491  -20.0745  -55.5338 O.2       22 UNK        -0.5000 
    124 C124       -1.9175  -19.8601  -53.2021 C.3       23 UNK        -0.0398 
    125 S125       -2.1493  -18.0891  -52.8238 S.3       23 UNK        -0.2404 
    126 C126       -1.5092  -17.9865  -51.1208 C.3       23 UNK        -0.0205 
    127 H127        2.2724   -8.7825  -50.2538 H         1 UNK         0.0600 
    128 H128        1.4524   -8.9969  -48.7033 H         1 UNK         0.0600 
    129 H129        0.8489   -9.8217  -50.1435 H         1 UNK         0.0600 
    130 H130        1.3534  -11.9900  -50.1191 H         1 UNK         0.3000 
    131 H131        4.0420  -12.9361  -49.5052 H         1 UNK         0.0600 
    132 H132        2.5051  -13.7254  -51.4696 H         1 UNK         0.0800 
    133 H133        1.6773  -14.7076  -50.2957 H         1 UNK         0.0800 
    134 H134        2.7820  -15.8736  -52.7770 H         1 UNK         0.0800 
    135 H135        4.0711  -17.0161  -52.5149 H         1 UNK         0.0800 
    136 H136        0.5178  -16.3624  -51.9460 H         1 UNK         0.1150 
    137 H137       -0.2161  -20.1828  -50.1474 H         1 UNK         0.1150 
    138 H138        3.8065  -18.8979  -50.8744 H         1 UNK         0.1150 
    139 H139        1.5959  -21.7372  -49.8264 H         1 UNK         0.0800 
    140 H140        3.1300  -21.3847  -50.5583 H         1 UNK         0.0800 
    141 H141        1.1837  -19.4861  -47.6557 H         1 UNK         0.0800 
    142 H142        2.2207  -19.7905  -46.3104 H         1 UNK         0.0800 
    143 H143        1.4441  -22.3906  -46.8362 H         1 UNK         0.0600 
    144 H144        0.8024  -20.5674  -44.7719 H         1 UNK         0.3000 
    145 H145       -1.1569  -22.8837  -42.8315 H         1 UNK         0.0600 
    146 H146        0.5267  -22.1821  -41.1647 H         1 UNK         0.0600 
    147 H147        1.2586  -23.2751  -42.3295 H         1 UNK         0.0600 
    148 H148        1.5714  -21.5471  -42.4330 H         1 UNK         0.0600 
    149 H149       -0.5176  -20.1668  -42.3455 H         1 UNK         0.3000 
    150 H150       -3.3585  -18.7278  -44.0270 H         1 UNK         0.0600 
    151 H151       -4.0741  -19.4550  -41.7440 H         1 UNK         0.0600 
    152 H152       -3.6116  -17.7599  -41.7662 H         1 UNK         0.0600 
    153 H153       -2.5164  -18.9632  -41.0901 H         1 UNK         0.0600 
    154 H154       -1.2517  -17.4602  -42.6450 H         1 UNK         0.3000 
    155 H155        1.0015  -17.0669  -45.4265 H         1 UNK         0.0600 
    156 H156       -0.6239  -15.2152  -45.4741 H         1 UNK         0.0600 
    157 H157        0.7474  -14.7600  -44.4747 H         1 UNK         0.0600 
    158 H158       -0.7660  -15.2290  -43.7186 H         1 UNK         0.0600 
    159 H159        1.3174  -16.3523  -42.7125 H         1 UNK         0.3000 
    160 H160        2.8035  -19.3963  -41.5298 H         1 UNK         0.0600 
    161 H161        3.8547  -16.5580  -42.0259 H         1 UNK         0.0600 
    162 H162        4.6030  -18.0454  -42.5853 H         1 UNK         0.0600 
    163 H163        4.5070  -17.7108  -40.8639 H         1 UNK         0.0600 
    164 H164        2.0915  -16.9080  -40.2788 H         1 UNK         0.3000 
    165 H165       -1.1356  -17.9002  -39.1455 H         1 UNK         0.0600 
    166 H166       -0.0998  -17.4021  -36.9490 H         1 UNK         0.0600 
    167 H167        0.4561  -18.9605  -37.5378 H         1 UNK         0.0600 
    168 H168        1.5154  -17.5592  -37.6400 H         1 UNK         0.0600 
    169 H169        0.4754  -15.5727  -38.6959 H         1 UNK         0.3000 
    170 H170       -0.6731  -13.6963  -41.5030 H         1 UNK         0.0600 
    171 H171       -2.4367  -13.4763  -39.7444 H         1 UNK         0.0600 
    172 H172       -1.1999  -13.4340  -38.4935 H         1 UNK         0.0600 
    173 H173       -1.3008  -12.1384  -39.6861 H         1 UNK         0.0600 
    174 H174        1.0888  -12.9860  -39.4014 H         1 UNK         0.3000 
    175 H175        3.3252  -12.4501  -40.2285 H         1 UNK         0.0600 
    176 H176        3.9661  -15.3924  -39.5355 H         1 UNK         0.0600 
    177 H177        4.8871  -13.9963  -38.9845 H         1 UNK         0.0600 
    178 H178        3.2393  -14.2307  -38.4304 H         1 UNK         0.0600 
    179 H179        3.8027  -14.2250  -42.3714 H         1 UNK         0.3000 
    180 H180        6.6732  -12.6023  -43.5518 H         1 UNK         0.0600 
    181 H181        6.3904  -15.5891  -42.8989 H         1 UNK         0.0600 
    182 H182        7.7549  -14.5668  -42.4653 H         1 UNK         0.0600 
    183 H183        7.4196  -14.9025  -44.1565 H         1 UNK         0.0600 
    184 H184        4.7528  -14.6257  -44.4508 H         1 UNK         0.3000 
    185 H185        2.8558  -14.1579  -45.3929 H         1 UNK         0.0600 
    186 H186        1.6321  -12.4471  -44.0351 H         1 UNK         0.0600 
    187 H187        1.9138  -11.2344  -45.2798 H         1 UNK         0.0600 
    188 H188        0.8970  -12.6283  -45.6226 H         1 UNK         0.0600 
    189 H189        3.7629  -12.0419  -47.2556 H         1 UNK         0.3000 
    190 H190       -1.2744  -20.0503  -46.5601 H         1 UNK         0.3000 
    191 H191       -2.5041  -20.6150  -49.0224 H         1 UNK         0.0600 
    192 H192       -3.0648  -18.6344  -47.6714 H         1 UNK         0.0600 
    193 H193       -4.5266  -19.5721  -47.9350 H         1 UNK         0.0600 
    194 H194       -3.7119  -19.6438  -46.3803 H         1 UNK         0.0600 
    195 H195       -2.9718  -22.1992  -45.8404 H         1 UNK         0.3000 
    196 H196       -5.0056  -24.0170  -46.6554 H         1 UNK         0.0600 
    197 H197       -4.3600  -25.2409  -44.5708 H         1 UNK         0.0600 
    198 H198       -4.5383  -23.5169  -44.2812 H         1 UNK         0.0600 
    199 H199       -2.9311  -24.2264  -44.4089 H         1 UNK         0.0600 
    200 H200       -1.4204  -24.3567  -46.5504 H         1 UNK         0.3000 
    201 H201       -1.3117  -27.0434  -47.4681 H         1 UNK         0.0600 
    202 H202        0.5627  -25.9424  -46.2863 H         1 UNK         0.0600 
    203 H203        0.7797  -24.8078  -47.6166 H         1 UNK         0.0600 
    204 H204        1.1026  -26.5210  -47.8552 H         1 UNK         0.0600 
    205 H205       -1.1540  -23.9368  -49.2437 H         1 UNK         0.3000 
    206 H206       -0.8062  -25.1113  -51.8517 H         1 UNK         0.0600 
    207 H207       -0.0528  -22.8103  -51.2805 H         1 UNK         0.0600 
    208 H208       -1.1974  -22.7680  -52.6098 H         1 UNK         0.0600 
    209 H209       -1.7197  -22.3137  -50.9896 H         1 UNK         0.0600 
    210 H210       -3.5670  -24.7551  -49.8496 H         1 UNK         0.3000 
    211 H211       -5.7548  -24.9926  -50.0173 H         1 UNK         0.0600 
    212 H212       -5.3082  -26.3239  -52.7451 H         1 UNK         0.0600 
    213 H213       -6.7532  -26.4322  -51.7524 H         1 UNK         0.0600 
    214 H214       -5.2522  -27.1507  -51.1883 H         1 UNK         0.0600 
    215 H215       -4.8967  -22.5524  -50.4047 H         1 UNK         0.3000 
    216 H216       -5.2591  -21.2126  -52.7972 H         1 UNK         0.0600 
    217 H217       -5.1911  -19.1626  -51.4126 H         1 UNK         0.0600 
    218 H218       -4.0553  -20.3414  -50.7790 H         1 UNK         0.0600 
    219 H219       -5.5995  -20.0883  -49.9716 H         1 UNK         0.0600 
    220 H220       -7.7836  -22.1205  -50.5390 H         1 UNK         0.3000 
    221 H221       -9.8490  -20.3500  -51.3888 H         1 UNK         0.0600 
    222 H222       -9.9969  -23.1528  -50.1512 H         1 UNK         0.0600 
    223 H223       -9.9345  -21.6297  -49.2625 H         1 UNK         0.0600 
    224 H224      -11.3329  -22.0124  -50.2531 H         1 UNK         0.0600 
    225 H225       -8.5044  -23.2125  -52.9055 H         1 UNK         0.3000 
    226 H226      -10.7020  -23.2496  -54.9514 H         1 UNK         0.0600 
    227 H227      -10.6106  -25.3512  -53.6399 H         1 UNK         0.0600 
    228 H228      -10.0681  -25.6339  -55.2870 H         1 UNK         0.0600 
    229 H229       -8.8906  -25.5246  -53.9825 H         1 UNK         0.0600 
    230 H230       -7.1603  -23.6030  -54.3781 H         1 UNK         0.3000 
    231 H231       -6.5806  -23.7264  -57.2217 H         1 UNK         0.0600 
    232 H232       -5.3729  -25.0808  -55.4992 H         1 UNK         0.0600 
    233 H233       -4.7446  -23.6047  -54.7728 H         1 UNK         0.0600 
    234 H234       -4.2649  -24.0598  -56.4024 H         1 UNK         0.0600 
    235 H235       -6.8449  -21.1217  -54.9632 H         1 UNK         0.3000 
    236 H236       -6.3936  -18.9622  -54.9280 H         1 UNK         0.0600 
    237 H237       -6.2619  -17.6658  -56.9854 H         1 UNK         0.0600 
    238 H238       -5.8255  -19.0810  -57.9283 H         1 UNK         0.0600 
    239 H239       -7.4320  -18.9538  -57.2114 H         1 UNK         0.0600 
    240 H240       -4.1267  -21.0588  -54.9665 H         1 UNK         0.3000 
    241 H241       -2.0291  -21.3477  -54.7019 H         1 UNK         0.0600 
    242 H242       -0.7626  -18.6298  -57.3282 H         1 UNK         0.3800 
    243 H243       -2.4041  -18.5786  -56.7043 H         1 UNK         0.3800 
    244 H244       -0.8980  -20.1422  -52.9356 H         1 UNK         0.0800 
    245 H245       -2.5608  -20.4354  -52.5383 H         1 UNK         0.0800 
    246 H246       -2.0556  -18.6856  -50.4870 H         1 UNK         0.0800 
    247 H247       -1.7203  -16.9917  -50.7262 H         1 UNK         0.0800 
@<TRIPOS>BOND
     1    1    2 1    
     2    1  127 1    
     3    1  128 1    
     4    1  129 1    
     5    2    3 2    
     6    2    4 am   BACKBONE|DICT|INTERRES
     7    4    5 1    
     8    4  130 1    
     9    5    6 1    
    10    5   65 1    
    11    5  131 1    
    12    6    7 1    
    13    6  132 1    
    14    6  133 1    
    15    7    8 1    
    16    8    9 1    
    17    8  134 1    
    18    8  135 1    
    19    9   10 ar   
    20    9   14 ar   
    21   10   11 ar   
    22   10  136 1    
    23   11   12 ar   
    24   11  126 1    
    25   12   13 ar   
    26   12  137 1    
    27   13   14 ar   
    28   13   15 1    
    29   14  138 1    
    30   15   16 1    
    31   15  139 1    
    32   15  140 1    
    33   16   17 1    
    34   17   18 1    
    35   17  141 1    
    36   17  142 1    
    37   18   19 1    
    38   18   67 1    
    39   18  143 1    
    40   19   20 am   BACKBONE|DICT|INTERRES
    41   19  144 1    
    42   20   21 2    
    43   20   22 1    
    44   22   23 1    
    45   22   24 1    
    46   22  145 1    
    47   23  146 1    
    48   23  147 1    
    49   23  148 1    
    50   24   25 am   BACKBONE|DICT|INTERRES
    51   24  149 1    
    52   25   26 2    
    53   25   27 1    
    54   27   28 1    
    55   27   29 1    
    56   27  150 1    
    57   28  151 1    
    58   28  152 1    
    59   28  153 1    
    60   29   30 am   BACKBONE|DICT|INTERRES
    61   29  154 1    
    62   30   31 2    
    63   30   32 1    
    64   32   33 1    
    65   32   34 1    
    66   32  155 1    
    67   33  156 1    
    68   33  157 1    
    69   33  158 1    
    70   34   35 am   BACKBONE|DICT|INTERRES
    71   34  159 1    
    72   35   36 2    
    73   35   37 1    
    74   37   38 1    
    75   37   39 1    
    76   37  160 1    
    77   38  161 1    
    78   38  162 1    
    79   38  163 1    
    80   39   40 am   BACKBONE|DICT|INTERRES
    81   39  164 1    
    82   40   41 2    
    83   40   42 1    
    84   42   43 1    
    85   42   44 1    
    86   42  165 1    
    87   43  166 1    
    88   43  167 1    
    89   43  168 1    
    90   44   45 am   BACKBONE|DICT|INTERRES
    91   44  169 1    
    92   45   46 2    
    93   45   47 1    
    94   47   48 1    
    95   47   49 1    
    96   47  170 1    
    97   48  171 1    
    98   48  172 1    
    99   48  173 1    
   100   49   50 am   BACKBONE|DICT|INTERRES
   101   49  174 1    
   102   50   51 2    
   103   50   52 1    
   104   52   53 1    
   105   52   54 1    
   106   52  175 1    
   107   53  176 1    
   108   53  177 1    
   109   53  178 1    
   110   54   55 am   BACKBONE|DICT|INTERRES
   111   54  179 1    
   112   55   56 2    
   113   55   57 1    
   114   57   58 1    
   115   57   59 1    
   116   57  180 1    
   117   58  181 1    
   118   58  182 1    
   119   58  183 1    
   120   59   60 am   BACKBONE|DICT|INTERRES
   121   59  184 1    
   122   60   61 2    
   123   60   62 1    
   124   62   63 1    
   125   62   64 1    
   126   62  185 1    
   127   63  186 1    
   128   63  187 1    
   129   63  188 1    
   130   64   65 am   BACKBONE|DICT|INTERRES
   131   64  189 1    
   132   65   66 2    
   133   67   68 2    
   134   67   69 am   BACKBONE|DICT|INTERRES
   135   69   70 1    
   136   69  190 1    
   137   70   71 1    
   138   70   72 1    
   139   70  191 1    
   140   71  192 1    
   141   71  193 1    
   142   71  194 1    
   143   72   73 2    
   144   72   74 am   BACKBONE|DICT|INTERRES
   145   74   75 1    
   146   74  195 1    
   147   75   76 1    
   148   75   77 1    
   149   75  196 1    
   150   76  197 1    
   151   76  198 1    
   152   76  199 1    
   153   77   78 2    
   154   77   79 am   BACKBONE|DICT|INTERRES
   155   79   80 1    
   156   79  200 1    
   157   80   81 1    
   158   80   82 1    
   159   80  201 1    
   160   81  202 1    
   161   81  203 1    
   162   81  204 1    
   163   82   83 2    
   164   82   84 am   BACKBONE|DICT|INTERRES
   165   84   85 1    
   166   84  205 1    
   167   85   86 1    
   168   85   87 1    
   169   85  206 1    
   170   86  207 1    
   171   86  208 1    
   172   86  209 1    
   173   87   88 2    
   174   87   89 am   BACKBONE|DICT|INTERRES
   175   89   90 1    
   176   89  210 1    
   177   90   91 1    
   178   90   92 1    
   179   90  211 1    
   180   91  212 1    
   181   91  213 1    
   182   91  214 1    
   183   92   93 2    
   184   92   94 am   BACKBONE|DICT|INTERRES
   185   94   95 1    
   186   94  215 1    
   187   95   96 1    
   188   95   97 1    
   189   95  216 1    
   190   96  217 1    
   191   96  218 1    
   192   96  219 1    
   193   97   98 2    
   194   97   99 am   BACKBONE|DICT|INTERRES
   195   99  100 1    
   196   99  220 1    
   197  100  101 1    
   198  100  102 1    
   199  100  221 1    
   200  101  222 1    
   201  101  223 1    
   202  101  224 1    
   203  102  103 2    
   204  102  104 am   BACKBONE|DICT|INTERRES
   205  104  105 1    
   206  104  225 1    
   207  105  106 1    
   208  105  107 1    
   209  105  226 1    
   210  106  227 1    
   211  106  228 1    
   212  106  229 1    
   213  107  108 2    
   214  107  109 am   BACKBONE|DICT|INTERRES
   215  109  110 1    
   216  109  230 1    
   217  110  111 1    
   218  110  112 1    
   219  110  231 1    
   220  111  232 1    
   221  111  233 1    
   222  111  234 1    
   223  112  113 2    
   224  112  114 am   BACKBONE|DICT|INTERRES
   225  114  115 1    
   226  114  235 1    
   227  115  116 1    
   228  115  117 1    
   229  115  236 1    
   230  116  237 1    
   231  116  238 1    
   232  116  239 1    
   233  117  118 2    
   234  117  119 am   BACKBONE|DICT|INTERRES
   235  119  120 1    
   236  119  240 1    
   237  120  121 1    
   238  120  124 1    
   239  120  241 1    
   240  121  122 am   BACKBONE|DICT|INTERRES
   241  121  123 2    
   242  122  242 1    
   243  122  243 1    
   244  124  125 1    
   245  124  244 1    
   246  124  245 1    
   247  125  126 1    
   248  126  246 1    
   249  126  247 1    
@<TRIPOS>SUBSTRUCTURE
     1 UNK         1 GROUP             0       ****    0 ROOT    
