@<TRIPOS>MOLECULE
3R540
247   249    1
SMALL
USER_CHARGES


@<TRIPOS>ATOM
      1 CA         -1.0194  -13.4465  -52.1638 C.3       0 UNK        -0.1800 
      2 C          -1.0937  -13.5212  -50.6460 C.2       0 UNK         0.5000 
      3 O          -0.2110  -12.9928  -49.9710 O.2       0 UNK        -0.5000 
      4 N          -2.1478  -14.1576  -50.1161 N.am      1 UNK        -0.5000 
      5 CA         -2.4062  -14.4440  -48.6968 C.3       1 UNK         0.1400 
      6 C6         -3.8124  -15.0755  -48.5185 C.3       23 UNK        -0.0398 
      7 S7         -4.1411  -15.7447  -46.8490 S.3       23 UNK        -0.2404 
      8 C8         -3.8360  -17.5212  -47.0931 C.3       23 UNK        -0.0205 
      9 C9         -2.3802  -17.7984  -47.4293 C.ar      23 UNK        -0.0193 
     10 C10        -2.0076  -18.1359  -48.7324 C.ar      23 UNK        -0.1150 
     11 C11        -0.6662  -18.3675  -49.0491 C.ar      23 UNK        -0.0193 
     12 C12         0.3000  -18.2924  -48.0421 C.ar      23 UNK        -0.1150 
     13 C13        -0.0614  -17.9606  -46.7340 C.ar      23 UNK        -0.0193 
     14 C14        -1.4027  -17.7054  -46.4366 C.ar      23 UNK        -0.1150 
     15 C15         1.0028  -17.8440  -45.6540 C.3       23 UNK        -0.0205 
     16 S16         1.3838  -19.4340  -44.8626 S.3       23 UNK        -0.2404 
     17 C17        -0.1866  -19.8348  -44.0270 C.3       23 UNK        -0.0398 
     18 CA         -0.9047  -21.0015  -44.7407 C.3       11 UNK         0.1400 
     19 N          -0.1260  -22.2361  -44.6331 N.am      11 UNK        -0.5000 
     20 C          -0.3875  -23.4036  -45.2309 C.2       10 UNK         0.5000 
     21 O          -1.3286  -23.5793  -46.0051 O.2       10 UNK        -0.5000 
     22 CA          0.5308  -24.5813  -44.8506 C.3       10 UNK         0.1400 
     23 CB          1.6527  -24.7382  -45.8867 C.3       10 UNK        -0.1800 
     24 N           1.1252  -24.4453  -43.5144 N.am      10 UNK        -0.5000 
     25 C           0.4431  -24.3849  -42.3626 C.2       9 UNK         0.5000 
     26 O          -0.7846  -24.4440  -42.3014 O.2       9 UNK        -0.5000 
     27 CA          1.2485  -24.1540  -41.0711 C.3       9 UNK         0.1400 
     28 CB          1.9525  -25.4426  -40.6048 C.3       9 UNK        -0.1800 
     29 N           2.1738  -23.0132  -41.1399 N.am      9 UNK        -0.5000 
     30 C           3.3067  -22.8784  -41.8459 C.2       8 UNK         0.5000 
     31 O           3.7395  -23.7462  -42.6057 O.2       8 UNK        -0.5000 
     32 CA          4.0741  -21.5454  -41.7067 C.3       8 UNK         0.1400 
     33 CB          4.4569  -20.9775  -43.0829 C.3       8 UNK        -0.1800 
     34 N           3.3304  -20.5206  -40.9643 N.am      8 UNK        -0.5000 
     35 C           3.3928  -20.3304  -39.6402 C.2       7 UNK         0.5000 
     36 O           4.0666  -21.0371  -38.8888 O.2       7 UNK        -0.5000 
     37 CA          2.5740  -19.1491  -39.0729 C.3       7 UNK         0.1400 
     38 CB          2.8044  -18.9360  -37.5654 C.3       7 UNK        -0.1800 
     39 N           2.8657  -17.8952  -39.7728 N.am      7 UNK        -0.5000 
     40 C           2.3076  -17.5063  -40.9242 C.2       6 UNK         0.5000 
     41 O           1.4770  -18.1806  -41.5395 O.2       6 UNK        -0.5000 
     42 CA          2.7851  -16.1666  -41.5006 C.3       6 UNK         0.1400 
     43 CB          4.1413  -16.3376  -42.2107 C.3       6 UNK        -0.1800 
     44 N           1.7841  -15.6886  -42.4467 N.am      6 UNK        -0.5000 
     45 C           1.6619  -14.4379  -42.9039 C.2       5 UNK         0.5000 
     46 O           2.3723  -13.4974  -42.5405 O.2       5 UNK        -0.5000 
     47 CA          0.5520  -14.2043  -43.9514 C.3       5 UNK         0.1400 
     48 CB         -0.3883  -13.0767  -43.4918 C.3       5 UNK        -0.1800 
     49 N           1.0219  -13.9032  -45.3116 N.am      5 UNK        -0.5000 
     50 C           2.1025  -14.3766  -45.9564 C.2       4 UNK         0.5000 
     51 O           2.9410  -15.1303  -45.4634 O.2       4 UNK        -0.5000 
     52 CA          2.2803  -13.9674  -47.4306 C.3       4 UNK         0.1400 
     53 CB          1.7999  -15.0931  -48.3597 C.3       4 UNK        -0.1800 
     54 N           1.5978  -12.7295  -47.8021 N.am      4 UNK        -0.5000 
     55 C           1.9856  -11.4986  -47.4434 C.2       3 UNK         0.5000 
     56 O           2.9349  -11.2707  -46.6930 O.2       3 UNK        -0.5000 
     57 CA          1.1880  -10.3244  -48.0352 C.3       3 UNK         0.1400 
     58 CB          1.7161   -9.9684  -49.4339 C.3       3 UNK        -0.1800 
     59 N          -0.2358  -10.6425  -48.1304 N.am      3 UNK        -0.5000 
     60 C          -1.1517  -10.2981  -47.2161 C.2       2 UNK         0.5000 
     61 O          -0.9023   -9.6182  -46.2198 O.2       2 UNK        -0.5000 
     62 CA         -2.5940  -10.7958  -47.4427 C.3       2 UNK         0.1400 
     63 CB         -3.4227   -9.7258  -48.1696 C.3       2 UNK        -0.1800 
     64 N          -2.6865  -12.0541  -48.1869 N.am      2 UNK        -0.5000 
     65 C          -2.2051  -13.2309  -47.7617 C.2       1 UNK         0.5000 
     66 O          -1.5867  -13.3727  -46.7070 O.2       1 UNK        -0.5000 
     67 C          -2.3528  -21.1517  -44.2285 C.2       11 UNK         0.5000 
     68 O          -3.2346  -20.4573  -44.7327 O.2       11 UNK        -0.5000 
     69 N          -2.6002  -22.0859  -43.2952 N.am      12 UNK        -0.5000 
     70 CA         -3.9435  -22.4239  -42.8100 C.3       12 UNK         0.1400 
     71 CB         -3.8289  -23.2858  -41.5440 C.3       12 UNK        -0.1800 
     72 C          -4.8049  -23.1359  -43.8739 C.2       12 UNK         0.5000 
     73 O          -6.0317  -23.0541  -43.8143 O.2       12 UNK        -0.5000 
     74 N          -4.1467  -23.7905  -44.8397 N.am      13 UNK        -0.5000 
     75 CA         -4.7516  -24.4040  -46.0216 C.3       13 UNK         0.1400 
     76 CB         -4.1132  -25.7894  -46.2281 C.3       13 UNK        -0.1800 
     77 C          -4.5667  -23.5220  -47.2741 C.2       13 UNK         0.5000 
     78 O          -4.8267  -23.9941  -48.3808 O.2       13 UNK        -0.5000 
     79 N          -4.0763  -22.2838  -47.0936 N.am      14 UNK        -0.5000 
     80 CA         -3.7267  -21.2980  -48.1232 C.3       14 UNK         0.1400 
     81 CB         -5.0018  -20.7105  -48.7602 C.3       14 UNK        -0.1800 
     82 C          -2.7045  -21.8182  -49.1588 C.2       14 UNK         0.5000 
     83 O          -2.7714  -21.4536  -50.3327 O.2       14 UNK        -0.5000 
     84 N          -1.7851  -22.6774  -48.6933 N.am      15 UNK        -0.5000 
     85 CA         -0.7798  -23.4110  -49.4659 C.3       15 UNK         0.1400 
     86 CB          0.2473  -22.4553  -50.1036 C.3       15 UNK        -0.1800 
     87 C          -1.3863  -24.4322  -50.4553 C.2       15 UNK         0.5000 
     88 O          -0.7831  -24.7233  -51.4905 O.2       15 UNK        -0.5000 
     89 N          -2.5506  -24.9917  -50.0900 N.am      16 UNK        -0.5000 
     90 CA         -3.2620  -26.0910  -50.7453 C.3       16 UNK         0.1400 
     91 CB         -2.4866  -27.4145  -50.5596 C.3       16 UNK        -0.1800 
     92 C          -3.6153  -25.7687  -52.2099 C.2       16 UNK         0.5000 
     93 O          -4.4676  -24.9142  -52.4463 O.2       16 UNK        -0.5000 
     94 N          -2.9606  -26.4371  -53.1691 N.am      17 UNK        -0.5000 
     95 CA         -3.1766  -26.2764  -54.6101 C.3       17 UNK         0.1400 
     96 CB         -2.3265  -27.3135  -55.3594 C.3       17 UNK        -0.1800 
     97 C          -2.8869  -24.8575  -55.1409 C.2       17 UNK         0.5000 
     98 O          -3.4639  -24.4635  -56.1553 O.2       17 UNK        -0.5000 
     99 N          -2.0224  -24.1073  -54.4437 N.am      18 UNK        -0.5000 
    100 CA        -1.6831  -22.7233  -54.7724 C.3       18 UNK         0.1400 
    101 CB        -0.3511  -22.3606  -54.1026 C.3       18 UNK        -0.1800 
    102 C         -2.7770  -21.7079  -54.3880 C.2       18 UNK         0.5000 
    103 O         -2.7129  -20.5702  -54.8560 O.2       18 UNK        -0.5000 
    104 N         -3.7650  -22.1101  -53.5713 N.am      19 UNK        -0.5000 
    105 CA        -4.8332  -21.2506  -53.0440 C.3       19 UNK         0.1400 
    106 CB        -5.7381  -22.0676  -52.1125 C.3       19 UNK        -0.1800 
    107 C         -5.6867  -20.5569  -54.1217 C.2       19 UNK         0.5000 
    108 O         -6.1950  -19.4632  -53.8758 O.2       19 UNK        -0.5000 
    109 N         -5.7912  -21.1759  -55.3060 N.am      20 UNK        -0.5000 
    110 CA        -6.4588  -20.6252  -56.4870 C.3       20 UNK         0.1400 
    111 CB        -6.4893  -21.6985  -57.5856 C.3       20 UNK        -0.1800 
    112 C         -5.8105  -19.3286  -57.0164 C.2       20 UNK         0.5000 
    113 O         -6.5126  -18.5016  -57.5998 O.2       20 UNK        -0.5000 
    114 N         -4.4987  -19.1706  -56.7945 N.am      21 UNK        -0.5000 
    115 CA        -3.7387  -17.9638  -57.1132 C.3       21 UNK         0.1400 
    116 CB        -2.4029  -18.3688  -57.7571 C.3       21 UNK        -0.1800 
    117 C         -3.4925  -17.1157  -55.8536 C.2       21 UNK         0.5000 
    118 O         -3.5772  -15.8891  -55.9240 O.2       21 UNK        -0.5000 
    119 N         -3.1759  -17.7794  -54.7340 N.am      22 UNK        -0.5000 
    120 CA        -2.8248  -17.1501  -53.4524 C.3       22 UNK         0.1400 
    121 C         -4.0166  -16.4999  -52.6916 C.2       22 UNK         0.5000 
    122 N         -5.2536  -16.9368  -52.8880 N.am      22 UNK        -0.7600 
    123 O         -3.8189  -15.5705  -51.9155 O.2       22 UNK        -0.5000 
    124 C124       -2.0419  -18.1400  -52.5495 C.3       23 UNK        -0.0398 
    125 S125       -0.6772  -17.3546  -51.6320 S.3       23 UNK        -0.2404 
    126 C126       -0.2574  -18.6974  -50.4755 C.3       23 UNK        -0.0205 
    127 H127       -1.9519  -13.7596  -52.6325 H         1 UNK         0.0600 
    128 H128       -0.2200  -14.0910  -52.5289 H         1 UNK         0.0600 
    129 H129       -0.8084  -12.4251  -52.4801 H         1 UNK         0.0600 
    130 H130       -2.8104  -14.5859  -50.7616 H         1 UNK         0.3000 
    131 H131       -1.6643  -15.1893  -48.4070 H         1 UNK         0.0600 
    132 H132       -3.9499  -15.8810  -49.2403 H         1 UNK         0.0800 
    133 H133       -4.5880  -14.3437  -48.7503 H         1 UNK         0.0800 
    134 H134       -4.4971  -17.8970  -47.8748 H         1 UNK         0.0800 
    135 H135       -4.1029  -18.0583  -46.1815 H         1 UNK         0.0800 
    136 H136       -2.7580  -18.1994  -49.5070 H         1 UNK         0.1150 
    137 H137        1.3387  -18.4780  -48.2763 H         1 UNK         0.1150 
    138 H138       -1.6934  -17.4238  -45.4349 H         1 UNK         0.1150 
    139 H139        1.9230  -17.4594  -46.0933 H         1 UNK         0.0800 
    140 H140        0.7019  -17.1249  -44.8944 H         1 UNK         0.0800 
    141 H141       -0.8129  -18.9443  -43.9785 H         1 UNK         0.0800 
    142 H142        0.0315  -20.0954  -42.9899 H         1 UNK         0.0800 
    143 H143       -0.9801  -20.7598  -45.8036 H         1 UNK         0.0600 
    144 H144        0.6844  -22.1923  -44.0342 H         1 UNK         0.3000 
    145 H145       -0.0783  -25.4874  -44.8575 H         1 UNK         0.0600 
    146 H146        2.2713  -25.6089  -45.6686 H         1 UNK         0.0600 
    147 H147        1.2448  -24.8737  -46.8890 H         1 UNK         0.0600 
    148 H148        2.3029  -23.8625  -45.9106 H         1 UNK         0.0600 
    149 H149        2.1366  -24.3571  -43.4601 H         1 UNK         0.3000 
    150 H150        0.5235  -23.8908  -40.2991 H         1 UNK         0.0600 
    151 H151        1.2283  -26.2426  -40.4459 H         1 UNK         0.0600 
    152 H152        2.4753  -25.2859  -39.6613 H         1 UNK         0.0600 
    153 H153        2.6776  -25.8043  -41.3340 H         1 UNK         0.0600 
    154 H154        1.9091  -22.2208  -40.5731 H         1 UNK         0.3000 
    155 H155        5.0016  -21.7696  -41.1760 H         1 UNK         0.0600 
    156 H156        3.5823  -20.8393  -43.7157 H         1 UNK         0.0600 
    157 H157        5.1356  -21.6496  -43.6094 H         1 UNK         0.0600 
    158 H158        4.9621  -20.0158  -42.9904 H         1 UNK         0.0600 
    159 H159        2.7419  -19.8970  -41.5058 H         1 UNK         0.3000 
    160 H160        1.5194  -19.3977  -39.2103 H         1 UNK         0.0600 
    161 H161        3.8451  -18.6940  -37.3466 H         1 UNK         0.0600 
    162 H162        2.5477  -19.8317  -36.9982 H         1 UNK         0.0600 
    163 H163        2.1842  -18.1250  -37.1831 H         1 UNK         0.0600 
    164 H164        3.5719  -17.3085  -39.3517 H         1 UNK         0.3000 
    165 H165        2.8798  -15.4487  -40.6834 H         1 UNK         0.0600 
    166 H166        4.5056  -15.3897  -42.6068 H         1 UNK         0.0600 
    167 H167        4.9019  -16.7154  -41.5266 H         1 UNK         0.0600 
    168 H168        4.0690  -17.0387  -43.0437 H         1 UNK         0.0600 
    169 H169        1.1480  -16.4140  -42.7527 H         1 UNK         0.3000 
    170 H170       -0.0487  -15.1117  -44.0227 H         1 UNK         0.0600 
    171 H171        0.1072  -12.1053  -43.5206 H         1 UNK         0.0600 
    172 H172       -1.2766  -13.0170  -44.1197 H         1 UNK         0.0600 
    173 H173       -0.7303  -13.2417  -42.4692 H         1 UNK         0.0600 
    174 H174        0.3786  -13.3475  -45.8632 H         1 UNK         0.3000 
    175 H175        3.3494  -13.8244  -47.6014 H         1 UNK         0.0600 
    176 H176        0.7357  -15.2920  -48.2304 H         1 UNK         0.0600 
    177 H177        1.9675  -14.8427  -49.4073 H         1 UNK         0.0600 
    178 H178        2.3357  -16.0213  -48.1596 H         1 UNK         0.0600 
    179 H179        0.8371  -12.8235  -48.4709 H         1 UNK         0.3000 
    180 H180        1.3393   -9.4565  -47.3898 H         1 UNK         0.0600 
    181 H181        1.1916   -9.1052  -49.8438 H         1 UNK         0.0600 
    182 H182        1.5967  -10.7961  -50.1344 H         1 UNK         0.0600 
    183 H183        2.7771   -9.7180  -49.3985 H         1 UNK         0.0600 
    184 H184       -0.5104  -11.2547  -48.8903 H         1 UNK         0.3000 
    185 H185       -3.0380  -10.9613  -46.4588 H         1 UNK         0.0600 
    186 H186       -4.4676  -10.0248  -48.2541 H         1 UNK         0.0600 
    187 H187       -3.4001   -8.7791  -47.6281 H         1 UNK         0.0600 
    188 H188       -3.0433   -9.5381  -49.1749 H         1 UNK         0.0600 
    189 H189       -3.1480  -12.0193  -49.0841 H         1 UNK         0.3000 
    190 H190       -1.8415  -22.6635  -42.9518 H         1 UNK         0.3000 
    191 H191       -4.4505  -21.4944  -42.5423 H         1 UNK         0.0600 
    192 H192       -4.8119  -23.4668  -41.1075 H         1 UNK         0.0600 
    193 H193       -3.2204  -22.7960  -40.7837 H         1 UNK         0.0600 
    194 H194       -3.3840  -24.2581  -41.7574 H         1 UNK         0.0600 
    195 H195       -3.1340  -23.7841  -44.8266 H         1 UNK         0.3000 
    196 H196       -5.8248  -24.5395  -45.8746 H         1 UNK         0.0600 
    197 H197       -3.0459  -25.7143  -46.4401 H         1 UNK         0.0600 
    198 H198       -4.2354  -26.4145  -45.3435 H         1 UNK         0.0600 
    199 H199       -4.5768  -26.3176  -47.0622 H         1 UNK         0.0600 
    200 H200       -3.9027  -21.9828  -46.1432 H         1 UNK         0.3000 
    201 H201       -3.2200  -20.4902  -47.5968 H         1 UNK         0.0600 
    202 H202       -4.7631  -19.9523  -49.5070 H         1 UNK         0.0600 
    203 H203       -5.6295  -20.2354  -48.0066 H         1 UNK         0.0600 
    204 H204       -5.5984  -21.4797  -49.2483 H         1 UNK         0.0600 
    205 H205       -1.8122  -22.9166  -47.7049 H         1 UNK         0.3000 
    206 H206       -0.2382  -24.0126  -48.7353 H         1 UNK         0.0600 
    207 H207        0.6839  -21.7923  -49.3565 H         1 UNK         0.0600 
    208 H208        1.0655  -23.0081  -50.5660 H         1 UNK         0.0600 
    209 H209       -0.2049  -21.8362  -50.8747 H         1 UNK         0.0600 
    210 H210       -3.0328  -24.5994  -49.2897 H         1 UNK         0.3000 
    211 H211       -4.2137  -26.1934  -50.2217 H         1 UNK         0.0600 
    212 H212       -3.0244  -28.2521  -51.0058 H         1 UNK         0.0600 
    213 H213       -2.3626  -27.6435  -49.5011 H         1 UNK         0.0600 
    214 H214       -1.4919  -27.3798  -51.0052 H         1 UNK         0.0600 
    215 H215       -2.2521  -27.1001  -52.8902 H         1 UNK         0.3000 
    216 H216       -4.2289  -26.4874  -54.8108 H         1 UNK         0.0600 
    217 H217       -1.2615  -27.1707  -55.1720 H         1 UNK         0.0600 
    218 H218       -2.4828  -27.2429  -56.4367 H         1 UNK         0.0600 
    219 H219       -2.5879  -28.3290  -55.0611 H         1 UNK         0.0600 
    220 H220       -1.6067  -24.4919  -53.6031 H         1 UNK         0.3000 
    221 H221       -1.5437  -22.6477  -55.8529 H         1 UNK         0.0600 
    222 H222        0.4522  -23.0157  -54.4398 H         1 UNK         0.0600 
    223 H223       -0.4191  -22.4450  -53.0201 H         1 UNK         0.0600 
    224 H224       -0.0567  -21.3364  -54.3360 H         1 UNK         0.0600 
    225 H225       -3.7657  -23.0677  -53.2388 H         1 UNK         0.3000 
    226 H226       -4.3549  -20.4680  -52.4524 H         1 UNK         0.0600 
    227 H227       -6.2661  -22.8538  -52.6534 H         1 UNK         0.0600 
    228 H228       -5.1615  -22.5398  -51.3171 H         1 UNK         0.0600 
    229 H229       -6.4882  -21.4327  -51.6394 H         1 UNK         0.0600 
    230 H230       -5.3324  -22.0688  -55.4179 H         1 UNK         0.3000 
    231 H231       -7.4876  -20.3880  -56.2085 H         1 UNK         0.0600 
    232 H232       -5.4834  -21.9996  -57.8812 H         1 UNK         0.0600 
    233 H233       -6.9984  -21.3311  -58.4777 H         1 UNK         0.0600 
    234 H234       -7.0221  -22.5894  -57.2526 H         1 UNK         0.0600 
    235 H235       -4.0042  -19.8866  -56.2746 H         1 UNK         0.3000 
    236 H236       -4.2834  -17.3471  -57.8311 H         1 UNK         0.0600 
    237 H237       -1.8045  -18.9925  -57.0916 H         1 UNK         0.0600 
    238 H238       -2.5653  -18.9255  -58.6801 H         1 UNK         0.0600 
    239 H239       -1.8079  -17.4897  -58.0077 H         1 UNK         0.0600 
    240 H240       -3.0904  -18.7915  -54.7732 H         1 UNK         0.3000 
    241 H241       -2.1522  -16.3278  -53.7051 H         1 UNK         0.0600 
    242 H242       -6.0093  -16.4904  -52.3949 H         1 UNK         0.3800 
    243 H243       -5.4537  -17.7445  -53.4699 H         1 UNK         0.3800 
    244 H244       -1.5736  -18.9178  -53.1534 H         1 UNK         0.0800 
    245 H245       -2.7062  -18.6674  -51.8624 H         1 UNK         0.0800 
    246 H246       -0.7442  -19.6236  -50.7780 H         1 UNK         0.0800 
    247 H247        0.8159  -18.8826  -50.5364 H         1 UNK         0.0800 
@<TRIPOS>BOND
     1    1    2 1    
     2    1  127 1    
     3    1  128 1    
     4    1  129 1    
     5    2    3 2    
     6    2    4 am   BACKBONE|DICT|INTERRES
     7    4    5 1    
     8    4  130 1    
     9    5    6 1    
    10    5   65 1    
    11    5  131 1    
    12    6    7 1    
    13    6  132 1    
    14    6  133 1    
    15    7    8 1    
    16    8    9 1    
    17    8  134 1    
    18    8  135 1    
    19    9   10 ar   
    20    9   14 ar   
    21   10   11 ar   
    22   10  136 1    
    23   11   12 ar   
    24   11  126 1    
    25   12   13 ar   
    26   12  137 1    
    27   13   14 ar   
    28   13   15 1    
    29   14  138 1    
    30   15   16 1    
    31   15  139 1    
    32   15  140 1    
    33   16   17 1    
    34   17   18 1    
    35   17  141 1    
    36   17  142 1    
    37   18   19 1    
    38   18   67 1    
    39   18  143 1    
    40   19   20 am   BACKBONE|DICT|INTERRES
    41   19  144 1    
    42   20   21 2    
    43   20   22 1    
    44   22   23 1    
    45   22   24 1    
    46   22  145 1    
    47   23  146 1    
    48   23  147 1    
    49   23  148 1    
    50   24   25 am   BACKBONE|DICT|INTERRES
    51   24  149 1    
    52   25   26 2    
    53   25   27 1    
    54   27   28 1    
    55   27   29 1    
    56   27  150 1    
    57   28  151 1    
    58   28  152 1    
    59   28  153 1    
    60   29   30 am   BACKBONE|DICT|INTERRES
    61   29  154 1    
    62   30   31 2    
    63   30   32 1    
    64   32   33 1    
    65   32   34 1    
    66   32  155 1    
    67   33  156 1    
    68   33  157 1    
    69   33  158 1    
    70   34   35 am   BACKBONE|DICT|INTERRES
    71   34  159 1    
    72   35   36 2    
    73   35   37 1    
    74   37   38 1    
    75   37   39 1    
    76   37  160 1    
    77   38  161 1    
    78   38  162 1    
    79   38  163 1    
    80   39   40 am   BACKBONE|DICT|INTERRES
    81   39  164 1    
    82   40   41 2    
    83   40   42 1    
    84   42   43 1    
    85   42   44 1    
    86   42  165 1    
    87   43  166 1    
    88   43  167 1    
    89   43  168 1    
    90   44   45 am   BACKBONE|DICT|INTERRES
    91   44  169 1    
    92   45   46 2    
    93   45   47 1    
    94   47   48 1    
    95   47   49 1    
    96   47  170 1    
    97   48  171 1    
    98   48  172 1    
    99   48  173 1    
   100   49   50 am   BACKBONE|DICT|INTERRES
   101   49  174 1    
   102   50   51 2    
   103   50   52 1    
   104   52   53 1    
   105   52   54 1    
   106   52  175 1    
   107   53  176 1    
   108   53  177 1    
   109   53  178 1    
   110   54   55 am   BACKBONE|DICT|INTERRES
   111   54  179 1    
   112   55   56 2    
   113   55   57 1    
   114   57   58 1    
   115   57   59 1    
   116   57  180 1    
   117   58  181 1    
   118   58  182 1    
   119   58  183 1    
   120   59   60 am   BACKBONE|DICT|INTERRES
   121   59  184 1    
   122   60   61 2    
   123   60   62 1    
   124   62   63 1    
   125   62   64 1    
   126   62  185 1    
   127   63  186 1    
   128   63  187 1    
   129   63  188 1    
   130   64   65 am   BACKBONE|DICT|INTERRES
   131   64  189 1    
   132   65   66 2    
   133   67   68 2    
   134   67   69 am   BACKBONE|DICT|INTERRES
   135   69   70 1    
   136   69  190 1    
   137   70   71 1    
   138   70   72 1    
   139   70  191 1    
   140   71  192 1    
   141   71  193 1    
   142   71  194 1    
   143   72   73 2    
   144   72   74 am   BACKBONE|DICT|INTERRES
   145   74   75 1    
   146   74  195 1    
   147   75   76 1    
   148   75   77 1    
   149   75  196 1    
   150   76  197 1    
   151   76  198 1    
   152   76  199 1    
   153   77   78 2    
   154   77   79 am   BACKBONE|DICT|INTERRES
   155   79   80 1    
   156   79  200 1    
   157   80   81 1    
   158   80   82 1    
   159   80  201 1    
   160   81  202 1    
   161   81  203 1    
   162   81  204 1    
   163   82   83 2    
   164   82   84 am   BACKBONE|DICT|INTERRES
   165   84   85 1    
   166   84  205 1    
   167   85   86 1    
   168   85   87 1    
   169   85  206 1    
   170   86  207 1    
   171   86  208 1    
   172   86  209 1    
   173   87   88 2    
   174   87   89 am   BACKBONE|DICT|INTERRES
   175   89   90 1    
   176   89  210 1    
   177   90   91 1    
   178   90   92 1    
   179   90  211 1    
   180   91  212 1    
   181   91  213 1    
   182   91  214 1    
   183   92   93 2    
   184   92   94 am   BACKBONE|DICT|INTERRES
   185   94   95 1    
   186   94  215 1    
   187   95   96 1    
   188   95   97 1    
   189   95  216 1    
   190   96  217 1    
   191   96  218 1    
   192   96  219 1    
   193   97   98 2    
   194   97   99 am   BACKBONE|DICT|INTERRES
   195   99  100 1    
   196   99  220 1    
   197  100  101 1    
   198  100  102 1    
   199  100  221 1    
   200  101  222 1    
   201  101  223 1    
   202  101  224 1    
   203  102  103 2    
   204  102  104 am   BACKBONE|DICT|INTERRES
   205  104  105 1    
   206  104  225 1    
   207  105  106 1    
   208  105  107 1    
   209  105  226 1    
   210  106  227 1    
   211  106  228 1    
   212  106  229 1    
   213  107  108 2    
   214  107  109 am   BACKBONE|DICT|INTERRES
   215  109  110 1    
   216  109  230 1    
   217  110  111 1    
   218  110  112 1    
   219  110  231 1    
   220  111  232 1    
   221  111  233 1    
   222  111  234 1    
   223  112  113 2    
   224  112  114 am   BACKBONE|DICT|INTERRES
   225  114  115 1    
   226  114  235 1    
   227  115  116 1    
   228  115  117 1    
   229  115  236 1    
   230  116  237 1    
   231  116  238 1    
   232  116  239 1    
   233  117  118 2    
   234  117  119 am   BACKBONE|DICT|INTERRES
   235  119  120 1    
   236  119  240 1    
   237  120  121 1    
   238  120  124 1    
   239  120  241 1    
   240  121  122 am   BACKBONE|DICT|INTERRES
   241  121  123 2    
   242  122  242 1    
   243  122  243 1    
   244  124  125 1    
   245  124  244 1    
   246  124  245 1    
   247  125  126 1    
   248  126  246 1    
   249  126  247 1    
@<TRIPOS>SUBSTRUCTURE
     1 UNK         1 GROUP             0       ****    0 ROOT    
