@<TRIPOS>MOLECULE
3R540
247   249    1
SMALL
USER_CHARGES


@<TRIPOS>ATOM
      1 CA         -0.4463  -12.4380  -53.2446 C.3       0 UNK        -0.1800 
      2 C           0.6250  -11.6901  -52.4624 C.2       0 UNK         0.5000 
      3 O           0.6900  -10.4620  -52.5284 O.2       0 UNK        -0.5000 
      4 N           1.4664  -12.4275  -51.7294 N.am      1 UNK        -0.5000 
      5 CA          2.4837  -11.9006  -50.8146 C.3       1 UNK         0.1400 
      6 C6          3.5689  -12.9680  -50.5128 C.3       23 UNK        -0.0398 
      7 S7          2.9415  -14.5343  -49.8043 S.3       23 UNK        -0.2404 
      8 C8          4.5231  -15.4110  -49.5779 C.3       23 UNK        -0.0205 
      9 C9          4.3553  -16.9112  -49.3709 C.ar      23 UNK        -0.0193 
     10 C10         3.7458  -17.6832  -50.3641 C.ar      23 UNK        -0.1150 
     11 C11         3.6916  -19.0731  -50.2497 C.ar      23 UNK        -0.0193 
     12 C12         4.2676  -19.6928  -49.1386 C.ar      23 UNK        -0.1150 
     13 C13         4.8643  -18.9390  -48.1223 C.ar      23 UNK        -0.0193 
     14 C14         4.8915  -17.5431  -48.2410 C.ar      23 UNK        -0.1150 
     15 C15         5.5666  -19.6339  -46.9545 C.3       23 UNK        -0.0205 
     16 S16         4.4332  -20.3215  -45.6958 S.3       23 UNK        -0.2404 
     17 C17         3.7060  -21.7320  -46.5918 C.3       23 UNK        -0.0398 
     18 CA          3.2209  -22.9211  -45.7204 C.3       11 UNK         0.1400 
     19 N           2.2389  -22.5485  -44.6957 N.am      11 UNK        -0.5000 
     20 C           1.7946  -23.3645  -43.7258 C.2       10 UNK         0.5000 
     21 O           2.2190  -24.5072  -43.5509 O.2       10 UNK        -0.5000 
     22 CA          0.6853  -22.8333  -42.7974 C.3       10 UNK         0.1400 
     23 CB          1.2814  -22.1503  -41.5565 C.3       10 UNK        -0.1800 
     24 N          -0.1977  -21.9037  -43.5005 N.am      10 UNK        -0.5000 
     25 C          -1.2811  -22.2808  -44.1951 C.2       9 UNK         0.5000 
     26 O          -1.7383  -23.4231  -44.1685 O.2       9 UNK        -0.5000 
     27 CA         -1.9735  -21.2244  -45.0826 C.3       9 UNK         0.1400 
     28 CB         -3.2611  -20.7069  -44.4256 C.3       9 UNK        -0.1800 
     29 N          -1.1175  -20.0923  -45.4356 N.am      9 UNK        -0.5000 
     30 C          -0.0261  -20.1853  -46.2075 C.2       8 UNK         0.5000 
     31 O           0.3220  -21.2220  -46.7701 O.2       8 UNK        -0.5000 
     32 CA          0.8603  -18.9344  -46.3186 C.3       8 UNK         0.1400 
     33 CB          0.4464  -18.0995  -47.5301 C.3       8 UNK        -0.1800 
     34 N           0.8486  -18.1138  -45.1054 N.am      8 UNK        -0.5000 
     35 C           1.2966  -18.5288  -43.9132 C.2       7 UNK         0.5000 
     36 O           1.7786  -19.6446  -43.7273 O.2       7 UNK        -0.5000 
     37 CA          1.0951  -17.5867  -42.7141 C.3       7 UNK         0.1400 
     38 CB          2.0452  -16.3814  -42.7423 C.3       7 UNK        -0.1800 
     39 N          -0.2912  -17.1331  -42.6076 N.am      7 UNK        -0.5000 
     40 C          -1.3004  -17.9228  -42.2168 C.2       6 UNK         0.5000 
     41 O          -1.1538  -19.0988  -41.8833 O.2       6 UNK        -0.5000 
     42 CA         -2.7126  -17.3086  -42.1836 C.3       6 UNK         0.1400 
     43 CB         -3.0305  -16.7832  -40.7754 C.3       6 UNK        -0.1800 
     44 N          -2.9511  -16.2366  -43.1534 N.am      6 UNK        -0.5000 
     45 C          -2.9098  -16.3618  -44.4874 C.2       5 UNK         0.5000 
     46 O          -2.5294  -17.3878  -45.0549 O.2       5 UNK        -0.5000 
     47 CA         -3.4056  -15.1537  -45.3184 C.3       5 UNK         0.1400 
     48 CB         -3.8522  -13.9437  -44.4718 C.3       5 UNK        -0.1800 
     49 N          -2.3747  -14.7079  -46.2489 N.am      5 UNK        -0.5000 
     50 C          -2.1533  -15.2208  -47.4638 C.2       4 UNK         0.5000 
     51 O          -2.8999  -16.0374  -48.0058 O.2       4 UNK        -0.5000 
     52 CA         -0.8968  -14.7422  -48.2258 C.3       4 UNK         0.1400 
     53 CB         -1.3143  -13.8760  -49.4235 C.3       4 UNK        -0.1800 
     54 N           0.1445  -14.0342  -47.4582 N.am      4 UNK        -0.5000 
     55 C           0.7610  -14.4671  -46.3443 C.2       3 UNK         0.5000 
     56 O           0.3807  -15.4392  -45.6958 O.2       3 UNK        -0.5000 
     57 CA          2.0198  -13.7242  -45.8525 C.3       3 UNK         0.1400 
     58 CB          3.2429  -14.6568  -45.9065 C.3       3 UNK        -0.1800 
     59 N           2.3298  -12.5208  -46.6193 N.am      3 UNK        -0.5000 
     60 C           1.8377  -11.2978  -46.3829 C.2       2 UNK         0.5000 
     61 O           1.0701  -11.0367  -45.4564 O.2       2 UNK        -0.5000 
     62 CA          2.2647  -10.1805  -47.3619 C.3       2 UNK         0.1400 
     63 CB          3.4138   -9.3540  -46.7646 C.3       2 UNK        -0.1800 
     64 N           2.6701  -10.6763  -48.6846 N.am      2 UNK        -0.5000 
     65 C           1.8540  -11.3317  -49.5218 C.2       1 UNK         0.5000 
     66 O           0.6663  -11.5325  -49.2631 O.2       1 UNK        -0.5000 
     67 C           2.6790  -24.0190  -46.6611 C.2       11 UNK         0.5000 
     68 O           3.3324  -25.0484  -46.8389 O.2       11 UNK        -0.5000 
     69 N           1.5243  -23.7470  -47.2817 N.am      12 UNK        -0.5000 
     70 CA          0.9533  -24.5325  -48.3711 C.3       12 UNK         0.1400 
     71 CB          0.6115  -23.5822  -49.5270 C.3       12 UNK        -0.1800 
     72 C          -0.2905  -25.3082  -47.9158 C.2       12 UNK         0.5000 
     73 O          -1.0769  -24.8110  -47.1055 O.2       12 UNK        -0.5000 
     74 N          -0.4436  -26.5135  -48.4782 N.am      13 UNK        -0.5000 
     75 CA         -1.4935  -27.4857  -48.1763 C.3       13 UNK         0.1400 
     76 CB         -1.2285  -28.7600  -48.9934 C.3       13 UNK        -0.1800 
     77 C          -2.9217  -26.9743  -48.4397 C.2       13 UNK         0.5000 
     78 O          -3.1302  -26.1032  -49.2901 O.2       13 UNK        -0.5000 
     79 N          -3.8771  -27.5554  -47.6989 N.am      14 UNK        -0.5000 
     80 CA         -5.3170  -27.2726  -47.7306 C.3       14 UNK         0.1400 
     81 CB         -5.9350  -27.7659  -49.0559 C.3       14 UNK        -0.1800 
     82 C          -5.6414  -25.7955  -47.4279 C.2       14 UNK         0.5000 
     83 O          -6.5361  -25.2234  -48.0499 O.2       14 UNK        -0.5000 
     84 N          -4.8757  -25.2006  -46.4997 N.am      15 UNK        -0.5000 
     85 CA         -4.8945  -23.7850  -46.1198 C.3       15 UNK         0.1400 
     86 CB         -6.2009  -23.4348  -45.3762 C.3       15 UNK        -0.1800 
     87 C          -4.6233  -22.8668  -47.3283 C.2       15 UNK         0.5000 
     88 O          -5.4248  -21.9792  -47.6209 O.2       15 UNK        -0.5000 
     89 N          -3.5151  -23.1390  -48.0339 N.am      16 UNK        -0.5000 
     90 CA         -3.0987  -22.5024  -49.2878 C.3       16 UNK         0.1400 
     91 CB         -2.6659  -21.0402  -49.0510 C.3       16 UNK        -0.1800 
     92 C          -4.1608  -22.6442  -50.3947 C.2       16 UNK         0.5000 
     93 O          -4.5747  -21.6447  -50.9864 O.2       16 UNK        -0.5000 
     94 N          -4.5947  -23.8937  -50.6207 N.am      17 UNK        -0.5000 
     95 CA         -5.6144  -24.3125  -51.5888 C.3       17 UNK         0.1400 
     96 CB         -5.0683  -24.1869  -53.0260 C.3       17 UNK        -0.1800 
     97 C          -6.9642  -23.5899  -51.3872 C.2       17 UNK         0.5000 
     98 O          -7.5163  -23.0292  -52.3350 O.2       17 UNK        -0.5000 
     99 N          -7.4544  -23.6118  -50.1399 N.am      18 UNK        -0.5000 
    100 CA        -8.6568  -22.9398  -49.6419 C.3       18 UNK         0.1400 
    101 CB        -9.9296  -23.5322  -50.2828 C.3       18 UNK        -0.1800 
    102 C         -8.5607  -21.4053  -49.7645 C.2       18 UNK         0.5000 
    103 O         -9.4792  -20.7629  -50.2777 O.2       18 UNK        -0.5000 
    104 N         -7.4391  -20.8569  -49.2753 N.am      19 UNK        -0.5000 
    105 CA        -7.0806  -19.4387  -49.2308 C.3       19 UNK         0.1400 
    106 CB        -7.9836  -18.6822  -48.2347 C.3       19 UNK        -0.1800 
    107 C         -7.0277  -18.7835  -50.6257 C.2       19 UNK         0.5000 
    108 O         -7.5949  -17.7094  -50.8324 O.2       19 UNK        -0.5000 
    109 N         -6.3104  -19.4249  -51.5572 N.am      20 UNK        -0.5000 
    110 CA        -6.0855  -18.9540  -52.9282 C.3       20 UNK         0.1400 
    111 CB        -5.8989  -20.1761  -53.8438 C.3       20 UNK        -0.1800 
    112 C         -4.8949  -17.9736  -53.0360 C.2       20 UNK         0.5000 
    113 O         -4.2692  -17.8838  -54.0944 O.2       20 UNK        -0.5000 
    114 N         -4.5628  -17.2913  -51.9285 N.am      21 UNK        -0.5000 
    115 CA        -3.4588  -16.3378  -51.7479 C.3       21 UNK         0.1400 
    116 CB        -3.7134  -15.0559  -52.5679 C.3       21 UNK        -0.1800 
    117 C         -2.0598  -16.9377  -52.0145 C.2       21 UNK         0.5000 
    118 O         -1.1153  -16.1981  -52.2937 O.2       21 UNK        -0.5000 
    119 N         -1.9616  -18.2714  -51.9352 N.am      22 UNK        -0.5000 
    120 CA        -0.8009  -19.0816  -52.3300 C.3       22 UNK         0.1400 
    121 C         -0.5300  -19.1170  -53.8676 C.2       22 UNK         0.5000 
    122 N         -1.4807  -18.7436  -54.7181 N.am      22 UNK        -0.7600 
    123 O          0.5462  -19.5134  -54.3062 O.2       22 UNK        -0.5000 
    124 C124        0.4630  -18.7676  -51.4778 C.3       23 UNK        -0.0398 
    125 S125        1.3131  -20.2907  -50.9419 S.3       23 UNK        -0.2404 
    126 C126        3.0462  -19.9150  -51.3391 C.3       23 UNK        -0.0205 
    127 H127       -0.3416  -12.2403  -54.3113 H         1 UNK         0.0600 
    128 H128       -1.4370  -12.1099  -52.9303 H         1 UNK         0.0600 
    129 H129       -0.3828  -13.5158  -53.0901 H         1 UNK         0.0600 
    130 H130        1.3452  -13.4298  -51.6969 H         1 UNK         0.3000 
    131 H131        2.9771  -11.0643  -51.3143 H         1 UNK         0.0600 
    132 H132        4.0866  -13.2106  -51.4420 H         1 UNK         0.0800 
    133 H133        4.3391  -12.5655  -49.8530 H         1 UNK         0.0800 
    134 H134        5.1451  -15.2632  -50.4618 H         1 UNK         0.0800 
    135 H135        5.0653  -14.9604  -48.7455 H         1 UNK         0.0800 
    136 H136        3.3352  -17.1998  -51.2393 H         1 UNK         0.1150 
    137 H137        4.2633  -20.7703  -49.0856 H         1 UNK         0.1150 
    138 H138        5.3790  -16.9521  -47.4785 H         1 UNK         0.1150 
    139 H139        6.2098  -20.4275  -47.3373 H         1 UNK         0.0800 
    140 H140        6.2346  -18.9303  -46.4556 H         1 UNK         0.0800 
    141 H141        4.4624  -22.1017  -47.2859 H         1 UNK         0.0800 
    142 H142        2.8937  -21.3434  -47.2065 H         1 UNK         0.0800 
    143 H143        4.0906  -23.3291  -45.2011 H         1 UNK         0.0600 
    144 H144        1.8866  -21.6007  -44.7326 H         1 UNK         0.3000 
    145 H145        0.1050  -23.6903  -42.4492 H         1 UNK         0.0600 
    146 H146        0.4992  -21.7385  -40.9184 H         1 UNK         0.0600 
    147 H147        1.8480  -22.8650  -40.9585 H         1 UNK         0.0600 
    148 H148        1.9605  -21.3399  -41.8188 H         1 UNK         0.0600 
    149 H149        0.1170  -20.9423  -43.5557 H         1 UNK         0.3000 
    150 H150       -2.2449  -21.7260  -46.0110 H         1 UNK         0.0600 
    151 H151       -3.9364  -21.5265  -44.1809 H         1 UNK         0.0600 
    152 H152       -3.7981  -20.0284  -45.0891 H         1 UNK         0.0600 
    153 H153       -3.0494  -20.1770  -43.4986 H         1 UNK         0.0600 
    154 H154       -1.3731  -19.1847  -45.0613 H         1 UNK         0.3000 
    155 H155        1.8844  -19.2658  -46.4856 H         1 UNK         0.0600 
    156 H156        0.4521  -18.7157  -48.4272 H         1 UNK         0.0600 
    157 H157        1.1373  -17.2731  -47.6973 H         1 UNK         0.0600 
    158 H158       -0.5599  -17.6997  -47.4087 H         1 UNK         0.0600 
    159 H159        0.4838  -17.1675  -45.2017 H         1 UNK         0.3000 
    160 H160        1.3361  -18.1618  -41.8171 H         1 UNK         0.0600 
    161 H161        1.7351  -15.6391  -43.4740 H         1 UNK         0.0600 
    162 H162        3.0649  -16.6856  -42.9823 H         1 UNK         0.0600 
    163 H163        2.0737  -15.8883  -41.7706 H         1 UNK         0.0600 
    164 H164       -0.4957  -16.1902  -42.9040 H         1 UNK         0.3000 
    165 H165       -3.4189  -18.1095  -42.4084 H         1 UNK         0.0600 
    166 H166       -4.0645  -16.4454  -40.7030 H         1 UNK         0.0600 
    167 H167       -2.8933  -17.5640  -40.0259 H         1 UNK         0.0600 
    168 H168       -2.3833  -15.9488  -40.5021 H         1 UNK         0.0600 
    169 H169       -3.2637  -15.3561  -42.7711 H         1 UNK         0.3000 
    170 H170       -4.2752  -15.4980  -45.8818 H         1 UNK         0.0600 
    171 H171       -4.6678  -14.2079  -43.7972 H         1 UNK         0.0600 
    172 H172       -3.0347  -13.5370  -43.8750 H         1 UNK         0.0600 
    173 H173       -4.2212  -13.1408  -45.1105 H         1 UNK         0.0600 
    174 H174       -1.6694  -14.0899  -45.8761 H         1 UNK         0.3000 
    175 H175       -0.4275  -15.6386  -48.6318 H         1 UNK         0.0600 
    176 H176       -1.6520  -12.8888  -49.1067 H         1 UNK         0.0600 
    177 H177       -0.4867  -13.7496  -50.1199 H         1 UNK         0.0600 
    178 H178       -2.1283  -14.3293  -49.9858 H         1 UNK         0.0600 
    179 H179        0.5001  -13.1942  -47.8990 H         1 UNK         0.3000 
    180 H180        1.8471  -13.4524  -44.8092 H         1 UNK         0.0600 
    181 H181        4.1243  -14.1785  -45.4794 H         1 UNK         0.0600 
    182 H182        3.4796  -14.9465  -46.9280 H         1 UNK         0.0600 
    183 H183        3.0744  -15.5794  -45.3520 H         1 UNK         0.0600 
    184 H184        2.9461  -12.6414  -47.4089 H         1 UNK         0.3000 
    185 H185        1.4046   -9.5218  -47.4993 H         1 UNK         0.0600 
    186 H186        3.1370   -8.9458  -45.7916 H         1 UNK         0.0600 
    187 H187        4.3121   -9.9565  -46.6240 H         1 UNK         0.0600 
    188 H188        3.6701   -8.5114  -47.4070 H         1 UNK         0.0600 
    189 H189        3.6337  -10.5221  -48.9449 H         1 UNK         0.3000 
    190 H190        1.0207  -22.8946  -47.0400 H         1 UNK         0.3000 
    191 H191        1.6877  -25.2516  -48.7404 H         1 UNK         0.0600 
    192 H192        1.5198  -23.1763  -49.9721 H         1 UNK         0.0600 
    193 H193        0.0629  -24.0937  -50.3189 H         1 UNK         0.0600 
    194 H194        0.0079  -22.7397  -49.1887 H         1 UNK         0.0600 
    195 H195        0.2323  -26.8075  -49.1676 H         1 UNK         0.3000 
    196 H196       -1.4096  -27.7290  -47.1151 H         1 UNK         0.0600 
    197 H197       -1.9678  -29.5314  -48.7734 H         1 UNK         0.0600 
    198 H198       -0.2485  -29.1800  -48.7657 H         1 UNK         0.0600 
    199 H199       -1.2698  -28.5641  -50.0658 H         1 UNK         0.0600 
    200 H200       -3.5963  -28.2629  -47.0338 H         1 UNK         0.3000 
    201 H201       -5.7668  -27.8510  -46.9224 H         1 UNK         0.0600 
    202 H202       -5.7282  -28.8241  -49.2149 H         1 UNK         0.0600 
    203 H203       -5.5455  -27.2185  -49.9136 H         1 UNK         0.0600 
    204 H204       -7.0190  -27.6459  -49.0542 H         1 UNK         0.0600 
    205 H205       -4.1502  -25.7558  -46.0683 H         1 UNK         0.3000 
    206 H206       -4.0683  -23.6404  -45.4248 H         1 UNK         0.0600 
    207 H207       -6.3442  -24.0782  -44.5083 H         1 UNK         0.0600 
    208 H208       -6.1811  -22.4051  -45.0175 H         1 UNK         0.0600 
    209 H209       -7.0764  -23.5376  -46.0180 H         1 UNK         0.0600 
    210 H210       -2.9190  -23.8978  -47.7194 H         1 UNK         0.3000 
    211 H211       -2.2298  -23.0568  -49.6395 H         1 UNK         0.0600 
    212 H212       -3.4875  -20.4212  -48.6899 H         1 UNK         0.0600 
    213 H213       -2.2941  -20.5885  -49.9703 H         1 UNK         0.0600 
    214 H214       -1.8596  -20.9855  -48.3236 H         1 UNK         0.0600 
    215 H215       -4.1789  -24.6431  -50.0728 H         1 UNK         0.3000 
    216 H216       -5.8036  -25.3697  -51.4019 H         1 UNK         0.0600 
    217 H217       -5.7815  -24.5804  -53.7512 H         1 UNK         0.0600 
    218 H218       -4.1419  -24.7486  -53.1449 H         1 UNK         0.0600 
    219 H219       -4.8674  -23.1498  -53.2942 H         1 UNK         0.0600 
    220 H220       -6.9389  -24.1288  -49.4286 H         1 UNK         0.3000 
    221 H221       -8.7000  -23.1565  -48.5734 H         1 UNK         0.0600 
    222 H222       -9.9869  -23.3191  -51.3505 H         1 UNK         0.0600 
    223 H223       -9.9679  -24.6139  -50.1537 H         1 UNK         0.0600 
    224 H224      -10.8261  -23.1185  -49.8199 H         1 UNK         0.0600 
    225 H225       -6.7448  -21.4716  -48.8555 H         1 UNK         0.3000 
    226 H226       -6.0624  -19.4000  -48.8404 H         1 UNK         0.0600 
    227 H227       -7.9617  -19.1509  -47.2508 H         1 UNK         0.0600 
    228 H228       -7.6494  -17.6516  -48.1094 H         1 UNK         0.0600 
    229 H229       -9.0210  -18.6516  -48.5692 H         1 UNK         0.0600 
    230 H230       -5.8347  -20.2896  -51.3037 H         1 UNK         0.3000 
    231 H231       -6.9720  -18.4165  -53.2702 H         1 UNK         0.0600 
    232 H232       -4.9936  -20.7291  -53.5919 H         1 UNK         0.0600 
    233 H233       -5.8235  -19.8795  -54.8906 H         1 UNK         0.0600 
    234 H234       -6.7435  -20.8601  -53.7647 H         1 UNK         0.0600 
    235 H235       -5.1445  -17.4352  -51.1157 H         1 UNK         0.3000 
    236 H236       -3.4750  -16.0678  -50.6924 H         1 UNK         0.0600 
    237 H237       -4.6948  -14.6359  -52.3480 H         1 UNK         0.0600 
    238 H238       -2.9752  -14.2869  -52.3383 H         1 UNK         0.0600 
    239 H239       -3.6618  -15.2460  -53.6403 H         1 UNK         0.0600 
    240 H240       -2.7978  -18.7880  -51.7065 H         1 UNK         0.3000 
    241 H241       -1.1181  -20.0994  -52.1011 H         1 UNK         0.0600 
    242 H242       -1.2943  -18.7803  -55.7074 H         1 UNK         0.3800 
    243 H243       -2.3873  -18.4203  -54.3951 H         1 UNK         0.3800 
    244 H244        1.1452  -18.1060  -52.0135 H         1 UNK         0.0800 
    245 H245        0.1905  -18.2195  -50.5773 H         1 UNK         0.0800 
    246 H246        3.5904  -20.8546  -51.4448 H         1 UNK         0.0800 
    247 H247        3.1120  -19.4188  -52.3087 H         1 UNK         0.0800 
@<TRIPOS>BOND
     1    1    2 1    
     2    1  127 1    
     3    1  128 1    
     4    1  129 1    
     5    2    3 2    
     6    2    4 am   BACKBONE|DICT|INTERRES
     7    4    5 1    
     8    4  130 1    
     9    5    6 1    
    10    5   65 1    
    11    5  131 1    
    12    6    7 1    
    13    6  132 1    
    14    6  133 1    
    15    7    8 1    
    16    8    9 1    
    17    8  134 1    
    18    8  135 1    
    19    9   10 ar   
    20    9   14 ar   
    21   10   11 ar   
    22   10  136 1    
    23   11   12 ar   
    24   11  126 1    
    25   12   13 ar   
    26   12  137 1    
    27   13   14 ar   
    28   13   15 1    
    29   14  138 1    
    30   15   16 1    
    31   15  139 1    
    32   15  140 1    
    33   16   17 1    
    34   17   18 1    
    35   17  141 1    
    36   17  142 1    
    37   18   19 1    
    38   18   67 1    
    39   18  143 1    
    40   19   20 am   BACKBONE|DICT|INTERRES
    41   19  144 1    
    42   20   21 2    
    43   20   22 1    
    44   22   23 1    
    45   22   24 1    
    46   22  145 1    
    47   23  146 1    
    48   23  147 1    
    49   23  148 1    
    50   24   25 am   BACKBONE|DICT|INTERRES
    51   24  149 1    
    52   25   26 2    
    53   25   27 1    
    54   27   28 1    
    55   27   29 1    
    56   27  150 1    
    57   28  151 1    
    58   28  152 1    
    59   28  153 1    
    60   29   30 am   BACKBONE|DICT|INTERRES
    61   29  154 1    
    62   30   31 2    
    63   30   32 1    
    64   32   33 1    
    65   32   34 1    
    66   32  155 1    
    67   33  156 1    
    68   33  157 1    
    69   33  158 1    
    70   34   35 am   BACKBONE|DICT|INTERRES
    71   34  159 1    
    72   35   36 2    
    73   35   37 1    
    74   37   38 1    
    75   37   39 1    
    76   37  160 1    
    77   38  161 1    
    78   38  162 1    
    79   38  163 1    
    80   39   40 am   BACKBONE|DICT|INTERRES
    81   39  164 1    
    82   40   41 2    
    83   40   42 1    
    84   42   43 1    
    85   42   44 1    
    86   42  165 1    
    87   43  166 1    
    88   43  167 1    
    89   43  168 1    
    90   44   45 am   BACKBONE|DICT|INTERRES
    91   44  169 1    
    92   45   46 2    
    93   45   47 1    
    94   47   48 1    
    95   47   49 1    
    96   47  170 1    
    97   48  171 1    
    98   48  172 1    
    99   48  173 1    
   100   49   50 am   BACKBONE|DICT|INTERRES
   101   49  174 1    
   102   50   51 2    
   103   50   52 1    
   104   52   53 1    
   105   52   54 1    
   106   52  175 1    
   107   53  176 1    
   108   53  177 1    
   109   53  178 1    
   110   54   55 am   BACKBONE|DICT|INTERRES
   111   54  179 1    
   112   55   56 2    
   113   55   57 1    
   114   57   58 1    
   115   57   59 1    
   116   57  180 1    
   117   58  181 1    
   118   58  182 1    
   119   58  183 1    
   120   59   60 am   BACKBONE|DICT|INTERRES
   121   59  184 1    
   122   60   61 2    
   123   60   62 1    
   124   62   63 1    
   125   62   64 1    
   126   62  185 1    
   127   63  186 1    
   128   63  187 1    
   129   63  188 1    
   130   64   65 am   BACKBONE|DICT|INTERRES
   131   64  189 1    
   132   65   66 2    
   133   67   68 2    
   134   67   69 am   BACKBONE|DICT|INTERRES
   135   69   70 1    
   136   69  190 1    
   137   70   71 1    
   138   70   72 1    
   139   70  191 1    
   140   71  192 1    
   141   71  193 1    
   142   71  194 1    
   143   72   73 2    
   144   72   74 am   BACKBONE|DICT|INTERRES
   145   74   75 1    
   146   74  195 1    
   147   75   76 1    
   148   75   77 1    
   149   75  196 1    
   150   76  197 1    
   151   76  198 1    
   152   76  199 1    
   153   77   78 2    
   154   77   79 am   BACKBONE|DICT|INTERRES
   155   79   80 1    
   156   79  200 1    
   157   80   81 1    
   158   80   82 1    
   159   80  201 1    
   160   81  202 1    
   161   81  203 1    
   162   81  204 1    
   163   82   83 2    
   164   82   84 am   BACKBONE|DICT|INTERRES
   165   84   85 1    
   166   84  205 1    
   167   85   86 1    
   168   85   87 1    
   169   85  206 1    
   170   86  207 1    
   171   86  208 1    
   172   86  209 1    
   173   87   88 2    
   174   87   89 am   BACKBONE|DICT|INTERRES
   175   89   90 1    
   176   89  210 1    
   177   90   91 1    
   178   90   92 1    
   179   90  211 1    
   180   91  212 1    
   181   91  213 1    
   182   91  214 1    
   183   92   93 2    
   184   92   94 am   BACKBONE|DICT|INTERRES
   185   94   95 1    
   186   94  215 1    
   187   95   96 1    
   188   95   97 1    
   189   95  216 1    
   190   96  217 1    
   191   96  218 1    
   192   96  219 1    
   193   97   98 2    
   194   97   99 am   BACKBONE|DICT|INTERRES
   195   99  100 1    
   196   99  220 1    
   197  100  101 1    
   198  100  102 1    
   199  100  221 1    
   200  101  222 1    
   201  101  223 1    
   202  101  224 1    
   203  102  103 2    
   204  102  104 am   BACKBONE|DICT|INTERRES
   205  104  105 1    
   206  104  225 1    
   207  105  106 1    
   208  105  107 1    
   209  105  226 1    
   210  106  227 1    
   211  106  228 1    
   212  106  229 1    
   213  107  108 2    
   214  107  109 am   BACKBONE|DICT|INTERRES
   215  109  110 1    
   216  109  230 1    
   217  110  111 1    
   218  110  112 1    
   219  110  231 1    
   220  111  232 1    
   221  111  233 1    
   222  111  234 1    
   223  112  113 2    
   224  112  114 am   BACKBONE|DICT|INTERRES
   225  114  115 1    
   226  114  235 1    
   227  115  116 1    
   228  115  117 1    
   229  115  236 1    
   230  116  237 1    
   231  116  238 1    
   232  116  239 1    
   233  117  118 2    
   234  117  119 am   BACKBONE|DICT|INTERRES
   235  119  120 1    
   236  119  240 1    
   237  120  121 1    
   238  120  124 1    
   239  120  241 1    
   240  121  122 am   BACKBONE|DICT|INTERRES
   241  121  123 2    
   242  122  242 1    
   243  122  243 1    
   244  124  125 1    
   245  124  244 1    
   246  124  245 1    
   247  125  126 1    
   248  126  246 1    
   249  126  247 1    
@<TRIPOS>SUBSTRUCTURE
     1 UNK         1 GROUP             0       ****    0 ROOT    
