@<TRIPOS>MOLECULE
3R540
247   249    1
SMALL
USER_CHARGES


@<TRIPOS>ATOM
      1 CA          2.9553  -11.4391  -50.0973 C.3       0 UNK        -0.1800 
      2 C           3.3117  -12.5242  -49.0923 C.2       0 UNK         0.5000 
      3 O           2.4417  -13.3091  -48.7238 O.2       0 UNK        -0.5000 
      4 N           4.5722  -12.5387  -48.6380 N.am      1 UNK        -0.5000 
      5 CA          5.1979  -13.4781  -47.6908 C.3       1 UNK         0.1400 
      6 C6          5.8726  -14.6917  -48.4013 C.3       23 UNK        -0.0398 
      7 S7          4.7882  -15.7383  -49.4408 S.3       23 UNK        -0.2404 
      8 C8          4.8590  -17.3258  -48.5425 C.3       23 UNK        -0.0205 
      9 C9          3.8269  -18.3514  -49.0019 C.ar      23 UNK        -0.0193 
     10 C10         2.5174  -17.9741  -49.3198 C.ar      23 UNK        -0.1150 
     11 C11         1.5555  -18.9329  -49.6487 C.ar      23 UNK        -0.0193 
     12 C12         1.9109  -20.2849  -49.6621 C.ar      23 UNK        -0.1150 
     13 C13         3.2140  -20.6801  -49.3416 C.ar      23 UNK        -0.0193 
     14 C14         4.1674  -19.7073  -49.0247 C.ar      23 UNK        -0.1150 
     15 C15         3.5871  -22.1584  -49.3398 C.3       23 UNK        -0.0205 
     16 S16         4.2833  -22.7488  -47.7536 S.3       23 UNK        -0.2404 
     17 C17         3.0144  -22.2981  -46.5181 C.3       23 UNK        -0.0398 
     18 CA          1.9477  -23.3984  -46.2942 C.3       11 UNK         0.1400 
     19 N           1.3642  -23.3435  -44.9485 N.am      11 UNK        -0.5000 
     20 C           0.5756  -24.3012  -44.4356 C.2       10 UNK         0.5000 
     21 O           0.2896  -25.3376  -45.0322 O.2       10 UNK        -0.5000 
     22 CA         -0.0369  -24.0579  -43.0445 C.3       10 UNK         0.1400 
     23 CB          0.8889  -24.6057  -41.9487 C.3       10 UNK        -0.1800 
     24 N          -0.3396  -22.6568  -42.7595 N.am      10 UNK        -0.5000 
     25 C          -1.1417  -21.8601  -43.4790 C.2       9 UNK         0.5000 
     26 O          -1.7241  -22.2182  -44.5041 O.2       9 UNK        -0.5000 
     27 CA         -1.2935  -20.4075  -42.9847 C.3       9 UNK         0.1400 
     28 CB         -0.9855  -20.2293  -41.4823 C.3       9 UNK        -0.1800 
     29 N          -0.5042  -19.4452  -43.7575 N.am      9 UNK        -0.5000 
     30 C           0.7939  -19.5136  -44.0945 C.2       8 UNK         0.5000 
     31 O           1.5123  -20.4982  -43.9101 O.2       8 UNK        -0.5000 
     32 CA          1.4062  -18.2614  -44.7454 C.3       8 UNK         0.1400 
     33 CB          1.3369  -18.3549  -46.2699 C.3       8 UNK        -0.1800 
     34 N           0.7796  -17.0071  -44.3317 N.am      8 UNK        -0.5000 
     35 C           0.9198  -16.4472  -43.1228 C.2       7 UNK         0.5000 
     36 O           1.5205  -16.9732  -42.1855 O.2       7 UNK        -0.5000 
     37 CA          0.3009  -15.0530  -42.9403 C.3       7 UNK         0.1400 
     38 CB          1.2011  -13.9863  -43.5810 C.3       7 UNK        -0.1800 
     39 N          -1.0312  -14.9839  -43.5380 N.am      7 UNK        -0.5000 
     40 C          -2.1703  -15.2027  -42.8673 C.2       6 UNK         0.5000 
     41 O          -2.2223  -15.4168  -41.6556 O.2       6 UNK        -0.5000 
     42 CA         -3.4768  -15.1959  -43.6858 C.3       6 UNK         0.1400 
     43 CB         -4.1009  -13.7924  -43.6944 C.3       6 UNK        -0.1800 
     44 N          -3.2955  -15.6509  -45.0652 N.am      6 UNK        -0.5000 
     45 C          -2.9603  -16.9014  -45.4124 C.2       5 UNK         0.5000 
     46 O          -2.8069  -17.8163  -44.6046 O.2       5 UNK        -0.5000 
     47 CA         -2.7029  -17.1738  -46.9060 C.3       5 UNK         0.1400 
     48 CB         -3.9448  -17.7787  -47.5756 C.3       5 UNK        -0.1800 
     49 N          -2.2603  -16.0049  -47.6707 N.am      5 UNK        -0.5000 
     50 C          -1.1456  -15.2997  -47.4322 C.2       4 UNK         0.5000 
     51 O          -0.3903  -15.5302  -46.4843 O.2       4 UNK        -0.5000 
     52 CA         -0.8148  -14.1546  -48.4110 C.3       4 UNK         0.1400 
     53 CB         -2.0159  -13.6776  -49.2594 C.3       4 UNK        -0.1800 
     54 N          -0.1820  -13.0196  -47.7373 N.am      4 UNK        -0.5000 
     55 C          -0.7142  -12.2525  -46.7756 C.2       3 UNK         0.5000 
     56 O          -1.8373  -12.4341  -46.3020 O.2       3 UNK        -0.5000 
     57 CA          0.1665  -11.1019  -46.2569 C.3       3 UNK         0.1400 
     58 CB         -0.3908  -10.4467  -44.9757 C.3       3 UNK        -0.1800 
     59 N           1.5372  -11.5638  -46.0400 N.am      3 UNK        -0.5000 
     60 C           2.6263  -10.7833  -46.0304 C.2       2 UNK         0.5000 
     61 O           2.5963   -9.5745  -46.2620 O.2       2 UNK        -0.5000 
     62 CA          3.9793  -11.4496  -45.7037 C.3       2 UNK         0.1400 
     63 CB          4.5046  -10.9358  -44.3535 C.3       2 UNK        -0.1800 
     64 N           3.8666  -12.9089  -45.6190 N.am      2 UNK        -0.5000 
     65 C           4.3527  -13.8551  -46.4378 C.2       1 UNK         0.5000 
     66 O           4.1507  -15.0379  -46.1744 O.2       1 UNK        -0.5000 
     67 C           0.8503  -23.3296  -47.3726 C.2       11 UNK         0.5000 
     68 O           0.8366  -24.1495  -48.2906 O.2       11 UNK        -0.5000 
     69 N          -0.0751  -22.3729  -47.2127 N.am      12 UNK        -0.5000 
     70 CA         -1.2122  -22.1699  -48.1064 C.3       12 UNK         0.1400 
     71 CB         -1.8969  -20.8393  -47.7653 C.3       12 UNK        -0.1800 
     72 C          -2.2089  -23.3372  -48.0499 C.2       12 UNK         0.5000 
     73 O          -2.7536  -23.7144  -49.0875 O.2       12 UNK        -0.5000 
     74 N          -2.4108  -23.8983  -46.8504 N.am      13 UNK        -0.5000 
     75 CA         -3.2316  -25.0848  -46.6202 C.3       13 UNK         0.1400 
     76 CB         -3.4321  -25.2894  -45.1117 C.3       13 UNK        -0.1800 
     77 C          -2.6358  -26.3437  -47.2769 C.2       13 UNK         0.5000 
     78 O          -3.3599  -27.0593  -47.9685 O.2       13 UNK        -0.5000 
     79 N          -1.3268  -26.5710  -47.0877 N.am      14 UNK        -0.5000 
     80 CA         -0.5813  -27.6928  -47.6677 C.3       14 UNK         0.1400 
     81 CB          0.8276  -27.7497  -47.0584 C.3       14 UNK        -0.1800 
     82 C          -0.5000  -27.6347  -49.2033 C.2       14 UNK         0.5000 
     83 O          -0.6091  -28.6720  -49.8580 O.2       14 UNK        -0.5000 
     84 N          -0.3432  -26.4218  -49.7500 N.am      15 UNK        -0.5000 
     85 CA         -0.3575  -26.1485  -51.1880 C.3       15 UNK         0.1400 
     86 CB          0.2361  -24.7501  -51.4271 C.3       15 UNK        -0.1800 
     87 C          -1.7622  -26.2407  -51.8193 C.2       15 UNK         0.5000 
     88 O          -1.8617  -26.2855  -53.0459 O.2       15 UNK        -0.5000 
     89 N          -2.8126  -26.2219  -50.9818 N.am      16 UNK        -0.5000 
     90 CA         -4.2355  -26.1022  -51.3278 C.3       16 UNK         0.1400 
     91 CB         -4.7258  -27.3346  -52.1148 C.3       16 UNK        -0.1800 
     92 C          -4.5646  -24.7648  -52.0290 C.2       16 UNK         0.5000 
     93 O          -5.5271  -24.6777  -52.7929 O.2       16 UNK        -0.5000 
     94 N          -3.7496  -23.7430  -51.7439 N.am      17 UNK        -0.5000 
     95 CA         -3.8219  -22.4008  -52.3088 C.3       17 UNK         0.1400 
     96 CB         -2.3908  -21.8589  -52.4424 C.3       17 UNK        -0.1800 
     97 C          -4.6734  -21.4613  -51.4403 C.2       17 UNK         0.5000 
     98 O          -5.1301  -20.4318  -51.9417 O.2       17 UNK        -0.5000 
     99 N          -4.8807  -21.8211  -50.1628 N.am      18 UNK        -0.5000 
    100 CA        -5.6676  -21.0742  -49.1747 C.3       18 UNK         0.1400 
    101 CB        -5.6234  -21.8029  -47.8228 C.3       18 UNK        -0.1800 
    102 C         -7.1275  -20.8292  -49.5953 C.2       18 UNK         0.5000 
    103 O         -7.6768  -19.7734  -49.2827 O.2       18 UNK        -0.5000 
    104 N         -7.7036  -21.7750  -50.3502 N.am      19 UNK        -0.5000 
    105 CA        -9.0475  -21.6958  -50.9302 C.3       19 UNK         0.1400 
    106 CB        -9.3841  -23.0471  -51.5790 C.3       19 UNK        -0.1800 
    107 C         -9.2218  -20.5506  -51.9505 C.2       19 UNK         0.5000 
    108 O        -10.3458  -20.0911  -52.1547 O.2       19 UNK        -0.5000 
    109 N         -8.1120  -20.1047  -52.5529 N.am      20 UNK        -0.5000 
    110 CA        -8.0390  -18.9777  -53.4820 C.3       20 UNK         0.1400 
    111 CB        -7.3638  -19.4651  -54.7758 C.3       20 UNK        -0.1800 
    112 C         -7.2940  -17.7742  -52.8648 C.2       20 UNK         0.5000 
    113 O         -6.9689  -16.8359  -53.5928 O.2       20 UNK        -0.5000 
    114 N         -7.0353  -17.8187  -51.5463 N.am      21 UNK        -0.5000 
    115 CA        -6.2900  -16.8390  -50.7478 C.3       21 UNK         0.1400 
    116 CB        -7.0631  -15.5078  -50.6466 C.3       21 UNK        -0.1800 
    117 C         -4.8362  -16.6662  -51.2360 C.2       21 UNK         0.5000 
    118 O         -4.3859  -15.5437  -51.4674 O.2       21 UNK        -0.5000 
    119 N         -4.1372  -17.7995  -51.3801 N.am      22 UNK        -0.5000 
    120 CA        -2.8106  -17.9348  -52.0031 C.3       22 UNK         0.1400 
    121 C         -2.9013  -17.9281  -53.5566 C.2       22 UNK         0.5000 
    122 N         -3.8372  -18.6781  -54.1255 N.am      22 UNK        -0.7600 
    123 O         -2.1428  -17.2570  -54.2508 O.2       22 UNK        -0.5000 
    124 C124       -1.7289  -16.9941  -51.4016 C.3       23 UNK        -0.0398 
    125 S125       -0.0359  -17.6645  -51.5308 S.3       23 UNK        -0.2404 
    126 C126        0.1239  -18.5006  -49.9256 C.3       23 UNK        -0.0205 
    127 H127        2.1745  -10.7959  -49.6910 H         1 UNK         0.0600 
    128 H128        2.5833  -11.8895  -51.0175 H         1 UNK         0.0600 
    129 H129        3.8146  -10.8161  -50.3463 H         1 UNK         0.0600 
    130 H130        5.2044  -11.8388  -49.0001 H         1 UNK         0.3000 
    131 H131        6.0295  -12.9119  -47.2688 H         1 UNK         0.0600 
    132 H132        6.3933  -15.3140  -47.6716 H         1 UNK         0.0800 
    133 H133        6.6592  -14.3160  -49.0567 H         1 UNK         0.0800 
    134 H134        5.8670  -17.7307  -48.6441 H         1 UNK         0.0800 
    135 H135        4.6997  -17.1545  -47.4786 H         1 UNK         0.0800 
    136 H136        2.2315  -16.9323  -49.2790 H         1 UNK         0.1150 
    137 H137        1.1697  -21.0314  -49.9084 H         1 UNK         0.1150 
    138 H138        5.1713  -20.0137  -48.7658 H         1 UNK         0.1150 
    139 H139        2.7284  -22.7757  -49.6049 H         1 UNK         0.0800 
    140 H140        4.3265  -22.3271  -50.1236 H         1 UNK         0.0800 
    141 H141        2.5642  -21.3387  -46.7668 H         1 UNK         0.0800 
    142 H142        3.5551  -22.1244  -45.5866 H         1 UNK         0.0800 
    143 H143        2.4359  -24.3716  -46.3835 H         1 UNK         0.0600 
    144 H144        1.5134  -22.4929  -44.4143 H         1 UNK         0.3000 
    145 H145       -0.9780  -24.6082  -42.9989 H         1 UNK         0.0600 
    146 H146        0.4253  -24.5298  -40.9650 H         1 UNK         0.0600 
    147 H147        1.1153  -25.6592  -42.1190 H         1 UNK         0.0600 
    148 H148        1.8368  -24.0669  -41.9168 H         1 UNK         0.0600 
    149 H149        0.1256  -22.2543  -41.9593 H         1 UNK         0.3000 
    150 H150       -2.3410  -20.1451  -43.1390 H         1 UNK         0.0600 
    151 H151       -1.5593  -20.9296  -40.8738 H         1 UNK         0.0600 
    152 H152       -1.2525  -19.2252  -41.1518 H         1 UNK         0.0600 
    153 H153        0.0718  -20.3743  -41.2575 H         1 UNK         0.0600 
    154 H154       -1.0190  -18.6128  -44.0234 H         1 UNK         0.3000 
    155 H155        2.4590  -18.2207  -44.4580 H         1 UNK         0.0600 
    156 H156        0.3133  -18.4585  -46.6248 H         1 UNK         0.0600 
    157 H157        1.9045  -19.2072  -46.6375 H         1 UNK         0.0600 
    158 H158        1.7612  -17.4610  -46.7271 H         1 UNK         0.0600 
    159 H159        0.3068  -16.4813  -45.0630 H         1 UNK         0.3000 
    160 H160        0.2452  -14.8445  -41.8696 H         1 UNK         0.0600 
    161 H161        1.2808  -14.1285  -44.6592 H         1 UNK         0.0600 
    162 H162        2.2080  -14.0272  -43.1639 H         1 UNK         0.0600 
    163 H163        0.8146  -12.9850  -43.3962 H         1 UNK         0.0600 
    164 H164       -1.0742  -14.8577  -44.5418 H         1 UNK         0.3000 
    165 H165       -4.1761  -15.8769  -43.1961 H         1 UNK         0.0600 
    166 H166       -5.0573  -13.7880  -44.2173 H         1 UNK         0.0600 
    167 H167       -4.2848  -13.4411  -42.6782 H         1 UNK         0.0600 
    168 H168       -3.4490  -13.0649  -44.1792 H         1 UNK         0.0600 
    169 H169       -3.3695  -14.9496  -45.7883 H         1 UNK         0.3000 
    170 H170       -1.9043  -17.9133  -46.9552 H         1 UNK         0.0600 
    171 H171       -4.2961  -18.6556  -47.0297 H         1 UNK         0.0600 
    172 H172       -4.7683  -17.0651  -47.6167 H         1 UNK         0.0600 
    173 H173       -3.7215  -18.1009  -48.5919 H         1 UNK         0.0600 
    174 H174       -2.8498  -15.7189  -48.4384 H         1 UNK         0.3000 
    175 H175       -0.0654  -14.5555  -49.0950 H         1 UNK         0.0600 
    176 H176       -2.8515  -13.3484  -48.6407 H         1 UNK         0.0600 
    177 H177       -1.7317  -12.8423  -49.8995 H         1 UNK         0.0600 
    178 H178       -2.3811  -14.4642  -49.9181 H         1 UNK         0.0600 
    179 H179        0.7827  -12.8629  -48.0203 H         1 UNK         0.3000 
    180 H180        0.1742  -10.3493  -47.0480 H         1 UNK         0.0600 
    181 H181       -0.4604  -11.1609  -44.1556 H         1 UNK         0.0600 
    182 H182       -1.3909  -10.0461  -45.1457 H         1 UNK         0.0600 
    183 H183        0.2337   -9.6167  -44.6458 H         1 UNK         0.0600 
    184 H184        1.6529  -12.5594  -45.9166 H         1 UNK         0.3000 
    185 H185        4.6925  -11.1423  -46.4668 H         1 UNK         0.0600 
    186 H186        4.6332   -9.8526  -44.3678 H         1 UNK         0.0600 
    187 H187        3.8215  -11.1742  -43.5371 H         1 UNK         0.0600 
    188 H188        5.4750  -11.3723  -44.1164 H         1 UNK         0.0600 
    189 H189        3.3756  -13.2367  -44.8021 H         1 UNK         0.3000 
    190 H190       -0.0440  -21.8000  -46.3821 H         1 UNK         0.3000 
    191 H191       -0.8321  -22.1077  -49.1276 H         1 UNK         0.0600 
    192 H192       -1.1769  -20.0236  -47.7533 H         1 UNK         0.0600 
    193 H193       -2.6594  -20.5924  -48.5042 H         1 UNK         0.0600 
    194 H194       -2.3778  -20.8663  -46.7867 H         1 UNK         0.0600 
    195 H195       -1.9744  -23.4740  -46.0379 H         1 UNK         0.3000 
    196 H196       -4.2107  -24.9041  -47.0691 H         1 UNK         0.0600 
    197 H197       -4.1023  -26.1279  -44.9188 H         1 UNK         0.0600 
    198 H198       -3.8719  -24.4060  -44.6484 H         1 UNK         0.0600 
    199 H199       -2.4909  -25.5001  -44.6051 H         1 UNK         0.0600 
    200 H200       -0.7995  -25.9543  -46.4751 H         1 UNK         0.3000 
    201 H201       -1.1038  -28.6134  -47.3998 H         1 UNK         0.0600 
    202 H202        0.7839  -27.8984  -45.9795 H         1 UNK         0.0600 
    203 H203        1.3845  -26.8311  -47.2479 H         1 UNK         0.0600 
    204 H204        1.4031  -28.5765  -47.4765 H         1 UNK         0.0600 
    205 H205       -0.1818  -25.6261  -49.1391 H         1 UNK         0.3000 
    206 H206        0.2781  -26.8821  -51.6880 H         1 UNK         0.0600 
    207 H207        1.2568  -24.6852  -51.0500 H         1 UNK         0.0600 
    208 H208        0.2680  -24.5116  -52.4910 H         1 UNK         0.0600 
    209 H209       -0.3521  -23.9751  -50.9342 H         1 UNK         0.0600 
    210 H210       -2.6140  -26.1939  -49.9899 H         1 UNK         0.3000 
    211 H211       -4.7727  -26.0831  -50.3786 H         1 UNK         0.0600 
    212 H212       -4.2937  -27.3779  -53.1147 H         1 UNK         0.0600 
    213 H213       -5.8101  -27.3178  -52.2297 H         1 UNK         0.0600 
    214 H214       -4.4696  -28.2590  -51.5971 H         1 UNK         0.0600 
    215 H215       -3.0489  -23.8930  -51.0253 H         1 UNK         0.3000 
    216 H216       -4.2712  -22.4442  -53.3031 H         1 UNK         0.0600 
    217 H217       -2.3779  -20.9233  -52.9996 H         1 UNK         0.0600 
    218 H218       -1.7549  -22.5585  -52.9856 H         1 UNK         0.0600 
    219 H219       -1.9310  -21.6769  -51.4700 H         1 UNK         0.0600 
    220 H220       -4.4319  -22.6682  -49.8353 H         1 UNK         0.3000 
    221 H221       -5.1996  -20.0962  -49.0529 H         1 UNK         0.0600 
    222 H222       -5.9794  -22.8304  -47.9065 H         1 UNK         0.0600 
    223 H223       -4.6147  -21.8300  -47.4161 H         1 UNK         0.0600 
    224 H224       -6.2475  -21.2980  -47.0840 H         1 UNK         0.0600 
    225 H225       -7.1671  -22.6015  -50.5694 H         1 UNK         0.3000 
    226 H226       -9.7535  -21.5184  -50.1163 H         1 UNK         0.0600 
    227 H227       -9.3514  -23.8553  -50.8482 H         1 UNK         0.0600 
    228 H228      -10.3880  -23.0376  -52.0058 H         1 UNK         0.0600 
    229 H229       -8.6876  -23.2918  -52.3823 H         1 UNK         0.0600 
    230 H230       -7.2232  -20.5249  -52.3085 H         1 UNK         0.3000 
    231 H231       -9.0398  -18.6244  -53.7372 H         1 UNK         0.0600 
    232 H232       -7.9474  -20.2575  -55.2447 H         1 UNK         0.0600 
    233 H233       -6.3658  -19.8587  -54.5851 H         1 UNK         0.0600 
    234 H234       -7.2701  -18.6601  -55.5057 H         1 UNK         0.0600 
    235 H235       -7.3750  -18.6199  -51.0277 H         1 UNK         0.3000 
    236 H236       -6.2263  -17.2538  -49.7410 H         1 UNK         0.0600 
    237 H237       -6.5653  -14.8197  -49.9623 H         1 UNK         0.0600 
    238 H238       -7.1418  -15.0073  -51.6120 H         1 UNK         0.0600 
    239 H239       -8.0727  -15.6673  -50.2682 H         1 UNK         0.0600 
    240 H240       -4.6338  -18.6754  -51.2594 H         1 UNK         0.3000 
    241 H241       -2.5058  -18.9484  -51.7457 H         1 UNK         0.0600 
    242 H242       -3.9221  -18.6846  -55.1293 H         1 UNK         0.3800 
    243 H243       -4.4581  -19.2377  -53.5574 H         1 UNK         0.3800 
    244 H244       -1.9405  -16.8157  -50.3489 H         1 UNK         0.0800 
    245 H245       -1.7559  -16.0133  -51.8789 H         1 UNK         0.0800 
    246 H246       -0.5474  -19.3593  -49.9160 H         1 UNK         0.0800 
    247 H247       -0.2021  -17.8352  -49.1254 H         1 UNK         0.0800 
@<TRIPOS>BOND
     1    1    2 1    
     2    1  127 1    
     3    1  128 1    
     4    1  129 1    
     5    2    3 2    
     6    2    4 am   BACKBONE|DICT|INTERRES
     7    4    5 1    
     8    4  130 1    
     9    5    6 1    
    10    5   65 1    
    11    5  131 1    
    12    6    7 1    
    13    6  132 1    
    14    6  133 1    
    15    7    8 1    
    16    8    9 1    
    17    8  134 1    
    18    8  135 1    
    19    9   10 ar   
    20    9   14 ar   
    21   10   11 ar   
    22   10  136 1    
    23   11   12 ar   
    24   11  126 1    
    25   12   13 ar   
    26   12  137 1    
    27   13   14 ar   
    28   13   15 1    
    29   14  138 1    
    30   15   16 1    
    31   15  139 1    
    32   15  140 1    
    33   16   17 1    
    34   17   18 1    
    35   17  141 1    
    36   17  142 1    
    37   18   19 1    
    38   18   67 1    
    39   18  143 1    
    40   19   20 am   BACKBONE|DICT|INTERRES
    41   19  144 1    
    42   20   21 2    
    43   20   22 1    
    44   22   23 1    
    45   22   24 1    
    46   22  145 1    
    47   23  146 1    
    48   23  147 1    
    49   23  148 1    
    50   24   25 am   BACKBONE|DICT|INTERRES
    51   24  149 1    
    52   25   26 2    
    53   25   27 1    
    54   27   28 1    
    55   27   29 1    
    56   27  150 1    
    57   28  151 1    
    58   28  152 1    
    59   28  153 1    
    60   29   30 am   BACKBONE|DICT|INTERRES
    61   29  154 1    
    62   30   31 2    
    63   30   32 1    
    64   32   33 1    
    65   32   34 1    
    66   32  155 1    
    67   33  156 1    
    68   33  157 1    
    69   33  158 1    
    70   34   35 am   BACKBONE|DICT|INTERRES
    71   34  159 1    
    72   35   36 2    
    73   35   37 1    
    74   37   38 1    
    75   37   39 1    
    76   37  160 1    
    77   38  161 1    
    78   38  162 1    
    79   38  163 1    
    80   39   40 am   BACKBONE|DICT|INTERRES
    81   39  164 1    
    82   40   41 2    
    83   40   42 1    
    84   42   43 1    
    85   42   44 1    
    86   42  165 1    
    87   43  166 1    
    88   43  167 1    
    89   43  168 1    
    90   44   45 am   BACKBONE|DICT|INTERRES
    91   44  169 1    
    92   45   46 2    
    93   45   47 1    
    94   47   48 1    
    95   47   49 1    
    96   47  170 1    
    97   48  171 1    
    98   48  172 1    
    99   48  173 1    
   100   49   50 am   BACKBONE|DICT|INTERRES
   101   49  174 1    
   102   50   51 2    
   103   50   52 1    
   104   52   53 1    
   105   52   54 1    
   106   52  175 1    
   107   53  176 1    
   108   53  177 1    
   109   53  178 1    
   110   54   55 am   BACKBONE|DICT|INTERRES
   111   54  179 1    
   112   55   56 2    
   113   55   57 1    
   114   57   58 1    
   115   57   59 1    
   116   57  180 1    
   117   58  181 1    
   118   58  182 1    
   119   58  183 1    
   120   59   60 am   BACKBONE|DICT|INTERRES
   121   59  184 1    
   122   60   61 2    
   123   60   62 1    
   124   62   63 1    
   125   62   64 1    
   126   62  185 1    
   127   63  186 1    
   128   63  187 1    
   129   63  188 1    
   130   64   65 am   BACKBONE|DICT|INTERRES
   131   64  189 1    
   132   65   66 2    
   133   67   68 2    
   134   67   69 am   BACKBONE|DICT|INTERRES
   135   69   70 1    
   136   69  190 1    
   137   70   71 1    
   138   70   72 1    
   139   70  191 1    
   140   71  192 1    
   141   71  193 1    
   142   71  194 1    
   143   72   73 2    
   144   72   74 am   BACKBONE|DICT|INTERRES
   145   74   75 1    
   146   74  195 1    
   147   75   76 1    
   148   75   77 1    
   149   75  196 1    
   150   76  197 1    
   151   76  198 1    
   152   76  199 1    
   153   77   78 2    
   154   77   79 am   BACKBONE|DICT|INTERRES
   155   79   80 1    
   156   79  200 1    
   157   80   81 1    
   158   80   82 1    
   159   80  201 1    
   160   81  202 1    
   161   81  203 1    
   162   81  204 1    
   163   82   83 2    
   164   82   84 am   BACKBONE|DICT|INTERRES
   165   84   85 1    
   166   84  205 1    
   167   85   86 1    
   168   85   87 1    
   169   85  206 1    
   170   86  207 1    
   171   86  208 1    
   172   86  209 1    
   173   87   88 2    
   174   87   89 am   BACKBONE|DICT|INTERRES
   175   89   90 1    
   176   89  210 1    
   177   90   91 1    
   178   90   92 1    
   179   90  211 1    
   180   91  212 1    
   181   91  213 1    
   182   91  214 1    
   183   92   93 2    
   184   92   94 am   BACKBONE|DICT|INTERRES
   185   94   95 1    
   186   94  215 1    
   187   95   96 1    
   188   95   97 1    
   189   95  216 1    
   190   96  217 1    
   191   96  218 1    
   192   96  219 1    
   193   97   98 2    
   194   97   99 am   BACKBONE|DICT|INTERRES
   195   99  100 1    
   196   99  220 1    
   197  100  101 1    
   198  100  102 1    
   199  100  221 1    
   200  101  222 1    
   201  101  223 1    
   202  101  224 1    
   203  102  103 2    
   204  102  104 am   BACKBONE|DICT|INTERRES
   205  104  105 1    
   206  104  225 1    
   207  105  106 1    
   208  105  107 1    
   209  105  226 1    
   210  106  227 1    
   211  106  228 1    
   212  106  229 1    
   213  107  108 2    
   214  107  109 am   BACKBONE|DICT|INTERRES
   215  109  110 1    
   216  109  230 1    
   217  110  111 1    
   218  110  112 1    
   219  110  231 1    
   220  111  232 1    
   221  111  233 1    
   222  111  234 1    
   223  112  113 2    
   224  112  114 am   BACKBONE|DICT|INTERRES
   225  114  115 1    
   226  114  235 1    
   227  115  116 1    
   228  115  117 1    
   229  115  236 1    
   230  116  237 1    
   231  116  238 1    
   232  116  239 1    
   233  117  118 2    
   234  117  119 am   BACKBONE|DICT|INTERRES
   235  119  120 1    
   236  119  240 1    
   237  120  121 1    
   238  120  124 1    
   239  120  241 1    
   240  121  122 am   BACKBONE|DICT|INTERRES
   241  121  123 2    
   242  122  242 1    
   243  122  243 1    
   244  124  125 1    
   245  124  244 1    
   246  124  245 1    
   247  125  126 1    
   248  126  246 1    
   249  126  247 1    
@<TRIPOS>SUBSTRUCTURE
     1 UNK         1 GROUP             0       ****    0 ROOT    
