@<TRIPOS>MOLECULE
3R540
247   249    1
SMALL
USER_CHARGES


@<TRIPOS>ATOM
      1 CA          4.9526  -11.7820  -51.4565 C.3       0 UNK        -0.1800 
      2 C           4.9871  -12.1589  -49.9819 C.2       0 UNK         0.5000 
      3 O           5.7468  -11.5665  -49.2147 O.2       0 UNK        -0.5000 
      4 N           4.1753  -13.1459  -49.5865 N.am      1 UNK        -0.5000 
      5 CA          4.0035  -13.5927  -48.2016 C.3       1 UNK         0.1400 
      6 C6          3.3703  -15.0052  -48.1253 C.3       23 UNK        -0.0398 
      7 S7          1.8083  -15.1962  -49.0599 S.3       23 UNK        -0.2404 
      8 C8          2.2866  -16.3649  -50.3684 C.3       23 UNK        -0.0205 
      9 C9          1.0641  -17.0639  -50.9399 C.ar      23 UNK        -0.0193 
     10 C10         0.4970  -16.6553  -52.1521 C.ar      23 UNK        -0.1150 
     11 C11        -0.6197  -17.3224  -52.6694 C.ar      23 UNK        -0.0193 
     12 C12        -1.1739  -18.3923  -51.9628 C.ar      23 UNK        -0.1150 
     13 C13        -0.6108  -18.8092  -50.7563 C.ar      23 UNK        -0.0193 
     14 C14         0.5054  -18.1413  -50.2485 C.ar      23 UNK        -0.1150 
     15 C15        -1.1879  -19.9918  -50.0049 C.3       23 UNK        -0.0205 
     16 S16        -2.3957  -19.4437  -48.7599 S.3       23 UNK        -0.2404 
     17 C17        -2.7921  -20.9565  -47.8111 C.3       23 UNK        -0.0398 
     18 CA         -1.6434  -21.9803  -47.6415 C.3       11 UNK         0.1400 
     19 N          -0.4769  -21.4312  -46.9453 N.am      11 UNK        -0.5000 
     20 C           0.7044  -22.0578  -46.8488 C.2       10 UNK         0.5000 
     21 O           0.9393  -23.1525  -47.3598 O.2       10 UNK        -0.5000 
     22 CA          1.7899  -21.3773  -45.9977 C.3       10 UNK         0.1400 
     23 CB          2.4686  -20.2388  -46.7755 C.3       10 UNK        -0.1800 
     24 N           1.2703  -20.8786  -44.7240 N.am      10 UNK        -0.5000 
     25 C           0.7432  -21.6560  -43.7660 C.2       9 UNK         0.5000 
     26 O           0.6779  -22.8834  -43.8380 O.2       9 UNK        -0.5000 
     27 CA          0.1440  -20.9434  -42.5412 C.3       9 UNK         0.1400 
     28 CB          1.2462  -20.5225  -41.5578 C.3       9 UNK        -0.1800 
     29 N          -0.6593  -19.7778  -42.9054 N.am      9 UNK        -0.5000 
     30 C          -1.7720  -19.8160  -43.6514 C.2       8 UNK         0.5000 
     31 O          -2.2731  -20.8515  -44.0893 O.2       8 UNK        -0.5000 
     32 CA         -2.4013  -18.4613  -44.0172 C.3       8 UNK         0.1400 
     33 CB         -3.2312  -17.9046  -42.8505 C.3       8 UNK        -0.1800 
     34 N          -1.4074  -17.4708  -44.4317 N.am      8 UNK        -0.5000 
     35 C          -0.6060  -17.5994  -45.4986 C.2       7 UNK         0.5000 
     36 O          -0.5946  -18.5852  -46.2327 O.2       7 UNK        -0.5000 
     37 CA          0.3824  -16.4496  -45.7528 C.3       7 UNK         0.1400 
     38 CB         -0.3605  -15.2114  -46.2798 C.3       7 UNK        -0.1800 
     39 N           1.1424  -16.0904  -44.5554 N.am      7 UNK        -0.5000 
     40 C           1.9411  -16.9255  -43.8758 C.2       6 UNK         0.5000 
     41 O           2.1767  -18.0845  -44.2181 O.2       6 UNK        -0.5000 
     42 CA          2.5328  -16.3930  -42.5588 C.3       6 UNK         0.1400 
     43 CB          3.7289  -15.4680  -42.8274 C.3       6 UNK        -0.1800 
     44 N           1.5518  -15.7030  -41.7153 N.am      6 UNK        -0.5000 
     45 C           0.4273  -16.2486  -41.2329 C.2       5 UNK         0.5000 
     46 O           0.0629  -17.3920  -41.5047 O.2       5 UNK        -0.5000 
     47 CA         -0.4631  -15.4032  -40.3003 C.3       5 UNK         0.1400 
     48 CB         -0.2245  -15.7828  -38.8268 C.3       5 UNK        -0.1800 
     49 N          -0.3986  -13.9482  -40.4891 N.am      5 UNK        -0.5000 
     50 C           0.6059  -13.0963  -40.2502 C.2       4 UNK         0.5000 
     51 O           1.7327  -13.4457  -39.8958 O.2       4 UNK        -0.5000 
     52 CA          0.2921  -11.6057  -40.4990 C.3       4 UNK         0.1400 
     53 CB          1.3829  -10.6727  -39.9432 C.3       4 UNK        -0.1800 
     54 N           0.1233  -11.3255  -41.9234 N.am      4 UNK        -0.5000 
     55 C          -0.9146  -11.6875  -42.6903 C.2       3 UNK         0.5000 
     56 O          -1.9205  -12.2484  -42.2523 O.2       3 UNK        -0.5000 
     57 CA         -0.8078  -11.3884  -44.1999 C.3       3 UNK         0.1400 
     58 CB         -1.7006  -10.1963  -44.5767 C.3       3 UNK        -0.1800 
     59 N           0.5616  -11.1174  -44.6502 N.am      3 UNK        -0.5000 
     60 C           1.5402  -12.0293  -44.7062 C.2       2 UNK         0.5000 
     61 O           1.3981  -13.2089  -44.3771 O.2       2 UNK        -0.5000 
     62 CA          2.9230  -11.5184  -45.1425 C.3       2 UNK         0.1400 
     63 CB          3.8333  -11.3269  -43.9191 C.3       2 UNK        -0.1800 
     64 N           3.5618  -12.4392  -46.0808 N.am      2 UNK        -0.5000 
     65 C           3.2176  -12.5539  -47.3700 C.2       1 UNK         0.5000 
     66 O           2.3321  -11.8775  -47.9012 O.2       1 UNK        -0.5000 
     67 C          -2.1561  -23.2671  -46.9745 C.2       11 UNK         0.5000 
     68 O          -2.3967  -24.2455  -47.6834 O.2       11 UNK        -0.5000 
     69 N          -2.2865  -23.2625  -45.6404 N.am      12 UNK        -0.5000 
     70 CA         -2.7163  -24.4119  -44.8403 C.3       12 UNK         0.1400 
     71 CB         -2.8760  -23.9894  -43.3726 C.3       12 UNK        -0.1800 
     72 C          -1.7714  -25.6206  -44.9594 C.2       12 UNK         0.5000 
     73 O          -2.2473  -26.7530  -45.0444 O.2       12 UNK        -0.5000 
     74 N          -0.4581  -25.3565  -44.9967 N.am      13 UNK        -0.5000 
     75 CA          0.5775  -26.3609  -45.2332 C.3       13 UNK         0.1400 
     76 CB          1.9548  -25.7600  -44.9136 C.3       13 UNK        -0.1800 
     77 C           0.5481  -26.9197  -46.6684 C.2       13 UNK         0.5000 
     78 O           0.7817  -28.1149  -46.8532 O.2       13 UNK        -0.5000 
     79 N           0.2689  -26.0525  -47.6519 N.am      14 UNK        -0.5000 
     80 CA          0.2022  -26.4000  -49.0692 C.3       14 UNK         0.1400 
     81 CB          0.2294  -25.1225  -49.9253 C.3       14 UNK        -0.1800 
     82 C          -1.0152  -27.2739  -49.4182 C.2       14 UNK         0.5000 
     83 O          -0.8332  -28.3587  -49.9738 O.2       14 UNK        -0.5000 
     84 N          -2.2262  -26.7882  -49.1084 N.am      15 UNK        -0.5000 
     85 CA         -3.4860  -27.4340  -49.5044 C.3       15 UNK         0.1400 
     86 CB         -3.6866  -27.2978  -51.0306 C.3       15 UNK        -0.1800 
     87 C          -4.7370  -26.9004  -48.7810 C.2       15 UNK         0.5000 
     88 O          -5.7905  -27.5284  -48.8916 O.2       15 UNK        -0.5000 
     89 N          -4.6344  -25.7431  -48.1094 N.am      16 UNK        -0.5000 
     90 CA         -5.7298  -24.9430  -47.5422 C.3       16 UNK         0.1400 
     91 CB         -6.4859  -25.7101  -46.4374 C.3       16 UNK        -0.1800 
     92 C          -6.6613  -24.3450  -48.6222 C.2       16 UNK         0.5000 
     93 O          -7.8231  -24.0470  -48.3426 O.2       16 UNK        -0.5000 
     94 N          -6.1240  -24.1649  -49.8378 N.am      17 UNK        -0.5000 
     95 CA         -6.8287  -23.6374  -51.0091 C.3       17 UNK         0.1400 
     96 CB         -6.1041  -24.1318  -52.2722 C.3       17 UNK        -0.1800 
     97 C          -6.9336  -22.0996  -51.0230 C.2       17 UNK         0.5000 
     98 O          -7.7204  -21.5585  -51.8002 O.2       17 UNK        -0.5000 
     99 N          -6.1310  -21.4244  -50.1869 N.am      18 UNK        -0.5000 
    100 CA        -5.9657  -19.9697  -50.1143 C.3       18 UNK         0.1400 
    101 CB        -7.2591  -19.2900  -49.6093 C.3       18 UNK        -0.1800 
    102 C         -5.4198  -19.4061  -51.4448 C.2       18 UNK         0.5000 
    103 O         -4.4872  -19.9854  -52.0058 O.2       18 UNK        -0.5000 
    104 N         -6.0111  -18.3121  -51.9446 N.am      19 UNK        -0.5000 
    105 CA        -5.6275  -17.6313  -53.1855 C.3       19 UNK         0.1400 
    106 CB        -6.4729  -16.3591  -53.3415 C.3       19 UNK        -0.1800 
    107 C         -5.7313  -18.5035  -54.4530 C.2       19 UNK         0.5000 
    108 O         -5.0247  -18.2363  -55.4269 O.2       19 UNK        -0.5000 
    109 N         -6.5617  -19.5569  -54.4144 N.am      20 UNK        -0.5000 
    110 CA        -6.7135  -20.5415  -55.4893 C.3       20 UNK         0.1400 
    111 CB        -7.9441  -21.4184  -55.2152 C.3       20 UNK        -0.1800 
    112 C         -5.4582  -21.4083  -55.7255 C.2       20 UNK         0.5000 
    113 O         -5.3708  -22.0538  -56.7705 O.2       20 UNK        -0.5000 
    114 N         -4.4951  -21.3881  -54.7889 N.am      21 UNK        -0.5000 
    115 CA        -3.1585  -21.9554  -54.9790 C.3       21 UNK         0.1400 
    116 CB        -2.4269  -22.0104  -53.6294 C.3       21 UNK        -0.1800 
    117 C         -2.3249  -21.1761  -56.0199 C.2       21 UNK         0.5000 
    118 O         -1.4745  -21.7798  -56.6756 O.2       21 UNK        -0.5000 
    119 N         -2.5948  -19.8710  -56.1692 N.am      22 UNK        -0.5000 
    120 CA        -2.0304  -19.0133  -57.2239 C.3       22 UNK         0.1400 
    121 C         -3.0157  -18.8564  -58.4119 C.2       22 UNK         0.5000 
    122 N         -4.3046  -18.6547  -58.1634 N.am      22 UNK        -0.7600 
    123 O         -2.6093  -18.9207  -59.5688 O.2       22 UNK        -0.5000 
    124 C124       -1.6085  -17.6173  -56.6989 C.3       23 UNK        -0.0398 
    125 S125       -0.3555  -17.7186  -55.3770 S.3       23 UNK        -0.2404 
    126 C126       -1.2255  -16.9108  -53.9994 C.3       23 UNK        -0.0205 
    127 H127        5.9393  -11.9128  -51.9008 H         1 UNK         0.0600 
    128 H128        4.2443  -12.3947  -52.0150 H         1 UNK         0.0600 
    129 H129        4.6618  -10.7377  -51.5699 H         1 UNK         0.0600 
    130 H130        3.5377  -13.5619  -50.2497 H         1 UNK         0.3000 
    131 H131        5.0008  -13.6669  -47.7619 H         1 UNK         0.0600 
    132 H132        3.1815  -15.2838  -47.0867 H         1 UNK         0.0800 
    133 H133        4.0958  -15.7346  -48.4868 H         1 UNK         0.0800 
    134 H134        2.8332  -15.8361  -51.1505 H         1 UNK         0.0800 
    135 H135        2.9670  -17.1177  -49.9675 H         1 UNK         0.0800 
    136 H136        0.9286  -15.8281  -52.6980 H         1 UNK         0.1150 
    137 H137       -2.0396  -18.9055  -52.3557 H         1 UNK         0.1150 
    138 H138        0.9375  -18.4585  -49.3093 H         1 UNK         0.1150 
    139 H139       -1.6648  -20.6907  -50.6940 H         1 UNK         0.0800 
    140 H140       -0.3595  -20.5206  -49.5352 H         1 UNK         0.0800 
    141 H141       -3.6389  -21.4294  -48.3099 H         1 UNK         0.0800 
    142 H142       -3.1584  -20.6393  -46.8330 H         1 UNK         0.0800 
    143 H143       -1.3175  -22.2928  -48.6340 H         1 UNK         0.0600 
    144 H144       -0.5799  -20.5046  -46.5379 H         1 UNK         0.3000 
    145 H145        2.5493  -22.1286  -45.7715 H         1 UNK         0.0600 
    146 H146        3.2945  -19.8120  -46.2064 H         1 UNK         0.0600 
    147 H147        2.8765  -20.6005  -47.7201 H         1 UNK         0.0600 
    148 H148        1.7732  -19.4324  -47.0071 H         1 UNK         0.0600 
    149 H149        1.3104  -19.8744  -44.5785 H         1 UNK         0.3000 
    150 H150       -0.5126  -21.6522  -42.0329 H         1 UNK         0.0600 
    151 H151        1.8508  -21.3793  -41.2578 H         1 UNK         0.0600 
    152 H152        0.8209  -20.0901  -40.6519 H         1 UNK         0.0600 
    153 H153        1.9166  -19.7829  -41.9966 H         1 UNK         0.0600 
    154 H154       -0.3342  -18.8773  -42.5604 H         1 UNK         0.3000 
    155 H155       -3.0723  -18.6277  -44.8626 H         1 UNK         0.0600 
    156 H156       -2.6142  -17.6982  -41.9757 H         1 UNK         0.0600 
    157 H157       -4.0007  -18.6158  -42.5473 H         1 UNK         0.0600 
    158 H158       -3.7364  -16.9802  -43.1310 H         1 UNK         0.0600 
    159 H159       -1.3066  -16.6537  -43.8494 H         1 UNK         0.3000 
    160 H160        1.0907  -16.7813  -46.5143 H         1 UNK         0.0600 
    161 H161        0.3365  -14.4191  -46.5515 H         1 UNK         0.0600 
    162 H162       -1.0514  -14.8058  -45.5401 H         1 UNK         0.0600 
    163 H163       -0.9363  -15.4542  -47.1739 H         1 UNK         0.0600 
    164 H164        1.0688  -15.1259  -44.2433 H         1 UNK         0.3000 
    165 H165        2.8944  -17.2538  -41.9928 H         1 UNK         0.0600 
    166 H166        4.1930  -15.1414  -41.8967 H         1 UNK         0.0600 
    167 H167        4.4944  -15.9806  -43.4112 H         1 UNK         0.0600 
    168 H168        3.4331  -14.5801  -43.3842 H         1 UNK         0.0600 
    169 H169        1.7923  -14.7725  -41.3932 H         1 UNK         0.3000 
    170 H170       -1.4914  -15.6766  -40.5417 H         1 UNK         0.0600 
    171 H171       -0.3866  -16.8499  -38.6691 H         1 UNK         0.0600 
    172 H172        0.7940  -15.5595  -38.5081 H         1 UNK         0.0600 
    173 H173       -0.9085  -15.2501  -38.1660 H         1 UNK         0.0600 
    174 H174       -1.2363  -13.5357  -40.8896 H         1 UNK         0.3000 
    175 H175       -0.6417  -11.3735  -39.9825 H         1 UNK         0.0600 
    176 H176        2.3410  -10.8283  -40.4410 H         1 UNK         0.0600 
    177 H177        1.1067   -9.6256  -40.0683 H         1 UNK         0.0600 
    178 H178        1.5350  -10.8419  -38.8764 H         1 UNK         0.0600 
    179 H179        0.9053  -10.8842  -42.3824 H         1 UNK         0.3000 
    180 H180       -1.1715  -12.2702  -44.7315 H         1 UNK         0.0600 
    181 H181       -1.3761   -9.2787  -44.0843 H         1 UNK         0.0600 
    182 H182       -2.7367  -10.3760  -44.2862 H         1 UNK         0.0600 
    183 H183       -1.6930  -10.0221  -45.6528 H         1 UNK         0.0600 
    184 H184        0.7588  -10.1678  -44.9325 H         1 UNK         0.3000 
    185 H185        2.8070  -10.5496  -45.6335 H         1 UNK         0.0600 
    186 H186        3.9946  -12.2612  -43.3808 H         1 UNK         0.0600 
    187 H187        4.8083  -10.9361  -44.2108 H         1 UNK         0.0600 
    188 H188        3.3982  -10.6161  -43.2153 H         1 UNK         0.0600 
    189 H189        4.2773  -13.0406  -45.7000 H         1 UNK         0.3000 
    190 H190       -2.0950  -22.4048  -45.1266 H         1 UNK         0.3000 
    191 H191       -3.6947  -24.7243  -45.2086 H         1 UNK         0.0600 
    192 H192       -1.9373  -23.6231  -42.9558 H         1 UNK         0.0600 
    193 H193       -3.2057  -24.8272  -42.7570 H         1 UNK         0.0600 
    194 H194       -3.6188  -23.1983  -43.2694 H         1 UNK         0.0600 
    195 H195       -0.1434  -24.4010  -44.8567 H         1 UNK         0.3000 
    196 H196        0.4046  -27.1936  -44.5483 H         1 UNK         0.0600 
    197 H197        2.1741  -24.8976  -45.5442 H         1 UNK         0.0600 
    198 H198        2.7476  -26.4926  -45.0696 H         1 UNK         0.0600 
    199 H199        2.0110  -25.4358  -43.8743 H         1 UNK         0.0600 
    200 H200        0.1455  -25.0734  -47.4188 H         1 UNK         0.3000 
    201 H201        1.0986  -26.9744  -49.3127 H         1 UNK         0.0600 
    202 H202        1.1489  -24.5604  -49.7619 H         1 UNK         0.0600 
    203 H203       -0.6081  -24.4624  -49.7016 H         1 UNK         0.0600 
    204 H204        0.1817  -25.3635  -50.9879 H         1 UNK         0.0600 
    205 H205       -2.2775  -25.9036  -48.6135 H         1 UNK         0.3000 
    206 H206       -3.4191  -28.4945  -49.2532 H         1 UNK         0.0600 
    207 H207       -2.9100  -27.8188  -51.5899 H         1 UNK         0.0600 
    208 H208       -4.6393  -27.7248  -51.3470 H         1 UNK         0.0600 
    209 H209       -3.6771  -26.2528  -51.3421 H         1 UNK         0.0600 
    210 H210       -3.7250  -25.2926  -48.0392 H         1 UNK         0.3000 
    211 H211       -5.2531  -24.0858  -47.0655 H         1 UNK         0.0600 
    212 H212       -7.0900  -26.5213  -46.8438 H         1 UNK         0.0600 
    213 H213       -7.1594  -25.0463  -45.8943 H         1 UNK         0.0600 
    214 H214       -5.7957  -26.1371  -45.7099 H         1 UNK         0.0600 
    215 H215       -5.1654  -24.4458  -49.9788 H         1 UNK         0.3000 
    216 H216       -7.8451  -24.0365  -51.0191 H         1 UNK         0.0600 
    217 H217       -6.6192  -23.8042  -53.1755 H         1 UNK         0.0600 
    218 H218       -6.0626  -25.2208  -52.3027 H         1 UNK         0.0600 
    219 H219       -5.0823  -23.7547  -52.3244 H         1 UNK         0.0600 
    220 H220       -5.5025  -21.9680  -49.6169 H         1 UNK         0.3000 
    221 H221       -5.1957  -19.7837  -49.3679 H         1 UNK         0.0600 
    222 H222       -8.0761  -19.3667  -50.3273 H         1 UNK         0.0600 
    223 H223       -7.5973  -19.7452  -48.6783 H         1 UNK         0.0600 
    224 H224       -7.0944  -18.2320  -49.4020 H         1 UNK         0.0600 
    225 H225       -6.7836  -17.9101  -51.4338 H         1 UNK         0.3000 
    226 H226       -4.5816  -17.3354  -53.0848 H         1 UNK         0.0600 
    227 H227       -6.3316  -15.6845  -52.4968 H         1 UNK         0.0600 
    228 H228       -6.1928  -15.8112  -54.2425 H         1 UNK         0.0600 
    229 H229       -7.5365  -16.5897  -53.4148 H         1 UNK         0.0600 
    230 H230       -7.0788  -19.7351  -53.5640 H         1 UNK         0.3000 
    231 H231       -6.8972  -19.9904  -56.4140 H         1 UNK         0.0600 
    232 H232       -8.8363  -20.8131  -55.0544 H         1 UNK         0.0600 
    233 H233       -7.8025  -22.0500  -54.3398 H         1 UNK         0.0600 
    234 H234       -8.1472  -22.0776  -56.0601 H         1 UNK         0.0600 
    235 H235       -4.6425  -20.8558  -53.9383 H         1 UNK         0.3000 
    236 H236       -3.2736  -22.9787  -55.3427 H         1 UNK         0.0600 
    237 H237       -1.4580  -22.5006  -53.7310 H         1 UNK         0.0600 
    238 H238       -2.2470  -21.0124  -53.2323 H         1 UNK         0.0600 
    239 H239       -2.9985  -22.5676  -52.8875 H         1 UNK         0.0600 
    240 H240       -3.3417  -19.4608  -55.6240 H         1 UNK         0.3000 
    241 H241       -1.1302  -19.4832  -57.6251 H         1 UNK         0.0600 
    242 H242       -4.9471  -18.5551  -58.9329 H         1 UNK         0.3800 
    243 H243       -4.6357  -18.5325  -57.2099 H         1 UNK         0.3800 
    244 H244       -1.1799  -17.0240  -57.5087 H         1 UNK         0.0800 
    245 H245       -2.4792  -17.0608  -56.3479 H         1 UNK         0.0800 
    246 H246       -1.1782  -15.8276  -54.1207 H         1 UNK         0.0800 
    247 H247       -2.2822  -17.1814  -54.0195 H         1 UNK         0.0800 
@<TRIPOS>BOND
     1    1    2 1    
     2    1  127 1    
     3    1  128 1    
     4    1  129 1    
     5    2    3 2    
     6    2    4 am   BACKBONE|DICT|INTERRES
     7    4    5 1    
     8    4  130 1    
     9    5    6 1    
    10    5   65 1    
    11    5  131 1    
    12    6    7 1    
    13    6  132 1    
    14    6  133 1    
    15    7    8 1    
    16    8    9 1    
    17    8  134 1    
    18    8  135 1    
    19    9   10 ar   
    20    9   14 ar   
    21   10   11 ar   
    22   10  136 1    
    23   11   12 ar   
    24   11  126 1    
    25   12   13 ar   
    26   12  137 1    
    27   13   14 ar   
    28   13   15 1    
    29   14  138 1    
    30   15   16 1    
    31   15  139 1    
    32   15  140 1    
    33   16   17 1    
    34   17   18 1    
    35   17  141 1    
    36   17  142 1    
    37   18   19 1    
    38   18   67 1    
    39   18  143 1    
    40   19   20 am   BACKBONE|DICT|INTERRES
    41   19  144 1    
    42   20   21 2    
    43   20   22 1    
    44   22   23 1    
    45   22   24 1    
    46   22  145 1    
    47   23  146 1    
    48   23  147 1    
    49   23  148 1    
    50   24   25 am   BACKBONE|DICT|INTERRES
    51   24  149 1    
    52   25   26 2    
    53   25   27 1    
    54   27   28 1    
    55   27   29 1    
    56   27  150 1    
    57   28  151 1    
    58   28  152 1    
    59   28  153 1    
    60   29   30 am   BACKBONE|DICT|INTERRES
    61   29  154 1    
    62   30   31 2    
    63   30   32 1    
    64   32   33 1    
    65   32   34 1    
    66   32  155 1    
    67   33  156 1    
    68   33  157 1    
    69   33  158 1    
    70   34   35 am   BACKBONE|DICT|INTERRES
    71   34  159 1    
    72   35   36 2    
    73   35   37 1    
    74   37   38 1    
    75   37   39 1    
    76   37  160 1    
    77   38  161 1    
    78   38  162 1    
    79   38  163 1    
    80   39   40 am   BACKBONE|DICT|INTERRES
    81   39  164 1    
    82   40   41 2    
    83   40   42 1    
    84   42   43 1    
    85   42   44 1    
    86   42  165 1    
    87   43  166 1    
    88   43  167 1    
    89   43  168 1    
    90   44   45 am   BACKBONE|DICT|INTERRES
    91   44  169 1    
    92   45   46 2    
    93   45   47 1    
    94   47   48 1    
    95   47   49 1    
    96   47  170 1    
    97   48  171 1    
    98   48  172 1    
    99   48  173 1    
   100   49   50 am   BACKBONE|DICT|INTERRES
   101   49  174 1    
   102   50   51 2    
   103   50   52 1    
   104   52   53 1    
   105   52   54 1    
   106   52  175 1    
   107   53  176 1    
   108   53  177 1    
   109   53  178 1    
   110   54   55 am   BACKBONE|DICT|INTERRES
   111   54  179 1    
   112   55   56 2    
   113   55   57 1    
   114   57   58 1    
   115   57   59 1    
   116   57  180 1    
   117   58  181 1    
   118   58  182 1    
   119   58  183 1    
   120   59   60 am   BACKBONE|DICT|INTERRES
   121   59  184 1    
   122   60   61 2    
   123   60   62 1    
   124   62   63 1    
   125   62   64 1    
   126   62  185 1    
   127   63  186 1    
   128   63  187 1    
   129   63  188 1    
   130   64   65 am   BACKBONE|DICT|INTERRES
   131   64  189 1    
   132   65   66 2    
   133   67   68 2    
   134   67   69 am   BACKBONE|DICT|INTERRES
   135   69   70 1    
   136   69  190 1    
   137   70   71 1    
   138   70   72 1    
   139   70  191 1    
   140   71  192 1    
   141   71  193 1    
   142   71  194 1    
   143   72   73 2    
   144   72   74 am   BACKBONE|DICT|INTERRES
   145   74   75 1    
   146   74  195 1    
   147   75   76 1    
   148   75   77 1    
   149   75  196 1    
   150   76  197 1    
   151   76  198 1    
   152   76  199 1    
   153   77   78 2    
   154   77   79 am   BACKBONE|DICT|INTERRES
   155   79   80 1    
   156   79  200 1    
   157   80   81 1    
   158   80   82 1    
   159   80  201 1    
   160   81  202 1    
   161   81  203 1    
   162   81  204 1    
   163   82   83 2    
   164   82   84 am   BACKBONE|DICT|INTERRES
   165   84   85 1    
   166   84  205 1    
   167   85   86 1    
   168   85   87 1    
   169   85  206 1    
   170   86  207 1    
   171   86  208 1    
   172   86  209 1    
   173   87   88 2    
   174   87   89 am   BACKBONE|DICT|INTERRES
   175   89   90 1    
   176   89  210 1    
   177   90   91 1    
   178   90   92 1    
   179   90  211 1    
   180   91  212 1    
   181   91  213 1    
   182   91  214 1    
   183   92   93 2    
   184   92   94 am   BACKBONE|DICT|INTERRES
   185   94   95 1    
   186   94  215 1    
   187   95   96 1    
   188   95   97 1    
   189   95  216 1    
   190   96  217 1    
   191   96  218 1    
   192   96  219 1    
   193   97   98 2    
   194   97   99 am   BACKBONE|DICT|INTERRES
   195   99  100 1    
   196   99  220 1    
   197  100  101 1    
   198  100  102 1    
   199  100  221 1    
   200  101  222 1    
   201  101  223 1    
   202  101  224 1    
   203  102  103 2    
   204  102  104 am   BACKBONE|DICT|INTERRES
   205  104  105 1    
   206  104  225 1    
   207  105  106 1    
   208  105  107 1    
   209  105  226 1    
   210  106  227 1    
   211  106  228 1    
   212  106  229 1    
   213  107  108 2    
   214  107  109 am   BACKBONE|DICT|INTERRES
   215  109  110 1    
   216  109  230 1    
   217  110  111 1    
   218  110  112 1    
   219  110  231 1    
   220  111  232 1    
   221  111  233 1    
   222  111  234 1    
   223  112  113 2    
   224  112  114 am   BACKBONE|DICT|INTERRES
   225  114  115 1    
   226  114  235 1    
   227  115  116 1    
   228  115  117 1    
   229  115  236 1    
   230  116  237 1    
   231  116  238 1    
   232  116  239 1    
   233  117  118 2    
   234  117  119 am   BACKBONE|DICT|INTERRES
   235  119  120 1    
   236  119  240 1    
   237  120  121 1    
   238  120  124 1    
   239  120  241 1    
   240  121  122 am   BACKBONE|DICT|INTERRES
   241  121  123 2    
   242  122  242 1    
   243  122  243 1    
   244  124  125 1    
   245  124  244 1    
   246  124  245 1    
   247  125  126 1    
   248  126  246 1    
   249  126  247 1    
@<TRIPOS>SUBSTRUCTURE
     1 UNK         1 GROUP             0       ****    0 ROOT    
