@<TRIPOS>MOLECULE
3R540
247   249    1
SMALL
USER_CHARGES


@<TRIPOS>ATOM
      1 CA          7.1947  -15.3225  -44.0322 C.3       0 UNK        -0.1800 
      2 C           5.7511  -15.7215  -44.2955 C.2       0 UNK         0.5000 
      3 O           4.8593  -15.3307  -43.5401 O.2       0 UNK        -0.5000 
      4 N           5.5099  -16.5125  -45.3492 N.am      1 UNK        -0.5000 
      5 CA          4.1632  -16.9284  -45.7531 C.3       1 UNK         0.1400 
      6 C6          4.1589  -18.2816  -46.5129 C.3       23 UNK        -0.0398 
      7 S7          4.8514  -18.2534  -48.2093 S.3       23 UNK        -0.2404 
      8 C8          3.7181  -19.3727  -49.1109 C.3       23 UNK        -0.0205 
      9 C9          2.5423  -18.6656  -49.7841 C.ar      23 UNK        -0.0193 
     10 C10         2.2219  -18.9434  -51.1176 C.ar      23 UNK        -0.1150 
     11 C11         1.1091  -18.3483  -51.7236 C.ar      23 UNK        -0.0193 
     12 C12         0.3172  -17.4603  -50.9902 C.ar      23 UNK        -0.1150 
     13 C13         0.6180  -17.1807  -49.6567 C.ar      23 UNK        -0.0193 
     14 C14         1.7328  -17.7804  -49.0697 C.ar      23 UNK        -0.1150 
     15 C15        -0.2686  -16.2489  -48.8443 C.3       23 UNK        -0.0205 
     16 S16        -1.6122  -17.1430  -48.0015 S.3       23 UNK        -0.2404 
     17 C17        -0.7290  -18.1132  -46.7255 C.3       23 UNK        -0.0398 
     18 CA         -0.4446  -19.5809  -47.1410 C.3       11 UNK         0.1400 
     19 N           0.4501  -20.2626  -46.1982 N.am      11 UNK        -0.5000 
     20 C           1.0071  -21.4634  -46.4215 C.2       10 UNK         0.5000 
     21 O           0.9105  -22.0752  -47.4832 O.2       10 UNK        -0.5000 
     22 CA          1.7415  -22.1282  -45.2456 C.3       10 UNK         0.1400 
     23 CB          3.2119  -21.6933  -45.1870 C.3       10 UNK        -0.1800 
     24 N           1.0823  -21.8578  -43.9680 N.am      10 UNK        -0.5000 
     25 C          -0.0867  -22.4051  -43.6032 C.2       9 UNK         0.5000 
     26 O          -0.6976  -23.2227  -44.2897 O.2       9 UNK        -0.5000 
     27 CA         -0.6990  -21.9307  -42.2721 C.3       9 UNK         0.1400 
     28 CB         -0.1579  -22.7655  -41.1023 C.3       9 UNK        -0.1800 
     29 N          -0.4565  -20.5124  -42.0070 N.am      9 UNK        -0.5000 
     30 C          -0.9329  -19.5038  -42.7506 C.2       8 UNK         0.5000 
     31 O          -1.6699  -19.6610  -43.7239 O.2       8 UNK        -0.5000 
     32 CA         -0.4512  -18.0880  -42.3808 C.3       8 UNK         0.1400 
     33 CB         -1.3828  -17.4555  -41.3375 C.3       8 UNK        -0.1800 
     34 N           0.9245  -18.0586  -41.8768 N.am      8 UNK        -0.5000 
     35 C           2.0041  -18.4533  -42.5633 C.2       7 UNK         0.5000 
     36 O           1.9578  -18.8507  -43.7293 O.2       7 UNK        -0.5000 
     37 CA          3.3402  -18.3960  -41.8015 C.3       7 UNK         0.1400 
     38 CB          4.5051  -19.0617  -42.5535 C.3       7 UNK        -0.1800 
     39 N           3.6931  -17.0146  -41.4769 N.am      7 UNK        -0.5000 
     40 C           3.3065  -16.3781  -40.3640 C.2       6 UNK         0.5000 
     41 O           2.5586  -16.8769  -39.5216 O.2       6 UNK        -0.5000 
     42 CA          3.8127  -14.9440  -40.1753 C.3       6 UNK         0.1400 
     43 CB          5.3410  -14.8962  -40.0047 C.3       6 UNK        -0.1800 
     44 N           3.4108  -14.1178  -41.3094 N.am      6 UNK        -0.5000 
     45 C           2.8974  -12.8874  -41.2059 C.2       5 UNK         0.5000 
     46 O           2.7488  -12.2900  -40.1384 O.2       5 UNK        -0.5000 
     47 CA          2.4627  -12.2062  -42.5157 C.3       5 UNK         0.1400 
     48 CB          3.6767  -11.5892  -43.2268 C.3       5 UNK        -0.1800 
     49 N           1.7446  -13.0842  -43.4444 N.am      5 UNK        -0.5000 
     50 C           0.5864  -13.7134  -43.1818 C.2       4 UNK         0.5000 
     51 O           0.0268  -13.6823  -42.0847 O.2       4 UNK        -0.5000 
     52 CA         -0.0612  -14.4898  -44.3504 C.3       4 UNK         0.1400 
     53 CB         -1.5628  -14.7813  -44.1435 C.3       4 UNK        -0.1800 
     54 N           0.1686  -13.8527  -45.6499 N.am      4 UNK        -0.5000 
     55 C          -0.2225  -12.6281  -46.0413 C.2       3 UNK         0.5000 
     56 O          -0.9373  -11.8911  -45.3603 O.2       3 UNK        -0.5000 
     57 CA          0.2726  -12.1361  -47.4229 C.3       3 UNK         0.1400 
     58 CB          0.5294  -10.6145  -47.4431 C.3       3 UNK        -0.1800 
     59 N           1.4438  -12.8576  -47.9404 N.am      3 UNK        -0.5000 
     60 C           2.6490  -12.9607  -47.3624 C.2       2 UNK         0.5000 
     61 O           2.9566  -12.4297  -46.2941 O.2       2 UNK        -0.5000 
     62 CA          3.6612  -13.8739  -48.0745 C.3       2 UNK         0.1400 
     63 CB          4.8530  -13.0599  -48.6002 C.3       2 UNK        -0.1800 
     64 N           4.1581  -14.9480  -47.2129 N.am      2 UNK        -0.5000 
     65 C           3.4147  -15.8098  -46.5008 C.2       1 UNK         0.5000 
     66 O           2.1889  -15.7577  -46.4154 O.2       1 UNK        -0.5000 
     67 C          -1.7337  -20.3946  -47.3748 C.2       11 UNK         0.5000 
     68 O          -2.0931  -20.6440  -48.5261 O.2       11 UNK        -0.5000 
     69 N          -2.3670  -20.8492  -46.2833 N.am      12 UNK        -0.5000 
     70 CA         -3.5525  -21.7061  -46.3156 C.3       12 UNK         0.1400 
     71 CB         -4.0672  -21.9352  -44.8875 C.3       12 UNK        -0.1800 
     72 C          -3.3076  -23.0454  -47.0348 C.2       12 UNK         0.5000 
     73 O          -4.1571  -23.4685  -47.8180 O.2       12 UNK        -0.5000 
     74 N          -2.1446  -23.6653  -46.7914 N.am      13 UNK        -0.5000 
     75 CA         -1.7031  -24.8871  -47.4622 C.3       13 UNK         0.1400 
     76 CB         -0.4551  -25.4443  -46.7611 C.3       13 UNK        -0.1800 
     77 C          -1.4417  -24.6804  -48.9652 C.2       13 UNK         0.5000 
     78 O          -1.9235  -25.4759  -49.7717 O.2       13 UNK        -0.5000 
     79 N          -0.7102  -23.6126  -49.3176 N.am      14 UNK        -0.5000 
     80 CA         -0.3644  -23.2548  -50.6964 C.3       14 UNK         0.1400 
     81 CB          0.6383  -22.0904  -50.6941 C.3       14 UNK        -0.1800 
     82 C          -1.5924  -22.9084  -51.5560 C.2       14 UNK         0.5000 
     83 O          -1.6788  -23.3511  -52.7019 O.2       14 UNK        -0.5000 
     84 N          -2.5318  -22.1517  -50.9752 N.am      15 UNK        -0.5000 
     85 CA         -3.7853  -21.7544  -51.6136 C.3       15 UNK         0.1400 
     86 CB         -4.3086  -20.4941  -50.9082 C.3       15 UNK        -0.1800 
     87 C          -4.8575  -22.8629  -51.6025 C.2       15 UNK         0.5000 
     88 O          -5.8895  -22.6990  -52.2580 O.2       15 UNK        -0.5000 
     89 N          -4.6220  -23.9390  -50.8367 N.am      16 UNK        -0.5000 
     90 CA         -5.5213  -25.0655  -50.5662 C.3       16 UNK         0.1400 
     91 CB         -5.7336  -25.9132  -51.8361 C.3       16 UNK        -0.1800 
     92 C          -6.8435  -24.5893  -49.9343 C.2       16 UNK         0.5000 
     93 O          -7.9206  -24.8493  -50.4698 O.2       16 UNK        -0.5000 
     94 N          -6.7234  -23.8169  -48.8451 N.am      17 UNK        -0.5000 
     95 CA         -7.8022  -23.1239  -48.1264 C.3       17 UNK         0.1400 
     96 CB         -8.7217  -24.1389  -47.4167 C.3       17 UNK        -0.1800 
     97 C          -8.5808  -22.1295  -49.0192 C.2       17 UNK         0.5000 
     98 O          -9.7754  -21.9128  -48.8123 O.2       17 UNK        -0.5000 
     99 N          -7.8756  -21.5673  -50.0124 N.am      18 UNK        -0.5000 
    100 CA        -8.3504  -20.6846  -51.0825 C.3       18 UNK         0.1400 
    101 CB        -8.9603  -19.3861  -50.5153 C.3       18 UNK        -0.1800 
    102 C         -9.2658  -21.3737  -52.1170 C.2       18 UNK         0.5000 
    103 O         -9.8727  -20.6769  -52.9320 O.2       18 UNK        -0.5000 
    104 N         -9.3378  -22.7143  -52.1073 N.am      19 UNK        -0.5000 
    105 CA       -10.0889  -23.4912  -53.0949 C.3       19 UNK         0.1400 
    106 CB       -10.3936  -24.8909  -52.5406 C.3       19 UNK        -0.1800 
    107 C         -9.3433  -23.5922  -54.4372 C.2       19 UNK         0.5000 
    108 O         -9.9928  -23.6176  -55.4836 O.2       19 UNK        -0.5000 
    109 N         -8.0045  -23.6384  -54.3866 N.am      20 UNK        -0.5000 
    110 CA        -7.1404  -23.6416  -55.5666 C.3       20 UNK         0.1400 
    111 CB        -5.9523  -24.5908  -55.3393 C.3       20 UNK        -0.1800 
    112 C         -6.6467  -22.2217  -55.8803 C.2       20 UNK         0.5000 
    113 O         -6.7124  -21.8030  -57.0370 O.2       20 UNK        -0.5000 
    114 N         -6.1762  -21.5216  -54.8354 N.am      21 UNK        -0.5000 
    115 CA        -5.5090  -20.2149  -54.8376 C.3       21 UNK         0.1400 
    116 CB        -6.4240  -19.1210  -55.4238 C.3       21 UNK        -0.1800 
    117 C         -4.1228  -20.2364  -55.5203 C.2       21 UNK         0.5000 
    118 O         -3.7821  -21.1760  -56.2427 O.2       21 UNK        -0.5000 
    119 N         -3.3293  -19.1934  -55.2603 N.am      22 UNK        -0.5000 
    120 CA        -1.9693  -19.0260  -55.8009 C.3       22 UNK         0.1400 
    121 C         -1.5388  -17.5407  -55.9794 C.2       22 UNK         0.5000 
    122 N         -2.4384  -16.5686  -55.8784 N.am      22 UNK        -0.7600 
    123 O         -0.3736  -17.2581  -56.2443 O.2       22 UNK        -0.5000 
    124 C124       -0.9165  -19.9051  -55.0674 C.3       23 UNK        -0.0398 
    125 S125       -0.8060  -19.6059  -53.2694 S.3       23 UNK        -0.2404 
    126 C126        0.7498  -18.6664  -53.1659 C.3       23 UNK        -0.0205 
    127 H127        7.8721  -15.7337  -44.7808 H         1 UNK         0.0600 
    128 H128        7.5090  -15.6820  -43.0525 H         1 UNK         0.0600 
    129 H129        7.2897  -14.2368  -44.0449 H         1 UNK         0.0600 
    130 H130        6.2710  -16.8300  -45.9333 H         1 UNK         0.3000 
    131 H131        3.5845  -17.0928  -44.8434 H         1 UNK         0.0600 
    132 H132        3.1434  -18.6782  -46.5355 H         1 UNK         0.0800 
    133 H133        4.7330  -19.0126  -45.9432 H         1 UNK         0.0800 
    134 H134        3.3354  -20.1419  -48.4386 H         1 UNK         0.0800 
    135 H135        4.3087  -19.8996  -49.8616 H         1 UNK         0.0800 
    136 H136        2.8274  -19.6399  -51.6803 H         1 UNK         0.1150 
    137 H137       -0.5491  -17.0083  -51.4528 H         1 UNK         0.1150 
    138 H138        1.9433  -17.5869  -48.0355 H         1 UNK         0.1150 
    139 H139        0.3186  -15.6957  -48.1141 H         1 UNK         0.0800 
    140 H140       -0.7107  -15.4993  -49.5021 H         1 UNK         0.0800 
    141 H141       -1.3270  -18.0837  -45.8144 H         1 UNK         0.0800 
    142 H142        0.2020  -17.6044  -46.4760 H         1 UNK         0.0800 
    143 H143        0.0731  -19.5673  -48.0997 H         1 UNK         0.0600 
    144 H144        0.5933  -19.8257  -45.2968 H         1 UNK         0.3000 
    145 H145        1.7252  -23.2068  -45.4153 H         1 UNK         0.0600 
    146 H146        3.7510  -22.2322  -44.4079 H         1 UNK         0.0600 
    147 H147        3.7170  -21.8955  -46.1324 H         1 UNK         0.0600 
    148 H148        3.3094  -20.6295  -44.9855 H         1 UNK         0.0600 
    149 H149        1.4980  -21.1479  -43.3828 H         1 UNK         0.3000 
    150 H150       -1.7787  -22.0824  -42.3302 H         1 UNK         0.0600 
    151 H151       -0.3433  -23.8284  -41.2634 H         1 UNK         0.0600 
    152 H152       -0.6420  -22.4912  -40.1649 H         1 UNK         0.0600 
    153 H153        0.9177  -22.6352  -40.9765 H         1 UNK         0.0600 
    154 H154        0.1387  -20.2908  -41.2227 H         1 UNK         0.3000 
    155 H155       -0.4850  -17.4854  -43.2896 H         1 UNK         0.0600 
    156 H156       -1.3841  -18.0192  -40.4038 H         1 UNK         0.0600 
    157 H157       -2.4105  -17.4201  -41.7018 H         1 UNK         0.0600 
    158 H158       -1.0830  -16.4323  -41.1090 H         1 UNK         0.0600 
    159 H159        1.0610  -17.7209  -40.9314 H         1 UNK         0.3000 
    160 H160        3.2023  -18.9627  -40.8781 H         1 UNK         0.0600 
    161 H161        5.4138  -19.0517  -41.9515 H         1 UNK         0.0600 
    162 H162        4.7291  -18.5646  -43.4937 H         1 UNK         0.0600 
    163 H163        4.2796  -20.1047  -42.7765 H         1 UNK         0.0600 
    164 H164        4.2487  -16.5116  -42.1625 H         1 UNK         0.3000 
    165 H165        3.3579  -14.5700  -39.2554 H         1 UNK         0.0600 
    166 H166        5.6768  -13.8841  -39.7783 H         1 UNK         0.0600 
    167 H167        5.6630  -15.5373  -39.1833 H         1 UNK         0.0600 
    168 H168        5.8626  -15.2248  -40.9041 H         1 UNK         0.0600 
    169 H169        3.5495  -14.5171  -42.2320 H         1 UNK         0.3000 
    170 H170        1.7825  -11.3950  -42.2483 H         1 UNK         0.0600 
    171 H171        4.2538  -10.9604  -42.5476 H         1 UNK         0.0600 
    172 H172        4.3472  -12.3566  -43.6164 H         1 UNK         0.0600 
    173 H173        3.3653  -10.9604  -44.0608 H         1 UNK         0.0600 
    174 H174        2.1182  -13.1309  -44.3856 H         1 UNK         0.3000 
    175 H175        0.4539  -15.4505  -44.3862 H         1 UNK         0.0600 
    176 H176       -2.1502  -13.8658  -44.0759 H         1 UNK         0.0600 
    177 H177       -1.9629  -15.3775  -44.9639 H         1 UNK         0.0600 
    178 H178       -1.7354  -15.3392  -43.2246 H         1 UNK         0.0600 
    179 H179        0.7972  -14.3712  -46.2556 H         1 UNK         0.3000 
    180 H180       -0.5410  -12.3419  -48.1198 H         1 UNK         0.0600 
    181 H181        1.2832  -10.3221  -46.7115 H         1 UNK         0.0600 
    182 H182       -0.3805  -10.0587  -47.2139 H         1 UNK         0.0600 
    183 H183        0.8688  -10.2845  -48.4249 H         1 UNK         0.0600 
    184 H184        1.2926  -13.3459  -48.8117 H         1 UNK         0.3000 
    185 H185        3.1707  -14.3495  -48.9263 H         1 UNK         0.0600 
    186 H186        4.5180  -12.2582  -49.2598 H         1 UNK         0.0600 
    187 H187        5.4161  -12.6015  -47.7860 H         1 UNK         0.0600 
    188 H188        5.5380  -13.6857  -49.1725 H         1 UNK         0.0600 
    189 H189        5.1594  -15.0646  -47.1855 H         1 UNK         0.3000 
    190 H190       -2.0280  -20.5719  -45.3660 H         1 UNK         0.3000 
    191 H191       -4.3254  -21.1720  -46.8721 H         1 UNK         0.0600 
    192 H192       -3.3362  -22.4628  -44.2750 H         1 UNK         0.0600 
    193 H193       -4.9812  -22.5303  -44.8934 H         1 UNK         0.0600 
    194 H194       -4.2963  -20.9902  -44.3944 H         1 UNK         0.0600 
    195 H195       -1.5277  -23.2882  -46.0788 H         1 UNK         0.3000 
    196 H196       -2.5008  -25.6264  -47.3633 H         1 UNK         0.0600 
    197 H197       -0.1240  -26.3709  -47.2316 H         1 UNK         0.0600 
    198 H198       -0.6579  -25.6662  -45.7133 H         1 UNK         0.0600 
    199 H199        0.3769  -24.7413  -46.7992 H         1 UNK         0.0600 
    200 H200       -0.3233  -23.0156  -48.5909 H         1 UNK         0.3000 
    201 H201        0.1235  -24.1197  -51.1502 H         1 UNK         0.0600 
    202 H202        1.5548  -22.3567  -50.1678 H         1 UNK         0.0600 
    203 H203        0.2234  -21.2024  -50.2148 H         1 UNK         0.0600 
    204 H204        0.9174  -21.8120  -51.7110 H         1 UNK         0.0600 
    205 H205       -2.3595  -21.7816  -50.0426 H         1 UNK         0.3000 
    206 H206       -3.5808  -21.5036  -52.6562 H         1 UNK         0.0600 
    207 H207       -3.5591  -19.7019  -50.9155 H         1 UNK         0.0600 
    208 H208       -5.1952  -20.0995  -51.4012 H         1 UNK         0.0600 
    209 H209       -4.5695  -20.6948  -49.8681 H         1 UNK         0.0600 
    210 H210       -3.7497  -23.9577  -50.3249 H         1 UNK         0.3000 
    211 H211       -5.0220  -25.6909  -49.8246 H         1 UNK         0.0600 
    212 H212       -6.2743  -26.8309  -51.6027 H         1 UNK         0.0600 
    213 H213       -4.7825  -26.1989  -52.2855 H         1 UNK         0.0600 
    214 H214       -6.3146  -25.3790  -52.5866 H         1 UNK         0.0600 
    215 H215       -5.7815  -23.6582  -48.4849 H         1 UNK         0.3000 
    216 H216       -7.3167  -22.5230  -47.3562 H         1 UNK         0.0600 
    217 H217       -9.4365  -23.6326  -46.7671 H         1 UNK         0.0600 
    218 H218       -8.1458  -24.8221  -46.7925 H         1 UNK         0.0600 
    219 H219       -9.2928  -24.7352  -48.1289 H         1 UNK         0.0600 
    220 H220       -6.9159  -21.8658  -50.1069 H         1 UNK         0.3000 
    221 H221       -7.4618  -20.3988  -51.6443 H         1 UNK         0.0600 
    222 H222       -9.9143  -19.5666  -50.0198 H         1 UNK         0.0600 
    223 H223       -8.2898  -18.9168  -49.7954 H         1 UNK         0.0600 
    224 H224       -9.1403  -18.6599  -51.3086 H         1 UNK         0.0600 
    225 H225       -8.8122  -23.2425  -51.4187 H         1 UNK         0.3000 
    226 H226      -11.0433  -22.9919  -53.2761 H         1 UNK         0.0600 
    227 H227      -10.8686  -24.8360  -51.5609 H         1 UNK         0.0600 
    228 H228      -11.0721  -25.4293  -53.2032 H         1 UNK         0.0600 
    229 H229       -9.4904  -25.4940  -52.4443 H         1 UNK         0.0600 
    230 H230       -7.5484  -23.5733  -53.4852 H         1 UNK         0.3000 
    231 H231       -7.6907  -24.0078  -56.4360 H         1 UNK         0.0600 
    232 H232       -6.2924  -25.6060  -55.1351 H         1 UNK         0.0600 
    233 H233       -5.3259  -24.2710  -54.5061 H         1 UNK         0.0600 
    234 H234       -5.3165  -24.6329  -56.2245 H         1 UNK         0.0600 
    235 H235       -6.1586  -21.9964  -53.9368 H         1 UNK         0.3000 
    236 H236       -5.3402  -19.9742  -53.7882 H         1 UNK         0.0600 
    237 H237       -6.5592  -19.2340  -56.4997 H         1 UNK         0.0600 
    238 H238       -7.4094  -19.1409  -54.9576 H         1 UNK         0.0600 
    239 H239       -6.0073  -18.1280  -55.2542 H         1 UNK         0.0600 
    240 H240       -3.6347  -18.4741  -54.6214 H         1 UNK         0.3000 
    241 H241       -1.9982  -19.3852  -56.8314 H         1 UNK         0.0600 
    242 H242       -3.4170  -16.7624  -55.7452 H         1 UNK         0.3800 
    243 H243       -2.1381  -15.6147  -56.0072 H         1 UNK         0.3800 
    244 H244       -1.1723  -20.9570  -55.2006 H         1 UNK         0.0800 
    245 H245        0.0673  -19.7938  -55.5256 H         1 UNK         0.0800 
    246 H246        1.5486  -19.2364  -53.6427 H         1 UNK         0.0800 
    247 H247        0.6533  -17.7349  -53.7247 H         1 UNK         0.0800 
@<TRIPOS>BOND
     1    1    2 1    
     2    1  127 1    
     3    1  128 1    
     4    1  129 1    
     5    2    3 2    
     6    2    4 am   BACKBONE|DICT|INTERRES
     7    4    5 1    
     8    4  130 1    
     9    5    6 1    
    10    5   65 1    
    11    5  131 1    
    12    6    7 1    
    13    6  132 1    
    14    6  133 1    
    15    7    8 1    
    16    8    9 1    
    17    8  134 1    
    18    8  135 1    
    19    9   10 ar   
    20    9   14 ar   
    21   10   11 ar   
    22   10  136 1    
    23   11   12 ar   
    24   11  126 1    
    25   12   13 ar   
    26   12  137 1    
    27   13   14 ar   
    28   13   15 1    
    29   14  138 1    
    30   15   16 1    
    31   15  139 1    
    32   15  140 1    
    33   16   17 1    
    34   17   18 1    
    35   17  141 1    
    36   17  142 1    
    37   18   19 1    
    38   18   67 1    
    39   18  143 1    
    40   19   20 am   BACKBONE|DICT|INTERRES
    41   19  144 1    
    42   20   21 2    
    43   20   22 1    
    44   22   23 1    
    45   22   24 1    
    46   22  145 1    
    47   23  146 1    
    48   23  147 1    
    49   23  148 1    
    50   24   25 am   BACKBONE|DICT|INTERRES
    51   24  149 1    
    52   25   26 2    
    53   25   27 1    
    54   27   28 1    
    55   27   29 1    
    56   27  150 1    
    57   28  151 1    
    58   28  152 1    
    59   28  153 1    
    60   29   30 am   BACKBONE|DICT|INTERRES
    61   29  154 1    
    62   30   31 2    
    63   30   32 1    
    64   32   33 1    
    65   32   34 1    
    66   32  155 1    
    67   33  156 1    
    68   33  157 1    
    69   33  158 1    
    70   34   35 am   BACKBONE|DICT|INTERRES
    71   34  159 1    
    72   35   36 2    
    73   35   37 1    
    74   37   38 1    
    75   37   39 1    
    76   37  160 1    
    77   38  161 1    
    78   38  162 1    
    79   38  163 1    
    80   39   40 am   BACKBONE|DICT|INTERRES
    81   39  164 1    
    82   40   41 2    
    83   40   42 1    
    84   42   43 1    
    85   42   44 1    
    86   42  165 1    
    87   43  166 1    
    88   43  167 1    
    89   43  168 1    
    90   44   45 am   BACKBONE|DICT|INTERRES
    91   44  169 1    
    92   45   46 2    
    93   45   47 1    
    94   47   48 1    
    95   47   49 1    
    96   47  170 1    
    97   48  171 1    
    98   48  172 1    
    99   48  173 1    
   100   49   50 am   BACKBONE|DICT|INTERRES
   101   49  174 1    
   102   50   51 2    
   103   50   52 1    
   104   52   53 1    
   105   52   54 1    
   106   52  175 1    
   107   53  176 1    
   108   53  177 1    
   109   53  178 1    
   110   54   55 am   BACKBONE|DICT|INTERRES
   111   54  179 1    
   112   55   56 2    
   113   55   57 1    
   114   57   58 1    
   115   57   59 1    
   116   57  180 1    
   117   58  181 1    
   118   58  182 1    
   119   58  183 1    
   120   59   60 am   BACKBONE|DICT|INTERRES
   121   59  184 1    
   122   60   61 2    
   123   60   62 1    
   124   62   63 1    
   125   62   64 1    
   126   62  185 1    
   127   63  186 1    
   128   63  187 1    
   129   63  188 1    
   130   64   65 am   BACKBONE|DICT|INTERRES
   131   64  189 1    
   132   65   66 2    
   133   67   68 2    
   134   67   69 am   BACKBONE|DICT|INTERRES
   135   69   70 1    
   136   69  190 1    
   137   70   71 1    
   138   70   72 1    
   139   70  191 1    
   140   71  192 1    
   141   71  193 1    
   142   71  194 1    
   143   72   73 2    
   144   72   74 am   BACKBONE|DICT|INTERRES
   145   74   75 1    
   146   74  195 1    
   147   75   76 1    
   148   75   77 1    
   149   75  196 1    
   150   76  197 1    
   151   76  198 1    
   152   76  199 1    
   153   77   78 2    
   154   77   79 am   BACKBONE|DICT|INTERRES
   155   79   80 1    
   156   79  200 1    
   157   80   81 1    
   158   80   82 1    
   159   80  201 1    
   160   81  202 1    
   161   81  203 1    
   162   81  204 1    
   163   82   83 2    
   164   82   84 am   BACKBONE|DICT|INTERRES
   165   84   85 1    
   166   84  205 1    
   167   85   86 1    
   168   85   87 1    
   169   85  206 1    
   170   86  207 1    
   171   86  208 1    
   172   86  209 1    
   173   87   88 2    
   174   87   89 am   BACKBONE|DICT|INTERRES
   175   89   90 1    
   176   89  210 1    
   177   90   91 1    
   178   90   92 1    
   179   90  211 1    
   180   91  212 1    
   181   91  213 1    
   182   91  214 1    
   183   92   93 2    
   184   92   94 am   BACKBONE|DICT|INTERRES
   185   94   95 1    
   186   94  215 1    
   187   95   96 1    
   188   95   97 1    
   189   95  216 1    
   190   96  217 1    
   191   96  218 1    
   192   96  219 1    
   193   97   98 2    
   194   97   99 am   BACKBONE|DICT|INTERRES
   195   99  100 1    
   196   99  220 1    
   197  100  101 1    
   198  100  102 1    
   199  100  221 1    
   200  101  222 1    
   201  101  223 1    
   202  101  224 1    
   203  102  103 2    
   204  102  104 am   BACKBONE|DICT|INTERRES
   205  104  105 1    
   206  104  225 1    
   207  105  106 1    
   208  105  107 1    
   209  105  226 1    
   210  106  227 1    
   211  106  228 1    
   212  106  229 1    
   213  107  108 2    
   214  107  109 am   BACKBONE|DICT|INTERRES
   215  109  110 1    
   216  109  230 1    
   217  110  111 1    
   218  110  112 1    
   219  110  231 1    
   220  111  232 1    
   221  111  233 1    
   222  111  234 1    
   223  112  113 2    
   224  112  114 am   BACKBONE|DICT|INTERRES
   225  114  115 1    
   226  114  235 1    
   227  115  116 1    
   228  115  117 1    
   229  115  236 1    
   230  116  237 1    
   231  116  238 1    
   232  116  239 1    
   233  117  118 2    
   234  117  119 am   BACKBONE|DICT|INTERRES
   235  119  120 1    
   236  119  240 1    
   237  120  121 1    
   238  120  124 1    
   239  120  241 1    
   240  121  122 am   BACKBONE|DICT|INTERRES
   241  121  123 2    
   242  122  242 1    
   243  122  243 1    
   244  124  125 1    
   245  124  244 1    
   246  124  245 1    
   247  125  126 1    
   248  126  246 1    
   249  126  247 1    
@<TRIPOS>SUBSTRUCTURE
     1 UNK         1 GROUP             0       ****    0 ROOT    
