@<TRIPOS>MOLECULE
3R540
247   249    1
SMALL
USER_CHARGES


@<TRIPOS>ATOM
      1 CA          3.5707  -10.0047  -48.2173 C.3       0 UNK        -0.1800 
      2 C           3.3123  -11.4060  -47.6833 C.2       0 UNK         0.5000 
      3 O           3.0806  -11.5659  -46.4858 O.2       0 UNK        -0.5000 
      4 N           3.3675  -12.4139  -48.5663 N.am      1 UNK        -0.5000 
      5 CA          3.1062  -13.8398  -48.3012 C.3       1 UNK         0.1400 
      6 C6          1.6100  -14.1679  -48.0351 C.3       23 UNK        -0.0398 
      7 S7          0.4885  -13.5085  -49.3152 S.3       23 UNK        -0.2404 
      8 C8          0.6243  -14.7596  -50.6385 C.3       23 UNK        -0.0205 
      9 C9         -0.1884  -16.0261  -50.3890 C.ar      23 UNK        -0.0193 
     10 C10        -1.5241  -15.9483  -49.9832 C.ar      23 UNK        -0.1150 
     11 C11        -2.2921  -17.1042  -49.8211 C.ar      23 UNK        -0.0193 
     12 C12        -1.7124  -18.3519  -50.0692 C.ar      23 UNK        -0.1150 
     13 C13        -0.3797  -18.4489  -50.4820 C.ar      23 UNK        -0.0193 
     14 C14         0.3758  -17.2818  -50.6393 C.ar      23 UNK        -0.1150 
     15 C15         0.2247  -19.8149  -50.7920 C.3       23 UNK        -0.0205 
     16 S16         1.6875  -20.2206  -49.7768 S.3       23 UNK        -0.2404 
     17 C17         1.0438  -20.0791  -48.0750 C.3       23 UNK        -0.0398 
     18 CA          0.6447  -21.4201  -47.4111 C.3       11 UNK         0.1400 
     19 N           0.4006  -21.2421  -45.9784 N.am      11 UNK        -0.5000 
     20 C           0.1111  -22.2055  -45.0937 C.2       10 UNK         0.5000 
     21 O           0.0772  -23.4032  -45.3696 O.2       10 UNK        -0.5000 
     22 CA         -0.2565  -21.7469  -43.6698 C.3       10 UNK         0.1400 
     23 CB          1.0027  -21.4441  -42.8449 C.3       10 UNK        -0.1800 
     24 N          -1.1449  -20.5822  -43.6696 N.am      10 UNK        -0.5000 
     25 C          -2.3918  -20.5890  -44.1644 C.2       9 UNK         0.5000 
     26 O          -2.9381  -21.5925  -44.6230 O.2       9 UNK        -0.5000 
     27 CA         -3.1386  -19.2433  -44.1938 C.3       9 UNK         0.1400 
     28 CB         -3.7405  -18.9210  -42.8183 C.3       9 UNK        -0.1800 
     29 N          -2.2865  -18.1376  -44.6322 N.am      9 UNK        -0.5000 
     30 C          -1.7470  -18.0385  -45.8560 C.2       8 UNK         0.5000 
     31 O          -1.9598  -18.8474  -46.7586 O.2       8 UNK        -0.5000 
     32 CA         -0.7606  -16.8771  -46.0891 C.3       8 UNK         0.1400 
     33 CB         -1.5145  -15.5613  -46.3259 C.3       8 UNK        -0.1800 
     34 N           0.1738  -16.7089  -44.9739 N.am      8 UNK        -0.5000 
     35 C           1.0517  -17.6372  -44.5693 C.2       7 UNK         0.5000 
     36 O           1.2120  -18.7122  -45.1409 O.2       7 UNK        -0.5000 
     37 CA          1.8410  -17.3624  -43.2797 C.3       7 UNK         0.1400 
     38 CB          3.1492  -16.6259  -43.5667 C.3       7 UNK        -0.1800 
     39 N           1.0609  -16.6141  -42.2992 N.am      7 UNK        -0.5000 
     40 C           0.0685  -17.1495  -41.5777 C.2       6 UNK         0.5000 
     41 O          -0.2694  -18.3323  -41.6483 O.2       6 UNK        -0.5000 
     42 CA         -0.6981  -16.1842  -40.6575 C.3       6 UNK         0.1400 
     43 CB          0.1198  -15.8623  -39.3974 C.3       6 UNK        -0.1800 
     44 N          -1.0556  -14.9383  -41.3373 N.am      6 UNK        -0.5000 
     45 C          -1.9099  -14.8616  -42.3665 C.2       5 UNK         0.5000 
     46 O          -2.4990  -15.8331  -42.8391 O.2       5 UNK        -0.5000 
     47 CA         -2.1299  -13.4725  -42.9916 C.3       5 UNK         0.1400 
     48 CB         -3.2616  -12.7330  -42.2624 C.3       5 UNK        -0.1800 
     49 N          -0.9412  -12.6170  -43.0234 N.am      5 UNK        -0.5000 
     50 C           0.2306  -12.9079  -43.6067 C.2       4 UNK         0.5000 
     51 O           0.4867  -14.0008  -44.1151 O.2       4 UNK        -0.5000 
     52 CA          1.2700  -11.7683  -43.6678 C.3       4 UNK         0.1400 
     53 CB          1.0980  -10.7088  -42.5546 C.3       4 UNK        -0.1800 
     54 N           2.6571  -12.2390  -43.7086 N.am      4 UNK        -0.5000 
     55 C           3.2979  -12.9401  -42.7644 C.2       3 UNK         0.5000 
     56 O           2.7497  -13.4005  -41.7601 O.2       3 UNK        -0.5000 
     57 CA          4.8084  -13.1362  -42.9815 C.3       3 UNK         0.1400 
     58 CB          5.4848  -13.9688  -41.8714 C.3       3 UNK        -0.1800 
     59 N           5.0892  -13.7032  -44.3015 N.am      3 UNK        -0.5000 
     60 C           6.2586  -13.5918  -44.9430 C.2       2 UNK         0.5000 
     61 O           7.2165  -12.9562  -44.4998 O.2       2 UNK        -0.5000 
     62 CA          6.4030  -14.2897  -46.3101 C.3       2 UNK         0.1400 
     63 CB          6.6510  -15.8026  -46.1482 C.3       2 UNK        -0.1800 
     64 N           5.3124  -14.0039  -47.2496 N.am      2 UNK        -0.5000 
     65 C           4.0358  -14.4106  -47.2064 C.2       1 UNK         0.5000 
     66 O           3.5872  -15.1593  -46.3402 O.2       1 UNK        -0.5000 
     67 C          -0.5649  -22.0741  -48.1072 C.2       11 UNK         0.5000 
     68 O          -0.3940  -23.0805  -48.7949 O.2       11 UNK        -0.5000 
     69 N          -1.7664  -21.5229  -47.8783 N.am      12 UNK        -0.5000 
     70 CA         -3.0318  -22.0491  -48.3905 C.3       12 UNK         0.1400 
     71 CB         -4.1805  -21.1112  -47.9968 C.3       12 UNK        -0.1800 
     72 C          -3.3231  -23.4830  -47.9172 C.2       12 UNK         0.5000 
     73 O          -3.7196  -24.3155  -48.7331 O.2       12 UNK        -0.5000 
     74 N          -3.0913  -23.7505  -46.6244 N.am      13 UNK        -0.5000 
     75 CA         -3.2386  -25.0694  -46.0107 C.3       13 UNK         0.1400 
     76 CB         -3.1039  -24.9500  -44.4852 C.3       13 UNK        -0.1800 
     77 C          -2.2445  -26.1009  -46.5735 C.2       13 UNK         0.5000 
     78 O          -2.6573  -27.2085  -46.9175 O.2       13 UNK        -0.5000 
     79 N          -0.9670  -25.7117  -46.6934 N.am      14 UNK        -0.5000 
     80 CA          0.1104  -26.5343  -47.2497 C.3       14 UNK         0.1400 
     81 CB          1.4592  -25.8324  -47.0309 C.3       14 UNK        -0.1800 
     82 C          -0.0925  -26.8637  -48.7394 C.2       14 UNK         0.5000 
     83 O           0.1733  -27.9921  -49.1550 O.2       14 UNK        -0.5000 
     84 N          -0.5879  -25.8846  -49.5071 N.am      15 UNK        -0.5000 
     85 CA         -0.9440  -26.0329  -50.9178 C.3       15 UNK         0.1400 
     86 CB         -1.0334  -24.6375  -51.5560 C.3       15 UNK        -0.1800 
     87 C          -2.2657  -26.7919  -51.1422 C.2       15 UNK         0.5000 
     88 O          -2.5562  -27.1479  -52.2828 O.2       15 UNK        -0.5000 
     89 N          -3.0696  -26.9758  -50.0832 N.am      16 UNK        -0.5000 
     90 CA         -4.4414  -27.5007  -50.0962 C.3       16 UNK         0.1400 
     91 CB         -4.4476  -29.0049  -50.4366 C.3       16 UNK        -0.1800 
     92 C          -5.3691  -26.6648  -51.0070 C.2       16 UNK         0.5000 
     93 O          -6.1770  -27.2165  -51.7556 O.2       16 UNK        -0.5000 
     94 N          -5.1800  -25.3383  -50.9493 N.am      17 UNK        -0.5000 
     95 CA         -5.7989  -24.2835  -51.7580 C.3       17 UNK         0.1400 
     96 CB         -7.3255  -24.2450  -51.5455 C.3       17 UNK        -0.1800 
     97 C          -5.4210  -24.2934  -53.2573 C.2       17 UNK         0.5000 
     98 O          -5.9215  -23.4470  -53.9991 O.2       17 UNK        -0.5000 
     99 N          -4.5221  -25.1882  -53.6957 N.am      18 UNK        -0.5000 
    100 CA        -4.0274  -25.2700  -55.0737 C.3       18 UNK         0.1400 
    101 CB        -3.6845  -26.7323  -55.4105 C.3       18 UNK        -0.1800 
    102 C         -2.8430  -24.3061  -55.2953 C.2       18 UNK         0.5000 
    103 O         -1.7585  -24.7258  -55.7036 O.2       18 UNK        -0.5000 
    104 N         -3.0761  -23.0246  -55.0024 N.am      19 UNK        -0.5000 
    105 CA        -2.1393  -21.9194  -55.1580 C.3       19 UNK         0.1400 
    106 CB        -1.2286  -21.8156  -53.9143 C.3       19 UNK        -0.1800 
    107 C         -2.9698  -20.6617  -55.4577 C.2       19 UNK         0.5000 
    108 O         -3.7083  -20.6529  -56.4450 O.2       19 UNK        -0.5000 
    109 N         -2.8655  -19.6362  -54.6044 N.am      20 UNK        -0.5000 
    110 CA        -3.7209  -18.4511  -54.6220 C.3       20 UNK         0.1400 
    111 CB        -3.1097  -17.3960  -53.6885 C.3       20 UNK        -0.1800 
    112 C         -5.1605  -18.7941  -54.1897 C.2       20 UNK         0.5000 
    113 O         -5.3641  -19.7449  -53.4296 O.2       20 UNK        -0.5000 
    114 N         -6.1303  -17.9921  -54.6515 N.am      21 UNK        -0.5000 
    115 CA        -7.5707  -18.1729  -54.4168 C.3       21 UNK         0.1400 
    116 CB        -8.3411  -17.1058  -55.2096 C.3       21 UNK        -0.1800 
    117 C         -7.9933  -18.1503  -52.9323 C.2       21 UNK         0.5000 
    118 O         -9.0295  -18.7180  -52.5849 O.2       21 UNK        -0.5000 
    119 N         -7.1732  -17.5154  -52.0890 N.am      22 UNK        -0.5000 
    120 CA        -7.2454  -17.5547  -50.6223 C.3       22 UNK         0.1400 
    121 C         -6.8713  -18.9256  -49.9812 C.2       22 UNK         0.5000 
    122 N         -6.2893  -19.8763  -50.7036 N.am      22 UNK        -0.7600 
    123 O         -7.1287  -19.1342  -48.7993 O.2       22 UNK        -0.5000 
    124 C124       -6.4440  -16.3859  -49.9878 C.3       23 UNK        -0.0398 
    125 S125       -4.7585  -16.1919  -50.6699 S.3       23 UNK        -0.2404 
    126 C126       -3.7492  -16.9996  -49.3923 C.3       23 UNK        -0.0205 
    127 H127        4.4327   -9.5655  -47.7150 H         1 UNK         0.0600 
    128 H128        3.7661  -10.0081  -49.2898 H         1 UNK         0.0600 
    129 H129        2.7054   -9.3686  -48.0311 H         1 UNK         0.0600 
    130 H130        3.5665  -12.1937  -49.5321 H         1 UNK         0.3000 
    131 H131        3.3917  -14.3644  -49.2138 H         1 UNK         0.0600 
    132 H132        1.4559  -15.2460  -47.9606 H         1 UNK         0.0800 
    133 H133        1.3022  -13.7506  -47.0745 H         1 UNK         0.0800 
    134 H134        0.2678  -14.3120  -51.5669 H         1 UNK         0.0800 
    135 H135        1.6757  -14.9981  -50.8026 H         1 UNK         0.0800 
    136 H136       -1.9773  -14.9825  -49.8096 H         1 UNK         0.1150 
    137 H137       -2.3036  -19.2484  -49.9494 H         1 UNK         0.1150 
    138 H138        1.4010  -17.3555  -50.9739 H         1 UNK         0.1150 
    139 H139       -0.5189  -20.6042  -50.6736 H         1 UNK         0.0800 
    140 H140        0.5177  -19.8343  -51.8423 H         1 UNK         0.0800 
    141 H141        0.2223  -19.3658  -48.0409 H         1 UNK         0.0800 
    142 H142        1.8457  -19.6209  -47.4956 H         1 UNK         0.0800 
    143 H143        1.4875  -22.1082  -47.5034 H         1 UNK         0.0600 
    144 H144        0.4703  -20.2856  -45.6366 H         1 UNK         0.3000 
    145 H145       -0.7876  -22.5677  -43.1835 H         1 UNK         0.0600 
    146 H146        0.7468  -21.1397  -41.8298 H         1 UNK         0.0600 
    147 H147        1.6387  -22.3270  -42.7704 H         1 UNK         0.0600 
    148 H148        1.5990  -20.6500  -43.2927 H         1 UNK         0.0600 
    149 H149       -0.7783  -19.7229  -43.2780 H         1 UNK         0.3000 
    150 H150       -3.9587  -19.3357  -44.9089 H         1 UNK         0.0600 
    151 H151       -4.3842  -19.7312  -42.4734 H         1 UNK         0.0600 
    152 H152       -4.3482  -18.0168  -42.8576 H         1 UNK         0.0600 
    153 H153       -2.9673  -18.7701  -42.0644 H         1 UNK         0.0600 
    154 H154       -2.1087  -17.4035  -43.9531 H         1 UNK         0.3000 
    155 H155       -0.1755  -17.1014  -46.9833 H         1 UNK         0.0600 
    156 H156       -0.8316  -14.7194  -46.4294 H         1 UNK         0.0600 
    157 H157       -2.2020  -15.3404  -45.5116 H         1 UNK         0.0600 
    158 H158       -2.1030  -15.6083  -47.2387 H         1 UNK         0.0600 
    159 H159        0.1598  -15.8117  -44.4951 H         1 UNK         0.3000 
    160 H160        2.1013  -18.3298  -42.8456 H         1 UNK         0.0600 
    161 H161        2.9573  -15.6013  -43.8791 H         1 UNK         0.0600 
    162 H162        3.7160  -17.1181  -44.3579 H         1 UNK         0.0600 
    163 H163        3.7798  -16.6025  -42.6800 H         1 UNK         0.0600 
    164 H164        1.2464  -15.6227  -42.2252 H         1 UNK         0.3000 
    165 H165       -1.6210  -16.6802  -40.3489 H         1 UNK         0.0600 
    166 H166        1.0403  -15.3284  -39.6381 H         1 UNK         0.0600 
    167 H167       -0.4526  -15.2472  -38.7030 H         1 UNK         0.0600 
    168 H168        0.3977  -16.7753  -38.8691 H         1 UNK         0.0600 
    169 H169       -0.5962  -14.0948  -41.0264 H         1 UNK         0.3000 
    170 H170       -2.4435  -13.6228  -44.0252 H         1 UNK         0.0600 
    171 H171       -4.1717  -13.3342  -42.2416 H         1 UNK         0.0600 
    172 H172       -2.9944  -12.5062  -41.2294 H         1 UNK         0.0600 
    173 H173       -3.5064  -11.7947  -42.7605 H         1 UNK         0.0600 
    174 H174       -1.0515  -11.6964  -42.6243 H         1 UNK         0.3000 
    175 H175        1.1002  -11.2687  -44.6222 H         1 UNK         0.0600 
    176 H176        1.8820   -9.9534  -42.6109 H         1 UNK         0.0600 
    177 H177        0.1485  -10.1806  -42.6459 H         1 UNK         0.0600 
    178 H178        1.1389  -11.1538  -41.5596 H         1 UNK         0.0600 
    179 H179        3.1532  -11.9887  -44.5595 H         1 UNK         0.3000 
    180 H180        5.2368  -12.1324  -42.9443 H         1 UNK         0.0600 
    181 H181        5.1318  -14.9982  -41.8641 H         1 UNK         0.0600 
    182 H182        5.2828  -13.5458  -40.8866 H         1 UNK         0.0600 
    183 H183        6.5677  -13.9899  -41.9913 H         1 UNK         0.0600 
    184 H184        4.3408  -14.2221  -44.7532 H         1 UNK         0.3000 
    185 H185        7.2962  -13.8710  -46.7768 H         1 UNK         0.0600 
    186 H186        6.7939  -16.2849  -47.1151 H         1 UNK         0.0600 
    187 H187        7.5498  -15.9848  -45.5579 H         1 UNK         0.0600 
    188 H188        5.8269  -16.3042  -45.6409 H         1 UNK         0.0600 
    189 H189        5.5519  -13.3512  -47.9831 H         1 UNK         0.3000 
    190 H190       -1.8212  -20.6737  -47.3210 H         1 UNK         0.3000 
    191 H191       -2.9640  -22.0674  -49.4801 H         1 UNK         0.0600 
    192 H192       -4.0377  -20.1179  -48.4167 H         1 UNK         0.0600 
    193 H193       -5.1373  -21.4858  -48.3617 H         1 UNK         0.0600 
    194 H194       -4.2634  -21.0038  -46.9155 H         1 UNK         0.0600 
    195 H195       -2.8086  -22.9916  -46.0110 H         1 UNK         0.3000 
    196 H196       -4.2465  -25.4265  -46.2324 H         1 UNK         0.0600 
    197 H197       -3.2299  -25.9207  -44.0043 H         1 UNK         0.0600 
    198 H198       -3.8617  -24.2824  -44.0748 H         1 UNK         0.0600 
    199 H199       -2.1271  -24.5632  -44.1945 H         1 UNK         0.0600 
    200 H200       -0.6999  -24.7900  -46.3544 H         1 UNK         0.3000 
    201 H201        0.1255  -27.4782  -46.7011 H         1 UNK         0.0600 
    202 H202        1.6557  -25.6799  -45.9696 H         1 UNK         0.0600 
    203 H203        1.4885  -24.8576  -47.5195 H         1 UNK         0.0600 
    204 H204        2.2807  -26.4274  -47.4317 H         1 UNK         0.0600 
    205 H205       -0.7141  -24.9595  -49.1037 H         1 UNK         0.3000 
    206 H206       -0.1531  -26.5910  -51.4228 H         1 UNK         0.0600 
    207 H207       -0.0913  -24.0972  -51.4614 H         1 UNK         0.0600 
    208 H208       -1.2609  -24.7101  -52.6199 H         1 UNK         0.0600 
    209 H209       -1.8145  -24.0326  -51.0935 H         1 UNK         0.0600 
    210 H210       -2.7500  -26.6284  -49.1881 H         1 UNK         0.3000 
    211 H211       -4.8231  -27.3870  -49.0806 H         1 UNK         0.0600 
    212 H212       -4.1246  -29.1915  -51.4612 H         1 UNK         0.0600 
    213 H213       -5.4479  -29.4253  -50.3276 H         1 UNK         0.0600 
    214 H214       -3.7878  -29.5607  -49.7704 H         1 UNK         0.0600 
    215 H215       -4.5131  -25.0047  -50.2548 H         1 UNK         0.3000 
    216 H216       -5.3958  -23.3492  -51.3647 H         1 UNK         0.0600 
    217 H217       -7.5753  -24.2041  -50.4853 H         1 UNK         0.0600 
    218 H218       -7.8179  -25.1179  -51.9745 H         1 UNK         0.0600 
    219 H219       -7.7632  -23.3625  -52.0139 H         1 UNK         0.0600 
    220 H220       -4.1109  -25.8406  -53.0385 H         1 UNK         0.3000 
    221 H221       -4.8215  -24.9644  -55.7582 H         1 UNK         0.0600 
    222 H222       -2.8293  -27.0931  -54.8400 H         1 UNK         0.0600 
    223 H223       -4.5271  -27.3934  -55.2070 H         1 UNK         0.0600 
    224 H224       -3.4361  -26.8378  -56.4671 H         1 UNK         0.0600 
    225 H225       -4.0153  -22.7667  -54.7170 H         1 UNK         0.3000 
    226 H226       -1.5127  -22.0943  -56.0349 H         1 UNK         0.0600 
    227 H227       -0.6088  -22.7061  -53.8145 H         1 UNK         0.0600 
    228 H228       -0.5458  -20.9685  -53.9905 H         1 UNK         0.0600 
    229 H229       -1.8040  -21.7085  -52.9937 H         1 UNK         0.0600 
    230 H230       -2.2656  -19.7398  -53.8003 H         1 UNK         0.3000 
    231 H231       -3.7439  -18.0526  -55.6384 H         1 UNK         0.0600 
    232 H232       -3.7048  -16.4822  -53.6813 H         1 UNK         0.0600 
    233 H233       -2.1022  -17.1235  -54.0032 H         1 UNK         0.0600 
    234 H234       -3.0507  -17.7581  -52.6618 H         1 UNK         0.0600 
    235 H235       -5.8753  -17.2213  -55.2521 H         1 UNK         0.3000 
    236 H236       -7.8436  -19.1541  -54.8107 H         1 UNK         0.0600 
    237 H237       -9.4181  -17.2259  -55.0841 H         1 UNK         0.0600 
    238 H238       -8.0830  -16.0980  -54.8818 H         1 UNK         0.0600 
    239 H239       -8.1311  -17.1773  -56.2770 H         1 UNK         0.0600 
    240 H240       -6.3414  -17.0849  -52.4655 H         1 UNK         0.3000 
    241 H241       -8.2925  -17.3980  -50.3565 H         1 UNK         0.0600 
    242 H242       -6.0508  -19.7335  -51.6820 H         1 UNK         0.3800 
    243 H243       -6.0814  -20.7568  -50.2672 H         1 UNK         0.3800 
    244 H244       -6.9734  -15.4523  -50.1816 H         1 UNK         0.0800 
    245 H245       -6.4027  -16.4712  -48.9003 H         1 UNK         0.0800 
    246 H246       -3.8255  -16.4367  -48.4627 H         1 UNK         0.0800 
    247 H247       -4.1572  -17.9882  -49.1877 H         1 UNK         0.0800 
@<TRIPOS>BOND
     1    1    2 1    
     2    1  127 1    
     3    1  128 1    
     4    1  129 1    
     5    2    3 2    
     6    2    4 am   BACKBONE|DICT|INTERRES
     7    4    5 1    
     8    4  130 1    
     9    5    6 1    
    10    5   65 1    
    11    5  131 1    
    12    6    7 1    
    13    6  132 1    
    14    6  133 1    
    15    7    8 1    
    16    8    9 1    
    17    8  134 1    
    18    8  135 1    
    19    9   10 ar   
    20    9   14 ar   
    21   10   11 ar   
    22   10  136 1    
    23   11   12 ar   
    24   11  126 1    
    25   12   13 ar   
    26   12  137 1    
    27   13   14 ar   
    28   13   15 1    
    29   14  138 1    
    30   15   16 1    
    31   15  139 1    
    32   15  140 1    
    33   16   17 1    
    34   17   18 1    
    35   17  141 1    
    36   17  142 1    
    37   18   19 1    
    38   18   67 1    
    39   18  143 1    
    40   19   20 am   BACKBONE|DICT|INTERRES
    41   19  144 1    
    42   20   21 2    
    43   20   22 1    
    44   22   23 1    
    45   22   24 1    
    46   22  145 1    
    47   23  146 1    
    48   23  147 1    
    49   23  148 1    
    50   24   25 am   BACKBONE|DICT|INTERRES
    51   24  149 1    
    52   25   26 2    
    53   25   27 1    
    54   27   28 1    
    55   27   29 1    
    56   27  150 1    
    57   28  151 1    
    58   28  152 1    
    59   28  153 1    
    60   29   30 am   BACKBONE|DICT|INTERRES
    61   29  154 1    
    62   30   31 2    
    63   30   32 1    
    64   32   33 1    
    65   32   34 1    
    66   32  155 1    
    67   33  156 1    
    68   33  157 1    
    69   33  158 1    
    70   34   35 am   BACKBONE|DICT|INTERRES
    71   34  159 1    
    72   35   36 2    
    73   35   37 1    
    74   37   38 1    
    75   37   39 1    
    76   37  160 1    
    77   38  161 1    
    78   38  162 1    
    79   38  163 1    
    80   39   40 am   BACKBONE|DICT|INTERRES
    81   39  164 1    
    82   40   41 2    
    83   40   42 1    
    84   42   43 1    
    85   42   44 1    
    86   42  165 1    
    87   43  166 1    
    88   43  167 1    
    89   43  168 1    
    90   44   45 am   BACKBONE|DICT|INTERRES
    91   44  169 1    
    92   45   46 2    
    93   45   47 1    
    94   47   48 1    
    95   47   49 1    
    96   47  170 1    
    97   48  171 1    
    98   48  172 1    
    99   48  173 1    
   100   49   50 am   BACKBONE|DICT|INTERRES
   101   49  174 1    
   102   50   51 2    
   103   50   52 1    
   104   52   53 1    
   105   52   54 1    
   106   52  175 1    
   107   53  176 1    
   108   53  177 1    
   109   53  178 1    
   110   54   55 am   BACKBONE|DICT|INTERRES
   111   54  179 1    
   112   55   56 2    
   113   55   57 1    
   114   57   58 1    
   115   57   59 1    
   116   57  180 1    
   117   58  181 1    
   118   58  182 1    
   119   58  183 1    
   120   59   60 am   BACKBONE|DICT|INTERRES
   121   59  184 1    
   122   60   61 2    
   123   60   62 1    
   124   62   63 1    
   125   62   64 1    
   126   62  185 1    
   127   63  186 1    
   128   63  187 1    
   129   63  188 1    
   130   64   65 am   BACKBONE|DICT|INTERRES
   131   64  189 1    
   132   65   66 2    
   133   67   68 2    
   134   67   69 am   BACKBONE|DICT|INTERRES
   135   69   70 1    
   136   69  190 1    
   137   70   71 1    
   138   70   72 1    
   139   70  191 1    
   140   71  192 1    
   141   71  193 1    
   142   71  194 1    
   143   72   73 2    
   144   72   74 am   BACKBONE|DICT|INTERRES
   145   74   75 1    
   146   74  195 1    
   147   75   76 1    
   148   75   77 1    
   149   75  196 1    
   150   76  197 1    
   151   76  198 1    
   152   76  199 1    
   153   77   78 2    
   154   77   79 am   BACKBONE|DICT|INTERRES
   155   79   80 1    
   156   79  200 1    
   157   80   81 1    
   158   80   82 1    
   159   80  201 1    
   160   81  202 1    
   161   81  203 1    
   162   81  204 1    
   163   82   83 2    
   164   82   84 am   BACKBONE|DICT|INTERRES
   165   84   85 1    
   166   84  205 1    
   167   85   86 1    
   168   85   87 1    
   169   85  206 1    
   170   86  207 1    
   171   86  208 1    
   172   86  209 1    
   173   87   88 2    
   174   87   89 am   BACKBONE|DICT|INTERRES
   175   89   90 1    
   176   89  210 1    
   177   90   91 1    
   178   90   92 1    
   179   90  211 1    
   180   91  212 1    
   181   91  213 1    
   182   91  214 1    
   183   92   93 2    
   184   92   94 am   BACKBONE|DICT|INTERRES
   185   94   95 1    
   186   94  215 1    
   187   95   96 1    
   188   95   97 1    
   189   95  216 1    
   190   96  217 1    
   191   96  218 1    
   192   96  219 1    
   193   97   98 2    
   194   97   99 am   BACKBONE|DICT|INTERRES
   195   99  100 1    
   196   99  220 1    
   197  100  101 1    
   198  100  102 1    
   199  100  221 1    
   200  101  222 1    
   201  101  223 1    
   202  101  224 1    
   203  102  103 2    
   204  102  104 am   BACKBONE|DICT|INTERRES
   205  104  105 1    
   206  104  225 1    
   207  105  106 1    
   208  105  107 1    
   209  105  226 1    
   210  106  227 1    
   211  106  228 1    
   212  106  229 1    
   213  107  108 2    
   214  107  109 am   BACKBONE|DICT|INTERRES
   215  109  110 1    
   216  109  230 1    
   217  110  111 1    
   218  110  112 1    
   219  110  231 1    
   220  111  232 1    
   221  111  233 1    
   222  111  234 1    
   223  112  113 2    
   224  112  114 am   BACKBONE|DICT|INTERRES
   225  114  115 1    
   226  114  235 1    
   227  115  116 1    
   228  115  117 1    
   229  115  236 1    
   230  116  237 1    
   231  116  238 1    
   232  116  239 1    
   233  117  118 2    
   234  117  119 am   BACKBONE|DICT|INTERRES
   235  119  120 1    
   236  119  240 1    
   237  120  121 1    
   238  120  124 1    
   239  120  241 1    
   240  121  122 am   BACKBONE|DICT|INTERRES
   241  121  123 2    
   242  122  242 1    
   243  122  243 1    
   244  124  125 1    
   245  124  244 1    
   246  124  245 1    
   247  125  126 1    
   248  126  246 1    
   249  126  247 1    
@<TRIPOS>SUBSTRUCTURE
     1 UNK         1 GROUP             0       ****    0 ROOT    
