@<TRIPOS>MOLECULE
3R540
247   249    1
SMALL
USER_CHARGES


@<TRIPOS>ATOM
      1 CA          4.2749  -17.4200  -46.1456 C.3       0 UNK        -0.1800 
      2 C           3.3121  -16.2425  -46.1382 C.2       0 UNK         0.5000 
      3 O           3.3609  -15.4140  -45.2284 O.2       0 UNK        -0.5000 
      4 N           2.4561  -16.1493  -47.1657 N.am      1 UNK        -0.5000 
      5 CA          1.4679  -15.0780  -47.3626 C.3       1 UNK         0.1400 
      6 C6          0.5464  -15.3575  -48.5768 C.3       23 UNK        -0.0398 
      7 S7         -0.5346  -16.8082  -48.3269 S.3       23 UNK        -0.2404 
      8 C8         -2.1510  -16.1070  -48.7869 C.3       23 UNK        -0.0205 
      9 C9         -3.2913  -17.0626  -48.4742 C.ar      23 UNK        -0.0193 
     10 C10        -3.7682  -17.9507  -49.4429 C.ar      23 UNK        -0.1150 
     11 C11        -4.8397  -18.8042  -49.1559 C.ar      23 UNK        -0.0193 
     12 C12        -5.4144  -18.7844  -47.8815 C.ar      23 UNK        -0.1150 
     13 C13        -4.9369  -17.9083  -46.9032 C.ar      23 UNK        -0.0193 
     14 C14        -3.8886  -17.0396  -47.2127 C.ar      23 UNK        -0.1150 
     15 C15        -5.5410  -17.8962  -45.5083 C.3       23 UNK        -0.0205 
     16 S16        -4.4232  -18.6639  -44.2928 S.3       23 UNK        -0.2404 
     17 C17        -4.5422  -20.4310  -44.7413 C.3       23 UNK        -0.0398 
     18 CA         -3.4414  -20.9097  -45.7223 C.3       11 UNK         0.1400 
     19 N          -2.0966  -20.5296  -45.2824 N.am      11 UNK        -0.5000 
     20 C          -0.9645  -20.7513  -45.9621 C.2       10 UNK         0.5000 
     21 O          -0.9227  -21.2799  -47.0710 O.2       10 UNK        -0.5000 
     22 CA          0.3518  -20.3935  -45.2596 C.3       10 UNK         0.1400 
     23 CB          0.8669  -19.0394  -45.7565 C.3       10 UNK        -0.1800 
     24 N           0.2491  -20.3741  -43.7998 N.am      10 UNK        -0.5000 
     25 C          -0.0410  -21.4204  -43.0121 C.2       9 UNK         0.5000 
     26 O          -0.3694  -22.5268  -43.4477 O.2       9 UNK        -0.5000 
     27 CA          0.0297  -21.1634  -41.4913 C.3       9 UNK         0.1400 
     28 CB          0.2321  -22.4541  -40.6717 C.3       9 UNK        -0.1800 
     29 N           1.0265  -20.1400  -41.1483 N.am      9 UNK        -0.5000 
     30 C           2.3558  -20.1991  -41.3262 C.2       8 UNK         0.5000 
     31 O           2.9594  -21.2104  -41.6853 O.2       8 UNK        -0.5000 
     32 CA          3.1482  -18.8936  -41.1127 C.3       8 UNK         0.1400 
     33 CB          3.5487  -18.2906  -42.4675 C.3       8 UNK        -0.1800 
     34 N           2.4159  -17.8775  -40.3571 N.am      8 UNK        -0.5000 
     35 C           2.2321  -17.8995  -39.0305 C.2       7 UNK         0.5000 
     36 O           2.6645  -18.7840  -38.2911 O.2       7 UNK        -0.5000 
     37 CA          1.4108  -16.7431  -38.4378 C.3       7 UNK         0.1400 
     38 CB          2.2817  -15.4893  -38.2686 C.3       7 UNK        -0.1800 
     39 N           0.2529  -16.4239  -39.2728 N.am      7 UNK        -0.5000 
     40 C          -0.8858  -17.1305  -39.2829 C.2       6 UNK         0.5000 
     41 O          -1.0882  -18.1124  -38.5684 O.2       6 UNK        -0.5000 
     42 CA         -1.9818  -16.6711  -40.2622 C.3       6 UNK         0.1400 
     43 CB         -2.9110  -15.6488  -39.5906 C.3       6 UNK        -0.1800 
     44 N          -1.4464  -16.0942  -41.4957 N.am      6 UNK        -0.5000 
     45 C          -0.8205  -16.7989  -42.4469 C.2       5 UNK         0.5000 
     46 O          -0.6046  -18.0078  -42.3794 O.2       5 UNK        -0.5000 
     47 CA         -0.3266  -16.0137  -43.6722 C.3       5 UNK         0.1400 
     48 CB         -1.4815  -15.8379  -44.6677 C.3       5 UNK        -0.1800 
     49 N           0.2679  -14.7126  -43.3562 N.am      5 UNK        -0.5000 
     50 C           1.3252  -14.5414  -42.5516 C.2       4 UNK         0.5000 
     51 O           1.8493  -15.4493  -41.9016 O.2       4 UNK        -0.5000 
     52 CA          1.9193  -13.1317  -42.4870 C.3       4 UNK         0.1400 
     53 CB          2.2176  -12.7313  -41.0259 C.3       4 UNK        -0.1800 
     54 N           3.1294  -13.1511  -43.3029 N.am      4 UNK        -0.5000 
     55 C           3.9620  -12.1286  -43.5286 C.2       3 UNK         0.5000 
     56 O           3.7871  -10.9849  -43.1065 O.2       3 UNK        -0.5000 
     57 CA          5.1913  -12.4358  -44.3963 C.3       3 UNK         0.1400 
     58 CB          6.0304  -13.5898  -43.8178 C.3       3 UNK        -0.1800 
     59 N           4.7701  -12.7678  -45.7540 N.am      3 UNK        -0.5000 
     60 C           4.6657  -11.8823  -46.7549 C.2       2 UNK         0.5000 
     61 O           4.9661  -10.6925  -46.6490 O.2       2 UNK        -0.5000 
     62 CA          4.1496  -12.4040  -48.1117 C.3       2 UNK         0.1400 
     63 CB          5.3246  -12.6710  -49.0653 C.3       2 UNK        -0.1800 
     64 N           3.3484  -13.6230  -47.9985 N.am      2 UNK        -0.5000 
     65 C           2.1084  -13.6785  -47.4925 C.2       1 UNK         0.5000 
     66 O           1.4798  -12.6887  -47.1169 O.2       1 UNK        -0.5000 
     67 C          -3.5822  -22.4284  -45.9708 C.2       11 UNK         0.5000 
     68 O          -4.3734  -22.8255  -46.8261 O.2       11 UNK        -0.5000 
     69 N          -2.8047  -23.2355  -45.2343 N.am      12 UNK        -0.5000 
     70 CA         -2.7137  -24.6839  -45.3937 C.3       12 UNK         0.1400 
     71 CB         -2.9185  -25.3508  -44.0242 C.3       12 UNK        -0.1800 
     72 C          -1.3578  -25.0956  -45.9910 C.2       12 UNK         0.5000 
     73 O          -1.3232  -25.9787  -46.8481 O.2       12 UNK        -0.5000 
     74 N          -0.2654  -24.4726  -45.5225 N.am      13 UNK        -0.5000 
     75 CA          1.1074  -24.8510  -45.8659 C.3       13 UNK         0.1400 
     76 CB          2.0760  -24.2349  -44.8441 C.3       13 UNK        -0.1800 
     77 C           1.5282  -24.4852  -47.3016 C.2       13 UNK         0.5000 
     78 O           2.3761  -25.1792  -47.8648 O.2       13 UNK        -0.5000 
     79 N           0.9450  -23.4192  -47.8644 N.am      14 UNK        -0.5000 
     80 CA          1.1871  -22.9694  -49.2357 C.3       14 UNK         0.1400 
     81 CB          1.7370  -21.5326  -49.2250 C.3       14 UNK        -0.1800 
     82 C          -0.1030  -23.0606  -50.0612 C.2       14 UNK         0.5000 
     83 O          -0.0735  -23.5933  -51.1708 O.2       14 UNK        -0.5000 
     84 N          -1.2081  -22.5370  -49.5069 N.am      15 UNK        -0.5000 
     85 CA         -2.5773  -22.5554  -50.0373 C.3       15 UNK         0.1400 
     86 CB         -3.1564  -23.9812  -49.9401 C.3       15 UNK        -0.1800 
     87 C          -2.7037  -21.9635  -51.4587 C.2       15 UNK         0.5000 
     88 O          -3.5216  -22.4334  -52.2513 O.2       15 UNK        -0.5000 
     89 N          -1.8500  -20.9750  -51.7736 N.am      16 UNK        -0.5000 
     90 CA         -1.6585  -20.3564  -53.0942 C.3       16 UNK         0.1400 
     91 CB         -2.8695  -19.4742  -53.4574 C.3       16 UNK        -0.1800 
     92 C          -1.3168  -21.3774  -54.2053 C.2       16 UNK         0.5000 
     93 O          -1.7127  -21.1912  -55.3566 O.2       16 UNK        -0.5000 
     94 N          -0.6339  -22.4700  -53.8247 N.am      17 UNK        -0.5000 
     95 CA         -0.3005  -23.6459  -54.6377 C.3       17 UNK         0.1400 
     96 CB          0.6787  -23.2693  -55.7693 C.3       17 UNK        -0.1800 
     97 C          -1.5369  -24.4159  -55.1566 C.2       17 UNK         0.5000 
     98 O          -1.4127  -25.1867  -56.1097 O.2       17 UNK        -0.5000 
     99 N          -2.7043  -24.1904  -54.5298 N.am      18 UNK        -0.5000 
    100 CA        -4.0283  -24.7034  -54.8939 C.3       18 UNK         0.1400 
    101 CB        -4.1075  -26.2265  -54.6620 C.3       18 UNK        -0.1800 
    102 C         -4.4746  -24.2828  -56.3123 C.2       18 UNK         0.5000 
    103 O         -5.1957  -25.0289  -56.9785 O.2       18 UNK        -0.5000 
    104 N         -4.0455  -23.0917  -56.7558 N.am      19 UNK        -0.5000 
    105 CA        -4.2889  -22.5266  -58.0859 C.3       19 UNK         0.1400 
    106 CB        -3.2218  -21.4522  -58.3614 C.3       19 UNK        -0.1800 
    107 C         -5.7285  -21.9934  -58.2628 C.2       19 UNK         0.5000 
    108 O         -5.9219  -20.8164  -58.5705 O.2       19 UNK        -0.5000 
    109 N         -6.7151  -22.8731  -58.0456 N.am      20 UNK        -0.5000 
    110 CA        -8.1722  -22.7023  -58.1447 C.3       20 UNK         0.1400 
    111 CB        -8.5919  -22.2725  -59.5635 C.3       20 UNK        -0.1800 
    112 C         -8.8052  -21.7842  -57.0782 C.2       20 UNK         0.5000 
    113 O         -9.9261  -22.0571  -56.6462 O.2       20 UNK        -0.5000 
    114 N         -8.0948  -20.7352  -56.6576 N.am      21 UNK        -0.5000 
    115 CA        -8.4968  -19.7761  -55.6360 C.3       21 UNK         0.1400 
    116 CB        -9.3946  -18.6951  -56.2662 C.3       21 UNK        -0.1800 
    117 C         -7.2423  -19.1583  -55.0017 C.2       21 UNK         0.5000 
    118 O         -6.1460  -19.2794  -55.5542 O.2       21 UNK        -0.5000 
    119 N         -7.4306  -18.4950  -53.8561 N.am      22 UNK        -0.5000 
    120 CA        -6.3643  -17.8134  -53.1016 C.3       22 UNK         0.1400 
    121 C         -5.9083  -16.4493  -53.6999 C.2       22 UNK         0.5000 
    122 N         -6.5833  -15.8976  -54.7011 N.am      22 UNK        -0.7600 
    123 O         -4.9162  -15.8831  -53.2502 O.2       22 UNK        -0.5000 
    124 C124       -6.7236  -17.6654  -51.6019 C.3       23 UNK        -0.0398 
    125 S125       -7.0467  -19.2686  -50.7877 S.3       23 UNK        -0.2404 
    126 C126       -5.3823  -19.7464  -50.2203 C.3       23 UNK        -0.0205 
    127 H127        5.3037  -17.0607  -46.1596 H         1 UNK         0.0600 
    128 H128        4.1250  -18.0612  -47.0145 H         1 UNK         0.0600 
    129 H129        4.1384  -18.0248  -45.2516 H         1 UNK         0.0600 
    130 H130        2.4582  -16.8681  -47.8751 H         1 UNK         0.3000 
    131 H131        0.8558  -15.0454  -46.4618 H         1 UNK         0.0600 
    132 H132       -0.0807  -14.4883  -48.7842 H         1 UNK         0.0800 
    133 H133        1.1384  -15.5188  -49.4793 H         1 UNK         0.0800 
    134 H134       -2.1484  -15.8589  -49.8495 H         1 UNK         0.0800 
    135 H135       -2.3081  -15.1695  -48.2509 H         1 UNK         0.0800 
    136 H136       -3.3141  -17.9636  -50.4232 H         1 UNK         0.1150 
    137 H137       -6.2341  -19.4518  -47.6550 H         1 UNK         0.1150 
    138 H138       -3.5336  -16.3477  -46.4644 H         1 UNK         0.1150 
    139 H139       -5.7301  -16.8643  -45.2092 H         1 UNK         0.0800 
    140 H140       -6.5086  -18.4000  -45.4938 H         1 UNK         0.0800 
    141 H141       -5.5324  -20.6266  -45.1567 H         1 UNK         0.0800 
    142 H142       -4.4908  -21.0001  -43.8112 H         1 UNK         0.0800 
    143 H143       -3.5972  -20.4225  -46.6849 H         1 UNK         0.0600 
    144 H144       -2.0343  -20.0722  -44.3845 H         1 UNK         0.3000 
    145 H145        1.0868  -21.1531  -45.5281 H         1 UNK         0.0600 
    146 H146        1.7577  -18.7297  -45.2128 H         1 UNK         0.0600 
    147 H147        1.1296  -19.0894  -46.8137 H         1 UNK         0.0600 
    148 H148        0.1112  -18.2626  -45.6493 H         1 UNK         0.0600 
    149 H149        0.3781  -19.4782  -43.3432 H         1 UNK         0.3000 
    150 H150       -0.9380  -20.7447  -41.2119 H         1 UNK         0.0600 
    151 H151       -0.6055  -23.1384  -40.8117 H         1 UNK         0.0600 
    152 H152        0.2998  -22.2377  -39.6056 H         1 UNK         0.0600 
    153 H153        1.1367  -22.9867  -40.9661 H         1 UNK         0.0600 
    154 H154        0.6399  -19.2377  -40.9034 H         1 UNK         0.3000 
    155 H155        4.0599  -19.1466  -40.5675 H         1 UNK         0.0600 
    156 H156        2.6742  -17.9970  -43.0495 H         1 UNK         0.0600 
    157 H157        4.1183  -19.0073  -43.0602 H         1 UNK         0.0600 
    158 H158        4.1723  -17.4056  -42.3387 H         1 UNK         0.0600 
    159 H159        2.0726  -17.0805  -40.8872 H         1 UNK         0.3000 
    160 H160        1.0605  -17.0465  -37.4488 H         1 UNK         0.0600 
    161 H161        2.6991  -15.1590  -39.2195 H         1 UNK         0.0600 
    162 H162        3.1176  -15.6851  -37.5959 H         1 UNK         0.0600 
    163 H163        1.7099  -14.6630  -37.8460 H         1 UNK         0.0600 
    164 H164        0.3591  -15.6638  -39.9288 H         1 UNK         0.3000 
    165 H165       -2.5762  -17.5482  -40.5279 H         1 UNK         0.0600 
    166 H166       -3.7364  -15.3749  -40.2479 H         1 UNK         0.0600 
    167 H167       -3.3462  -16.0576  -38.6777 H         1 UNK         0.0600 
    168 H168       -2.3784  -14.7361  -39.3204 H         1 UNK         0.0600 
    169 H169       -1.5745  -15.1025  -41.6327 H         1 UNK         0.3000 
    170 H170        0.4578  -16.6039  -44.1473 H         1 UNK         0.0600 
    171 H171       -1.8653  -16.8120  -44.9735 H         1 UNK         0.0600 
    172 H172       -2.3114  -15.2809  -44.2312 H         1 UNK         0.0600 
    173 H173       -1.1726  -15.3151  -45.5705 H         1 UNK         0.0600 
    174 H174       -0.1025  -13.9155  -43.8532 H         1 UNK         0.3000 
    175 H175        1.2117  -12.4201  -42.9163 H         1 UNK         0.0600 
    176 H176        3.0623  -13.2897  -40.6221 H         1 UNK         0.0600 
    177 H177        2.4504  -11.6704  -40.9403 H         1 UNK         0.0600 
    178 H178        1.3577  -12.9195  -40.3818 H         1 UNK         0.0600 
    179 H179        3.3245  -14.0453  -43.7471 H         1 UNK         0.3000 
    180 H180        5.8247  -11.5461  -44.4073 H         1 UNK         0.0600 
    181 H181        5.4890  -14.5360  -43.8125 H         1 UNK         0.0600 
    182 H182        6.3280  -13.3767  -42.7904 H         1 UNK         0.0600 
    183 H183        6.9429  -13.7353  -44.3960 H         1 UNK         0.0600 
    184 H184        4.4321  -13.7113  -45.8978 H         1 UNK         0.3000 
    185 H185        3.5259  -11.6216  -48.5494 H         1 UNK         0.0600 
    186 H186        5.9304  -11.7738  -49.1998 H         1 UNK         0.0600 
    187 H187        5.9803  -13.4558  -48.6863 H         1 UNK         0.0600 
    188 H188        4.9720  -12.9736  -50.0515 H         1 UNK         0.0600 
    189 H189        3.7908  -14.4853  -48.2814 H         1 UNK         0.3000 
    190 H190       -2.1639  -22.8170  -44.5706 H         1 UNK         0.3000 
    191 H191       -3.4942  -25.0473  -46.0654 H         1 UNK         0.0600 
    192 H192       -2.1719  -25.0236  -43.2989 H         1 UNK         0.0600 
    193 H193       -2.8480  -26.4364  -44.1032 H         1 UNK         0.0600 
    194 H194       -3.9029  -25.1177  -43.6181 H         1 UNK         0.0600 
    195 H195       -0.3632  -23.7771  -44.7867 H         1 UNK         0.3000 
    196 H196        1.1829  -25.9369  -45.7765 H         1 UNK         0.0600 
    197 H197        3.1007  -24.5563  -45.0346 H         1 UNK         0.0600 
    198 H198        1.8243  -24.5391  -43.8278 H         1 UNK         0.0600 
    199 H199        2.0644  -23.1463  -44.8778 H         1 UNK         0.0600 
    200 H200        0.2326  -22.9179  -47.3475 H         1 UNK         0.3000 
    201 H201        1.9283  -23.6034  -49.7265 H         1 UNK         0.0600 
    202 H202        2.6689  -21.4748  -48.6626 H         1 UNK         0.0600 
    203 H203        1.0371  -20.8250  -48.7808 H         1 UNK         0.0600 
    204 H204        1.9479  -21.1901  -50.2388 H         1 UNK         0.0600 
    205 H205       -1.1086  -22.0671  -48.6071 H         1 UNK         0.3000 
    206 H206       -3.1662  -21.9111  -49.3832 H         1 UNK         0.0600 
    207 H207       -3.0644  -24.3742  -48.9273 H         1 UNK         0.0600 
    208 H208       -4.2167  -23.9930  -50.1948 H         1 UNK         0.0600 
    209 H209       -2.6471  -24.6703  -50.6147 H         1 UNK         0.0600 
    210 H210       -1.2101  -20.6709  -51.0535 H         1 UNK         0.3000 
    211 H211       -0.7885  -19.7043  -53.0068 H         1 UNK         0.0600 
    212 H212       -3.7717  -20.0697  -53.6014 H         1 UNK         0.0600 
    213 H213       -2.6939  -18.9231  -54.3820 H         1 UNK         0.0600 
    214 H214       -3.0674  -18.7373  -52.6803 H         1 UNK         0.0600 
    215 H215       -0.4056  -22.5720  -52.8403 H         1 UNK         0.3000 
    216 H216        0.2189  -24.3332  -53.9685 H         1 UNK         0.0600 
    217 H217        1.0602  -24.1600  -56.2697 H         1 UNK         0.0600 
    218 H218        1.5392  -22.7244  -55.3814 H         1 UNK         0.0600 
    219 H219        0.2021  -22.6490  -56.5289 H         1 UNK         0.0600 
    220 H220       -2.7094  -23.5337  -53.7557 H         1 UNK         0.3000 
    221 H221       -4.7319  -24.2307  -54.2073 H         1 UNK         0.0600 
    222 H222       -3.4756  -26.7767  -55.3597 H         1 UNK         0.0600 
    223 H223       -3.7971  -26.4871  -53.6501 H         1 UNK         0.0600 
    224 H224       -5.1280  -26.5894  -54.7900 H         1 UNK         0.0600 
    225 H225       -3.4583  -22.5369  -56.1452 H         1 UNK         0.3000 
    226 H226       -4.1521  -23.3194  -58.8241 H         1 UNK         0.0600 
    227 H227       -2.2159  -21.8647  -58.2782 H         1 UNK         0.0600 
    228 H228       -3.3235  -21.0454  -59.3682 H         1 UNK         0.0600 
    229 H229       -3.3000  -20.6209  -57.6592 H         1 UNK         0.0600 
    230 H230       -6.4148  -23.7978  -57.7460 H         1 UNK         0.3000 
    231 H231       -8.5872  -23.6968  -57.9734 H         1 UNK         0.0600 
    232 H232       -8.2010  -22.9576  -60.3157 H         1 UNK         0.0600 
    233 H233       -8.2413  -21.2692  -59.8069 H         1 UNK         0.0600 
    234 H234       -9.6782  -22.2677  -59.6616 H         1 UNK         0.0600 
    235 H235       -7.1740  -20.5740  -57.0587 H         1 UNK         0.3000 
    236 H236       -9.0477  -20.2972  -54.8501 H         1 UNK         0.0600 
    237 H237       -9.7179  -17.9655  -55.5231 H         1 UNK         0.0600 
    238 H238       -8.8730  -18.1535  -57.0563 H         1 UNK         0.0600 
    239 H239      -10.2947  -19.1315  -56.6996 H         1 UNK         0.0600 
    240 H240       -8.3577  -18.4405  -53.4603 H         1 UNK         0.3000 
    241 H241       -5.4821  -18.4508  -53.1499 H         1 UNK         0.0600 
    242 H242       -7.3950  -16.3520  -55.0864 H         1 UNK         0.3800 
    243 H243       -6.2734  -15.0170  -55.0816 H         1 UNK         0.3800 
    244 H244       -5.9340  -17.1428  -51.0611 H         1 UNK         0.0800 
    245 H245       -7.6150  -17.0461  -51.4908 H         1 UNK         0.0800 
    246 H246       -5.4268  -20.7578  -49.8139 H         1 UNK         0.0800 
    247 H247       -4.7139  -19.7895  -51.0803 H         1 UNK         0.0800 
@<TRIPOS>BOND
     1    1    2 1    
     2    1  127 1    
     3    1  128 1    
     4    1  129 1    
     5    2    3 2    
     6    2    4 am   BACKBONE|DICT|INTERRES
     7    4    5 1    
     8    4  130 1    
     9    5    6 1    
    10    5   65 1    
    11    5  131 1    
    12    6    7 1    
    13    6  132 1    
    14    6  133 1    
    15    7    8 1    
    16    8    9 1    
    17    8  134 1    
    18    8  135 1    
    19    9   10 ar   
    20    9   14 ar   
    21   10   11 ar   
    22   10  136 1    
    23   11   12 ar   
    24   11  126 1    
    25   12   13 ar   
    26   12  137 1    
    27   13   14 ar   
    28   13   15 1    
    29   14  138 1    
    30   15   16 1    
    31   15  139 1    
    32   15  140 1    
    33   16   17 1    
    34   17   18 1    
    35   17  141 1    
    36   17  142 1    
    37   18   19 1    
    38   18   67 1    
    39   18  143 1    
    40   19   20 am   BACKBONE|DICT|INTERRES
    41   19  144 1    
    42   20   21 2    
    43   20   22 1    
    44   22   23 1    
    45   22   24 1    
    46   22  145 1    
    47   23  146 1    
    48   23  147 1    
    49   23  148 1    
    50   24   25 am   BACKBONE|DICT|INTERRES
    51   24  149 1    
    52   25   26 2    
    53   25   27 1    
    54   27   28 1    
    55   27   29 1    
    56   27  150 1    
    57   28  151 1    
    58   28  152 1    
    59   28  153 1    
    60   29   30 am   BACKBONE|DICT|INTERRES
    61   29  154 1    
    62   30   31 2    
    63   30   32 1    
    64   32   33 1    
    65   32   34 1    
    66   32  155 1    
    67   33  156 1    
    68   33  157 1    
    69   33  158 1    
    70   34   35 am   BACKBONE|DICT|INTERRES
    71   34  159 1    
    72   35   36 2    
    73   35   37 1    
    74   37   38 1    
    75   37   39 1    
    76   37  160 1    
    77   38  161 1    
    78   38  162 1    
    79   38  163 1    
    80   39   40 am   BACKBONE|DICT|INTERRES
    81   39  164 1    
    82   40   41 2    
    83   40   42 1    
    84   42   43 1    
    85   42   44 1    
    86   42  165 1    
    87   43  166 1    
    88   43  167 1    
    89   43  168 1    
    90   44   45 am   BACKBONE|DICT|INTERRES
    91   44  169 1    
    92   45   46 2    
    93   45   47 1    
    94   47   48 1    
    95   47   49 1    
    96   47  170 1    
    97   48  171 1    
    98   48  172 1    
    99   48  173 1    
   100   49   50 am   BACKBONE|DICT|INTERRES
   101   49  174 1    
   102   50   51 2    
   103   50   52 1    
   104   52   53 1    
   105   52   54 1    
   106   52  175 1    
   107   53  176 1    
   108   53  177 1    
   109   53  178 1    
   110   54   55 am   BACKBONE|DICT|INTERRES
   111   54  179 1    
   112   55   56 2    
   113   55   57 1    
   114   57   58 1    
   115   57   59 1    
   116   57  180 1    
   117   58  181 1    
   118   58  182 1    
   119   58  183 1    
   120   59   60 am   BACKBONE|DICT|INTERRES
   121   59  184 1    
   122   60   61 2    
   123   60   62 1    
   124   62   63 1    
   125   62   64 1    
   126   62  185 1    
   127   63  186 1    
   128   63  187 1    
   129   63  188 1    
   130   64   65 am   BACKBONE|DICT|INTERRES
   131   64  189 1    
   132   65   66 2    
   133   67   68 2    
   134   67   69 am   BACKBONE|DICT|INTERRES
   135   69   70 1    
   136   69  190 1    
   137   70   71 1    
   138   70   72 1    
   139   70  191 1    
   140   71  192 1    
   141   71  193 1    
   142   71  194 1    
   143   72   73 2    
   144   72   74 am   BACKBONE|DICT|INTERRES
   145   74   75 1    
   146   74  195 1    
   147   75   76 1    
   148   75   77 1    
   149   75  196 1    
   150   76  197 1    
   151   76  198 1    
   152   76  199 1    
   153   77   78 2    
   154   77   79 am   BACKBONE|DICT|INTERRES
   155   79   80 1    
   156   79  200 1    
   157   80   81 1    
   158   80   82 1    
   159   80  201 1    
   160   81  202 1    
   161   81  203 1    
   162   81  204 1    
   163   82   83 2    
   164   82   84 am   BACKBONE|DICT|INTERRES
   165   84   85 1    
   166   84  205 1    
   167   85   86 1    
   168   85   87 1    
   169   85  206 1    
   170   86  207 1    
   171   86  208 1    
   172   86  209 1    
   173   87   88 2    
   174   87   89 am   BACKBONE|DICT|INTERRES
   175   89   90 1    
   176   89  210 1    
   177   90   91 1    
   178   90   92 1    
   179   90  211 1    
   180   91  212 1    
   181   91  213 1    
   182   91  214 1    
   183   92   93 2    
   184   92   94 am   BACKBONE|DICT|INTERRES
   185   94   95 1    
   186   94  215 1    
   187   95   96 1    
   188   95   97 1    
   189   95  216 1    
   190   96  217 1    
   191   96  218 1    
   192   96  219 1    
   193   97   98 2    
   194   97   99 am   BACKBONE|DICT|INTERRES
   195   99  100 1    
   196   99  220 1    
   197  100  101 1    
   198  100  102 1    
   199  100  221 1    
   200  101  222 1    
   201  101  223 1    
   202  101  224 1    
   203  102  103 2    
   204  102  104 am   BACKBONE|DICT|INTERRES
   205  104  105 1    
   206  104  225 1    
   207  105  106 1    
   208  105  107 1    
   209  105  226 1    
   210  106  227 1    
   211  106  228 1    
   212  106  229 1    
   213  107  108 2    
   214  107  109 am   BACKBONE|DICT|INTERRES
   215  109  110 1    
   216  109  230 1    
   217  110  111 1    
   218  110  112 1    
   219  110  231 1    
   220  111  232 1    
   221  111  233 1    
   222  111  234 1    
   223  112  113 2    
   224  112  114 am   BACKBONE|DICT|INTERRES
   225  114  115 1    
   226  114  235 1    
   227  115  116 1    
   228  115  117 1    
   229  115  236 1    
   230  116  237 1    
   231  116  238 1    
   232  116  239 1    
   233  117  118 2    
   234  117  119 am   BACKBONE|DICT|INTERRES
   235  119  120 1    
   236  119  240 1    
   237  120  121 1    
   238  120  124 1    
   239  120  241 1    
   240  121  122 am   BACKBONE|DICT|INTERRES
   241  121  123 2    
   242  122  242 1    
   243  122  243 1    
   244  124  125 1    
   245  124  244 1    
   246  124  245 1    
   247  125  126 1    
   248  126  246 1    
   249  126  247 1    
@<TRIPOS>SUBSTRUCTURE
     1 UNK         1 GROUP             0       ****    0 ROOT    
