@<TRIPOS>MOLECULE
3R540
247   249    1
SMALL
USER_CHARGES


@<TRIPOS>ATOM
      1 CA         -5.6557  -13.2295  -49.6801 C.3       0 UNK        -0.1800 
      2 C          -4.3750  -13.6904  -48.9979 C.2       0 UNK         0.5000 
      3 O          -4.4464  -14.4779  -48.0557 O.2       0 UNK        -0.5000 
      4 N          -3.2259  -13.1861  -49.4752 N.am      1 UNK        -0.5000 
      5 CA         -1.8478  -13.4720  -49.0430 C.3       1 UNK         0.1400 
      6 C6         -1.2041  -14.6996  -49.7488 C.3       23 UNK        -0.0398 
      7 S7         -1.9498  -16.3325  -49.4013 S.3       23 UNK        -0.2404 
      8 C8         -0.5939  -17.1800  -48.5330 C.3       23 UNK        -0.0205 
      9 C9          0.3472  -17.8973  -49.4877 C.ar      23 UNK        -0.0193 
     10 C10         1.3748  -17.2058  -50.1350 C.ar      23 UNK        -0.1150 
     11 C11         2.2669  -17.8782  -50.9748 C.ar      23 UNK        -0.0193 
     12 C12         2.1410  -19.2587  -51.1500 C.ar      23 UNK        -0.1150 
     13 C13         1.1302  -19.9630  -50.4911 C.ar      23 UNK        -0.0193 
     14 C14         0.2212  -19.2736  -49.6840 C.ar      23 UNK        -0.1150 
     15 C15         1.0341  -21.4732  -50.6257 C.3       23 UNK        -0.0205 
     16 S16         2.2533  -22.3437  -49.5811 S.3       23 UNK        -0.2404 
     17 C17         1.8474  -21.7915  -47.8842 C.3       23 UNK        -0.0398 
     18 CA          0.8537  -22.7267  -47.1553 C.3       11 UNK         0.1400 
     19 N           0.9611  -22.6594  -45.6953 N.am      11 UNK        -0.5000 
     20 C           0.4330  -23.5815  -44.8782 C.2       10 UNK         0.5000 
     21 O          -0.1875  -24.5718  -45.2703 O.2       10 UNK        -0.5000 
     22 CA          0.6154  -23.3526  -43.3717 C.3       10 UNK         0.1400 
     23 CB          2.0497  -23.6920  -42.9377 C.3       10 UNK        -0.1800 
     24 N           0.2893  -21.9927  -42.9446 N.am      10 UNK        -0.5000 
     25 C          -0.9493  -21.4838  -42.9038 C.2       9 UNK         0.5000 
     26 O          -1.9295  -22.0332  -43.4075 O.2       9 UNK        -0.5000 
     27 CA         -1.1263  -20.1574  -42.1457 C.3       9 UNK         0.1400 
     28 CB         -0.3690  -20.1436  -40.8047 C.3       9 UNK        -0.1800 
     29 N          -0.6583  -19.0497  -42.9645 N.am      9 UNK        -0.5000 
     30 C          -1.4402  -18.1991  -43.6403 C.2       8 UNK         0.5000 
     31 O          -2.6695  -18.1980  -43.5723 O.2       8 UNK        -0.5000 
     32 CA         -0.7379  -17.1629  -44.5433 C.3       8 UNK         0.1400 
     33 CB         -0.7736  -15.7791  -43.8766 C.3       8 UNK        -0.1800 
     34 N           0.6530  -17.4908  -44.8665 N.am      8 UNK        -0.5000 
     35 C           1.0748  -18.5755  -45.5293 C.2       7 UNK         0.5000 
     36 O           0.3280  -19.4493  -45.9658 O.2       7 UNK        -0.5000 
     37 CA          2.5964  -18.7528  -45.6487 C.3       7 UNK         0.1400 
     38 CB          3.1643  -17.9100  -46.8001 C.3       7 UNK        -0.1800 
     39 N           3.2798  -18.4192  -44.3991 N.am      7 UNK        -0.5000 
     40 C           3.2028  -19.1465  -43.2751 C.2       6 UNK         0.5000 
     41 O           2.5571  -20.1908  -43.1775 O.2       6 UNK        -0.5000 
     42 CA          3.9400  -18.5903  -42.0443 C.3       6 UNK         0.1400 
     43 CB          5.4389  -18.9176  -42.1146 C.3       6 UNK        -0.1800 
     44 N           3.7612  -17.1450  -41.9000 N.am      6 UNK        -0.5000 
     45 C           2.6025  -16.5615  -41.5626 C.2       5 UNK         0.5000 
     46 O           1.5796  -17.1856  -41.2818 O.2       5 UNK        -0.5000 
     47 CA          2.5727  -15.0205  -41.5649 C.3       5 UNK         0.1400 
     48 CB          2.9688  -14.4746  -40.1848 C.3       5 UNK        -0.1800 
     49 N           3.4156  -14.3944  -42.5909 N.am      5 UNK        -0.5000 
     50 C           3.2862  -14.5848  -43.9100 C.2       4 UNK         0.5000 
     51 O           2.5132  -15.4015  -44.4107 O.2       4 UNK        -0.5000 
     52 CA          4.1791  -13.7245  -44.8221 C.3       4 UNK         0.1400 
     53 CB          5.5453  -14.4030  -45.0038 C.3       4 UNK        -0.1800 
     54 N           3.5766  -13.5316  -46.1448 N.am      4 UNK        -0.5000 
     55 C           2.5068  -12.7887  -46.4669 C.2       3 UNK         0.5000 
     56 O           2.0504  -12.7926  -47.6124 O.2       3 UNK        -0.5000 
     57 CA          1.8550  -11.8608  -45.4195 C.3       3 UNK         0.1400 
     58 CB          2.4817  -10.4583  -45.4692 C.3       3 UNK        -0.1800 
     59 N           0.4352  -11.7584  -45.7334 N.am      3 UNK        -0.5000 
     60 C          -0.5725  -11.9550  -44.8763 C.2       2 UNK         0.5000 
     61 O          -0.4193  -12.0914  -43.6618 O.2       2 UNK        -0.5000 
     62 CA         -1.9983  -12.0207  -45.4674 C.3       2 UNK         0.1400 
     63 CB         -2.7631  -10.7209  -45.1725 C.3       2 UNK        -0.1800 
     64 N          -2.0575  -12.2842  -46.9105 N.am      2 UNK        -0.5000 
     65 C          -1.6388  -13.4088  -47.5107 C.2       1 UNK         0.5000 
     66 O          -1.1160  -14.3417  -46.9037 O.2       1 UNK        -0.5000 
     67 C          -0.6008  -22.5025  -47.6034 C.2       11 UNK         0.5000 
     68 O          -1.0862  -23.2556  -48.4412 O.2       11 UNK        -0.5000 
     69 N          -1.2884  -21.5216  -47.0007 N.am      12 UNK        -0.5000 
     70 CA         -2.7026  -21.2231  -47.2301 C.3       12 UNK         0.1400 
     71 CB         -3.1277  -20.0274  -46.3707 C.3       12 UNK        -0.1800 
     72 C          -3.6275  -22.4224  -46.9624 C.2       12 UNK         0.5000 
     73 O          -4.5194  -22.6816  -47.7706 O.2       12 UNK        -0.5000 
     74 N          -3.3789  -23.1480  -45.8626 N.am      13 UNK        -0.5000 
     75 CA         -4.0888  -24.3766  -45.5070 C.3       13 UNK         0.1400 
     76 CB         -3.6779  -24.8248  -44.0965 C.3       13 UNK        -0.1800 
     77 C          -3.8655  -25.5029  -46.5324 C.2       13 UNK         0.5000 
     78 O          -4.8366  -26.1153  -46.9795 O.2       13 UNK        -0.5000 
     79 N          -2.6008  -25.7220  -46.9225 N.am      14 UNK        -0.5000 
     80 CA         -2.2031  -26.6902  -47.9502 C.3       14 UNK         0.1400 
     81 CB         -0.6707  -26.7921  -47.9853 C.3       14 UNK        -0.1800 
     82 C          -2.7606  -26.3495  -49.3474 C.2       14 UNK         0.5000 
     83 O          -3.1325  -27.2515  -50.0978 O.2       14 UNK        -0.5000 
     84 N          -2.8470  -25.0486  -49.6458 N.am      15 UNK        -0.5000 
     85 CA         -3.3967  -24.4614  -50.8649 C.3       15 UNK         0.1400 
     86 CB         -2.7625  -23.0751  -51.0633 C.3       15 UNK        -0.1800 
     87 C          -4.9364  -24.3730  -50.8893 C.2       15 UNK         0.5000 
     88 O          -5.4693  -23.6951  -51.7689 O.2       15 UNK        -0.5000 
     89 N          -5.6194  -25.0376  -49.9446 N.am      16 UNK        -0.5000 
     90 CA         -7.0751  -25.1510  -49.8148 C.3       16 UNK         0.1400 
     91 CB         -7.6718  -25.9232  -51.0108 C.3       16 UNK        -0.1800 
     92 C          -7.7473  -23.7850  -49.5793 C.2       16 UNK         0.5000 
     93 O          -8.5852  -23.3549  -50.3732 O.2       16 UNK        -0.5000 
     94 N          -7.3328  -23.1248  -48.4896 N.am      17 UNK        -0.5000 
     95 CA         -7.7307  -21.7795  -48.0607 C.3       17 UNK         0.1400 
     96 CB         -9.2422  -21.7010  -47.7575 C.3       17 UNK        -0.1800 
     97 C          -7.2384  -20.7002  -49.0447 C.2       17 UNK         0.5000 
     98 O          -7.9938  -19.8031  -49.4223 O.2       17 UNK        -0.5000 
     99 N          -5.9619  -20.8298  -49.4345 N.am      18 UNK        -0.5000 
    100 CA        -5.2036  -19.9479  -50.3269 C.3       18 UNK         0.1400 
    101 CB        -5.0146  -18.5559  -49.6881 C.3       18 UNK        -0.1800 
    102 C         -5.7505  -19.8723  -51.7691 C.2       18 UNK         0.5000 
    103 O         -5.4917  -18.8922  -52.4685 O.2       18 UNK        -0.5000 
    104 N         -6.4638  -20.9150  -52.2160 N.am      19 UNK        -0.5000 
    105 CA        -6.9706  -21.0383  -53.5841 C.3       19 UNK         0.1400 
    106 CB        -8.0115  -22.1663  -53.6442 C.3       19 UNK        -0.1800 
    107 C         -5.8400  -21.2793  -54.6023 C.2       19 UNK         0.5000 
    108 O         -5.8925  -20.7439  -55.7098 O.2       19 UNK        -0.5000 
    109 N         -4.8294  -22.0551  -54.1912 N.am      20 UNK        -0.5000 
    110 CA        -3.6344  -22.3858  -54.9709 C.3       20 UNK         0.1400 
    111 CB        -3.4484  -23.9136  -54.9502 C.3       20 UNK        -0.1800 
    112 C         -2.3799  -21.6410  -54.4617 C.2       20 UNK         0.5000 
    113 O         -1.2652  -22.1340  -54.6432 O.2       20 UNK        -0.5000 
    114 N         -2.5698  -20.4831  -53.8107 N.am      21 UNK        -0.5000 
    115 CA        -1.4944  -19.6145  -53.3201 C.3       21 UNK         0.1400 
    116 CB        -2.0908  -18.5694  -52.3664 C.3       21 UNK        -0.1800 
    117 C         -0.7076  -18.9315  -54.4583 C.2       21 UNK         0.5000 
    118 O         -1.1554  -18.9290  -55.6088 O.2       21 UNK        -0.5000 
    119 N          0.4559  -18.3648  -54.1128 N.am      22 UNK        -0.5000 
    120 CA         1.3503  -17.6609  -55.0444 C.3       22 UNK         0.1400 
    121 C          0.7383  -16.3780  -55.6858 C.2       22 UNK         0.5000 
    122 N          1.2365  -15.9634  -56.8436 N.am      22 UNK        -0.7600 
    123 O         -0.1593  -15.7401  -55.1390 O.2       22 UNK        -0.5000 
    124 C124        2.7466  -17.4051  -54.4152 C.3       23 UNK        -0.0398 
    125 S125        2.7857  -16.1545  -53.0793 S.3       23 UNK        -0.2404 
    126 C126        3.3885  -17.1103  -51.6536 C.3       23 UNK        -0.0205 
    127 H127       -6.1890  -14.0865  -50.0919 H         1 UNK         0.0600 
    128 H128       -6.3077  -12.7352  -48.9598 H         1 UNK         0.0600 
    129 H129       -5.4563  -12.5312  -50.4933 H         1 UNK         0.0600 
    130 H130       -3.2893  -12.5333  -50.2438 H         1 UNK         0.3000 
    131 H131       -1.2808  -12.6146  -49.4100 H         1 UNK         0.0600 
    132 H132       -1.2482  -14.5535  -50.8286 H         1 UNK         0.0800 
    133 H133       -0.1415  -14.7231  -49.5102 H         1 UNK         0.0800 
    134 H134       -1.0323  -17.8989  -47.8422 H         1 UNK         0.0800 
    135 H135       -0.0328  -16.4806  -47.9125 H         1 UNK         0.0800 
    136 H136        1.4957  -16.1445  -49.9791 H         1 UNK         0.1150 
    137 H137        2.8446  -19.7911  -51.7747 H         1 UNK         0.1150 
    138 H138       -0.5634  -19.8142  -49.1746 H         1 UNK         0.1150 
    139 H139        0.0291  -21.8128  -50.3798 H         1 UNK         0.0800 
    140 H140        1.1982  -21.7554  -51.6666 H         1 UNK         0.0800 
    141 H141        1.5119  -20.7568  -47.8802 H         1 UNK         0.0800 
    142 H142        2.7942  -21.7876  -47.3433 H         1 UNK         0.0800 
    143 H143        1.1151  -23.7508  -47.4324 H         1 UNK         0.0600 
    144 H144        1.4055  -21.8472  -45.2922 H         1 UNK         0.3000 
    145 H145       -0.0611  -24.0357  -42.8535 H         1 UNK         0.0600 
    146 H146        2.1595  -23.6240  -41.8552 H         1 UNK         0.0600 
    147 H147        2.3157  -24.7093  -43.2277 H         1 UNK         0.0600 
    148 H148        2.7795  -23.0193  -43.3901 H         1 UNK         0.0600 
    149 H149        1.0664  -21.4252  -42.6234 H         1 UNK         0.3000 
    150 H150       -2.1899  -20.0486  -41.9240 H         1 UNK         0.0600 
    151 H151       -0.6364  -21.0064  -40.1934 H         1 UNK         0.0600 
    152 H152       -0.6158  -19.2501  -40.2309 H         1 UNK         0.0600 
    153 H153        0.7132  -20.1535  -40.9399 H         1 UNK         0.0600 
    154 H154        0.3417  -18.9696  -43.0835 H         1 UNK         0.3000 
    155 H155       -1.2922  -17.1081  -45.4819 H         1 UNK         0.0600 
    156 H156       -0.3047  -15.7970  -42.8930 H         1 UNK         0.0600 
    157 H157       -1.7998  -15.4340  -43.7466 H         1 UNK         0.0600 
    158 H158       -0.2547  -15.0337  -44.4787 H         1 UNK         0.0600 
    159 H159        1.3490  -16.8043  -44.5817 H         1 UNK         0.3000 
    160 H160        2.7975  -19.8025  -45.8677 H         1 UNK         0.0600 
    161 H161        4.2439  -18.0329  -46.8855 H         1 UNK         0.0600 
    162 H162        2.9556  -16.8475  -46.6708 H         1 UNK         0.0600 
    163 H163        2.7291  -18.2165  -47.7514 H         1 UNK         0.0600 
    164 H164        3.7694  -17.5371  -44.3736 H         1 UNK         0.3000 
    165 H165        3.5263  -19.0787  -41.1592 H         1 UNK         0.0600 
    166 H166        5.9554  -18.5929  -41.2112 H         1 UNK         0.0600 
    167 H167        5.5988  -19.9924  -42.2105 H         1 UNK         0.0600 
    168 H168        5.9196  -18.4366  -42.9674 H         1 UNK         0.0600 
    169 H169        4.5556  -16.5578  -42.1060 H         1 UNK         0.3000 
    170 H170        1.5430  -14.7170  -41.7632 H         1 UNK         0.0600 
    171 H171        2.3438  -14.9041  -39.4005 H         1 UNK         0.0600 
    172 H172        4.0063  -14.7075  -39.9422 H         1 UNK         0.0600 
    173 H173        2.8465  -13.3923  -40.1381 H         1 UNK         0.0600 
    174 H174        4.0921  -13.7227  -42.2572 H         1 UNK         0.3000 
    175 H175        4.3350  -12.7498  -44.3565 H         1 UNK         0.0600 
    176 H176        6.0480  -14.5410  -44.0457 H         1 UNK         0.0600 
    177 H177        6.2045  -13.8001  -45.6290 H         1 UNK         0.0600 
    178 H178        5.4495  -15.3853  -45.4689 H         1 UNK         0.0600 
    179 H179        3.9597  -14.1188  -46.8692 H         1 UNK         0.3000 
    180 H180        1.9780  -12.2647  -44.4163 H         1 UNK         0.0600 
    181 H181        2.3783  -10.0056  -46.4563 H         1 UNK         0.0600 
    182 H182        3.5459  -10.4954  -45.2344 H         1 UNK         0.0600 
    183 H183        2.0115   -9.7923  -44.7454 H         1 UNK         0.0600 
    184 H184        0.2259  -11.7317  -46.7220 H         1 UNK         0.3000 
    185 H185       -2.5136  -12.8412  -44.9636 H         1 UNK         0.0600 
    186 H186       -2.7747  -10.5071  -44.1028 H         1 UNK         0.0600 
    187 H187       -2.3084   -9.8652  -45.6731 H         1 UNK         0.0600 
    188 H188       -3.8011  -10.7903  -45.4986 H         1 UNK         0.0600 
    189 H189       -2.4887  -11.5693  -47.4785 H         1 UNK         0.3000 
    190 H190       -0.7884  -20.9002  -46.3695 H         1 UNK         0.3000 
    191 H191       -2.8121  -20.9430  -48.2789 H         1 UNK         0.0600 
    192 H192       -3.0152  -20.2443  -45.3084 H         1 UNK         0.0600 
    193 H193       -4.1739  -19.7718  -46.5423 H         1 UNK         0.0600 
    194 H194       -2.5355  -19.1423  -46.5965 H         1 UNK         0.0600 
    195 H195       -2.6528  -22.8407  -45.2245 H         1 UNK         0.3000 
    196 H196       -5.1571  -24.1507  -45.4909 H         1 UNK         0.0600 
    197 H197       -4.1960  -25.7409  -43.8103 H         1 UNK         0.0600 
    198 H198       -3.9274  -24.0653  -43.3554 H         1 UNK         0.0600 
    199 H199       -2.6068  -25.0166  -44.0285 H         1 UNK         0.0600 
    200 H200       -1.8580  -25.1742  -46.5021 H         1 UNK         0.3000 
    201 H201       -2.6032  -27.6646  -47.6628 H         1 UNK         0.0600 
    202 H202       -0.2729  -27.0892  -47.0147 H         1 UNK         0.0600 
    203 H203       -0.2097  -25.8423  -48.2578 H         1 UNK         0.0600 
    204 H204       -0.3452  -27.5360  -48.7133 H         1 UNK         0.0600 
    205 H205       -2.4330  -24.3873  -48.9923 H         1 UNK         0.3000 
    206 H206       -3.1082  -25.0902  -51.7087 H         1 UNK         0.0600 
    207 H207       -1.6889  -23.1604  -51.2265 H         1 UNK         0.0600 
    208 H208       -3.1769  -22.5585  -51.9245 H         1 UNK         0.0600 
    209 H209       -2.9246  -22.4346  -50.1978 H         1 UNK         0.0600 
    210 H210       -5.0831  -25.5186  -49.2341 H         1 UNK         0.3000 
    211 H211       -7.2583  -25.7457  -48.9186 H         1 UNK         0.0600 
    212 H212       -7.5520  -25.3812  -51.9494 H         1 UNK         0.0600 
    213 H213       -8.7393  -26.0946  -50.8686 H         1 UNK         0.0600 
    214 H214       -7.1984  -26.8983  -51.1248 H         1 UNK         0.0600 
    215 H215       -6.5625  -23.5246  -47.9676 H         1 UNK         0.3000 
    216 H216       -7.2038  -21.5944  -47.1234 H         1 UNK         0.0600 
    217 H217       -9.4966  -20.7427  -47.3034 H         1 UNK         0.0600 
    218 H218       -9.5454  -22.4812  -47.0595 H         1 UNK         0.0600 
    219 H219       -9.8473  -21.8022  -48.6587 H         1 UNK         0.0600 
    220 H220       -5.4435  -21.6099  -49.0384 H         1 UNK         0.3000 
    221 H221       -4.2154  -20.3983  -50.4162 H         1 UNK         0.0600 
    222 H222       -5.9618  -18.0292  -49.5719 H         1 UNK         0.0600 
    223 H223       -4.5483  -18.6295  -48.7063 H         1 UNK         0.0600 
    224 H224       -4.3702  -17.9241  -50.2995 H         1 UNK         0.0600 
    225 H225       -6.6011  -21.7141  -51.6099 H         1 UNK         0.3000 
    226 H226       -7.4684  -20.1035  -53.8507 H         1 UNK         0.0600 
    227 H227       -8.8401  -21.9735  -52.9624 H         1 UNK         0.0600 
    228 H228       -8.4291  -22.2596  -54.6473 H         1 UNK         0.0600 
    229 H229       -7.5792  -23.1311  -53.3770 H         1 UNK         0.0600 
    230 H230       -4.9109  -22.4882  -53.2762 H         1 UNK         0.3000 
    231 H231       -3.7700  -22.0849  -56.0114 H         1 UNK         0.0600 
    232 H232       -4.3424  -24.4238  -55.3090 H         1 UNK         0.0600 
    233 H233       -3.2360  -24.2786  -53.9462 H         1 UNK         0.0600 
    234 H234       -2.6229  -24.2200  -55.5937 H         1 UNK         0.0600 
    235 H235       -3.5101  -20.1218  -53.7393 H         1 UNK         0.3000 
    236 H236       -0.7924  -20.2320  -52.7568 H         1 UNK         0.0600 
    237 H237       -1.3286  -17.8753  -52.0107 H         1 UNK         0.0600 
    238 H238       -2.8687  -17.9773  -52.8496 H         1 UNK         0.0600 
    239 H239       -2.5205  -19.0440  -51.4859 H         1 UNK         0.0600 
    240 H240        0.7339  -18.3512  -53.1418 H         1 UNK         0.3000 
    241 H241        1.5088  -18.3575  -55.8703 H         1 UNK         0.0600 
    242 H242        0.8587  -15.1293  -57.2661 H         1 UNK         0.3800 
    243 H243        1.9747  -16.4630  -57.3152 H         1 UNK         0.3800 
    244 H244        3.1565  -18.3465  -54.0478 H         1 UNK         0.0800 
    245 H245        3.4420  -17.0761  -55.1888 H         1 UNK         0.0800 
    246 H246        4.1945  -17.7782  -51.9614 H         1 UNK         0.0800 
    247 H247        3.8306  -16.4193  -50.9343 H         1 UNK         0.0800 
@<TRIPOS>BOND
     1    1    2 1    
     2    1  127 1    
     3    1  128 1    
     4    1  129 1    
     5    2    3 2    
     6    2    4 am   BACKBONE|DICT|INTERRES
     7    4    5 1    
     8    4  130 1    
     9    5    6 1    
    10    5   65 1    
    11    5  131 1    
    12    6    7 1    
    13    6  132 1    
    14    6  133 1    
    15    7    8 1    
    16    8    9 1    
    17    8  134 1    
    18    8  135 1    
    19    9   10 ar   
    20    9   14 ar   
    21   10   11 ar   
    22   10  136 1    
    23   11   12 ar   
    24   11  126 1    
    25   12   13 ar   
    26   12  137 1    
    27   13   14 ar   
    28   13   15 1    
    29   14  138 1    
    30   15   16 1    
    31   15  139 1    
    32   15  140 1    
    33   16   17 1    
    34   17   18 1    
    35   17  141 1    
    36   17  142 1    
    37   18   19 1    
    38   18   67 1    
    39   18  143 1    
    40   19   20 am   BACKBONE|DICT|INTERRES
    41   19  144 1    
    42   20   21 2    
    43   20   22 1    
    44   22   23 1    
    45   22   24 1    
    46   22  145 1    
    47   23  146 1    
    48   23  147 1    
    49   23  148 1    
    50   24   25 am   BACKBONE|DICT|INTERRES
    51   24  149 1    
    52   25   26 2    
    53   25   27 1    
    54   27   28 1    
    55   27   29 1    
    56   27  150 1    
    57   28  151 1    
    58   28  152 1    
    59   28  153 1    
    60   29   30 am   BACKBONE|DICT|INTERRES
    61   29  154 1    
    62   30   31 2    
    63   30   32 1    
    64   32   33 1    
    65   32   34 1    
    66   32  155 1    
    67   33  156 1    
    68   33  157 1    
    69   33  158 1    
    70   34   35 am   BACKBONE|DICT|INTERRES
    71   34  159 1    
    72   35   36 2    
    73   35   37 1    
    74   37   38 1    
    75   37   39 1    
    76   37  160 1    
    77   38  161 1    
    78   38  162 1    
    79   38  163 1    
    80   39   40 am   BACKBONE|DICT|INTERRES
    81   39  164 1    
    82   40   41 2    
    83   40   42 1    
    84   42   43 1    
    85   42   44 1    
    86   42  165 1    
    87   43  166 1    
    88   43  167 1    
    89   43  168 1    
    90   44   45 am   BACKBONE|DICT|INTERRES
    91   44  169 1    
    92   45   46 2    
    93   45   47 1    
    94   47   48 1    
    95   47   49 1    
    96   47  170 1    
    97   48  171 1    
    98   48  172 1    
    99   48  173 1    
   100   49   50 am   BACKBONE|DICT|INTERRES
   101   49  174 1    
   102   50   51 2    
   103   50   52 1    
   104   52   53 1    
   105   52   54 1    
   106   52  175 1    
   107   53  176 1    
   108   53  177 1    
   109   53  178 1    
   110   54   55 am   BACKBONE|DICT|INTERRES
   111   54  179 1    
   112   55   56 2    
   113   55   57 1    
   114   57   58 1    
   115   57   59 1    
   116   57  180 1    
   117   58  181 1    
   118   58  182 1    
   119   58  183 1    
   120   59   60 am   BACKBONE|DICT|INTERRES
   121   59  184 1    
   122   60   61 2    
   123   60   62 1    
   124   62   63 1    
   125   62   64 1    
   126   62  185 1    
   127   63  186 1    
   128   63  187 1    
   129   63  188 1    
   130   64   65 am   BACKBONE|DICT|INTERRES
   131   64  189 1    
   132   65   66 2    
   133   67   68 2    
   134   67   69 am   BACKBONE|DICT|INTERRES
   135   69   70 1    
   136   69  190 1    
   137   70   71 1    
   138   70   72 1    
   139   70  191 1    
   140   71  192 1    
   141   71  193 1    
   142   71  194 1    
   143   72   73 2    
   144   72   74 am   BACKBONE|DICT|INTERRES
   145   74   75 1    
   146   74  195 1    
   147   75   76 1    
   148   75   77 1    
   149   75  196 1    
   150   76  197 1    
   151   76  198 1    
   152   76  199 1    
   153   77   78 2    
   154   77   79 am   BACKBONE|DICT|INTERRES
   155   79   80 1    
   156   79  200 1    
   157   80   81 1    
   158   80   82 1    
   159   80  201 1    
   160   81  202 1    
   161   81  203 1    
   162   81  204 1    
   163   82   83 2    
   164   82   84 am   BACKBONE|DICT|INTERRES
   165   84   85 1    
   166   84  205 1    
   167   85   86 1    
   168   85   87 1    
   169   85  206 1    
   170   86  207 1    
   171   86  208 1    
   172   86  209 1    
   173   87   88 2    
   174   87   89 am   BACKBONE|DICT|INTERRES
   175   89   90 1    
   176   89  210 1    
   177   90   91 1    
   178   90   92 1    
   179   90  211 1    
   180   91  212 1    
   181   91  213 1    
   182   91  214 1    
   183   92   93 2    
   184   92   94 am   BACKBONE|DICT|INTERRES
   185   94   95 1    
   186   94  215 1    
   187   95   96 1    
   188   95   97 1    
   189   95  216 1    
   190   96  217 1    
   191   96  218 1    
   192   96  219 1    
   193   97   98 2    
   194   97   99 am   BACKBONE|DICT|INTERRES
   195   99  100 1    
   196   99  220 1    
   197  100  101 1    
   198  100  102 1    
   199  100  221 1    
   200  101  222 1    
   201  101  223 1    
   202  101  224 1    
   203  102  103 2    
   204  102  104 am   BACKBONE|DICT|INTERRES
   205  104  105 1    
   206  104  225 1    
   207  105  106 1    
   208  105  107 1    
   209  105  226 1    
   210  106  227 1    
   211  106  228 1    
   212  106  229 1    
   213  107  108 2    
   214  107  109 am   BACKBONE|DICT|INTERRES
   215  109  110 1    
   216  109  230 1    
   217  110  111 1    
   218  110  112 1    
   219  110  231 1    
   220  111  232 1    
   221  111  233 1    
   222  111  234 1    
   223  112  113 2    
   224  112  114 am   BACKBONE|DICT|INTERRES
   225  114  115 1    
   226  114  235 1    
   227  115  116 1    
   228  115  117 1    
   229  115  236 1    
   230  116  237 1    
   231  116  238 1    
   232  116  239 1    
   233  117  118 2    
   234  117  119 am   BACKBONE|DICT|INTERRES
   235  119  120 1    
   236  119  240 1    
   237  120  121 1    
   238  120  124 1    
   239  120  241 1    
   240  121  122 am   BACKBONE|DICT|INTERRES
   241  121  123 2    
   242  122  242 1    
   243  122  243 1    
   244  124  125 1    
   245  124  244 1    
   246  124  245 1    
   247  125  126 1    
   248  126  246 1    
   249  126  247 1    
@<TRIPOS>SUBSTRUCTURE
     1 UNK         1 GROUP             0       ****    0 ROOT    
