@<TRIPOS>MOLECULE
3R540
247   249    1
SMALL
USER_CHARGES


@<TRIPOS>ATOM
      1 CA         -0.9083  -10.7160  -46.7010 C.3       0 UNK        -0.1800 
      2 C          -0.4316  -12.1348  -46.9811 C.2       0 UNK         0.5000 
      3 O           0.5927  -12.3210  -47.6367 O.2       0 UNK        -0.5000 
      4 N          -1.1752  -13.1314  -46.4934 N.am      1 UNK        -0.5000 
      5 CA         -0.8930  -14.5535  -46.6605 C.3       1 UNK         0.1400 
      6 C6         -1.2770  -15.0559  -48.0773 C.3       23 UNK        -0.0398 
      7 S7         -0.6424  -16.7237  -48.4463 S.3       23 UNK        -0.2404 
      8 C8          0.9141  -16.3386  -49.3032 C.3       23 UNK        -0.0205 
      9 C9          1.4839  -17.5699  -49.9911 C.ar      23 UNK        -0.0193 
     10 C10         1.2725  -17.7705  -51.3585 C.ar      23 UNK        -0.1150 
     11 C11         1.8114  -18.8859  -52.0064 C.ar      23 UNK        -0.0193 
     12 C12         2.5677  -19.8044  -51.2727 C.ar      23 UNK        -0.1150 
     13 C13         2.7663  -19.6300  -49.9006 C.ar      23 UNK        -0.0193 
     14 C14         2.2297  -18.5047  -49.2671 C.ar      23 UNK        -0.1150 
     15 C15         3.5662  -20.6561  -49.1088 C.3       23 UNK        -0.0205 
     16 S16         2.7351  -22.2776  -49.0325 S.3       23 UNK        -0.2404 
     17 C17         1.2022  -21.8476  -48.1477 C.3       23 UNK        -0.0398 
     18 CA          0.3445  -23.0899  -47.8049 C.3       11 UNK         0.1400 
     19 N           1.0215  -24.0334  -46.9135 N.am      11 UNK        -0.5000 
     20 C           0.6238  -25.2968  -46.7066 C.2       10 UNK         0.5000 
     21 O          -0.3215  -25.8231  -47.2933 O.2       10 UNK        -0.5000 
     22 CA          1.3914  -26.0972  -45.6383 C.3       10 UNK         0.1400 
     23 CB          2.6456  -26.7437  -46.2453 C.3       10 UNK        -0.1800 
     24 N           1.7779  -25.2821  -44.4855 N.am      10 UNK        -0.5000 
     25 C           0.9141  -24.7193  -43.6285 C.2       9 UNK         0.5000 
     26 O          -0.3072  -24.8454  -43.7022 O.2       9 UNK        -0.5000 
     27 CA          1.5167  -23.8174  -42.5365 C.3       9 UNK         0.1400 
     28 CB          1.9547  -24.6539  -41.3252 C.3       9 UNK        -0.1800 
     29 N           2.6447  -23.0052  -43.0029 N.am      9 UNK        -0.5000 
     30 C           2.5793  -22.1108  -43.9974 C.2       8 UNK         0.5000 
     31 O           1.5742  -21.9224  -44.6877 O.2       8 UNK        -0.5000 
     32 CA          3.8653  -21.3238  -44.3024 C.3       8 UNK         0.1400 
     33 CB          4.6795  -22.0409  -45.3899 C.3       8 UNK        -0.1800 
     34 N           3.5600  -19.9654  -44.7514 N.am      8 UNK        -0.5000 
     35 C           3.0090  -19.0234  -43.9770 C.2       7 UNK         0.5000 
     36 O           2.7934  -19.1626  -42.7687 O.2       7 UNK        -0.5000 
     37 CA          2.6248  -17.7105  -44.6714 C.3       7 UNK         0.1400 
     38 CB          1.3129  -17.8650  -45.4579 C.3       7 UNK        -0.1800 
     39 N           2.4709  -16.6855  -43.6463 N.am      7 UNK        -0.5000 
     40 C           2.7532  -15.3889  -43.7854 C.2       6 UNK         0.5000 
     41 O           3.0830  -14.8676  -44.8530 O.2       6 UNK        -0.5000 
     42 CA          2.6857  -14.5554  -42.4905 C.3       6 UNK         0.1400 
     43 CB          3.8896  -14.8655  -41.5853 C.3       6 UNK        -0.1800 
     44 N           2.6589  -13.1161  -42.7445 N.am      6 UNK        -0.5000 
     45 C           1.6105  -12.4427  -43.2263 C.2       5 UNK         0.5000 
     46 O           0.5201  -12.9606  -43.4965 O.2       5 UNK        -0.5000 
     47 CA          1.8136  -10.9338  -43.4252 C.3       5 UNK         0.1400 
     48 CB          2.5694  -10.6357  -44.7297 C.3       5 UNK        -0.1800 
     49 N           0.4971  -10.3148  -43.4646 N.am      5 UNK        -0.5000 
     50 C           0.1416   -9.1702  -42.8739 C.2       4 UNK         0.5000 
     51 O           0.9394   -8.3871  -42.3571 O.2       4 UNK        -0.5000 
     52 CA         -1.3701   -8.8593  -42.8316 C.3       4 UNK         0.1400 
     53 CB         -1.7423   -7.8526  -43.9311 C.3       4 UNK        -0.1800 
     54 N          -2.2234  -10.0476  -42.9661 N.am      4 UNK        -0.5000 
     55 C          -2.2998  -11.0516  -42.0797 C.2       3 UNK         0.5000 
     56 O          -1.6722  -11.0747  -41.0202 O.2       3 UNK        -0.5000 
     57 CA         -3.1879  -12.2504  -42.4459 C.3       3 UNK         0.1400 
     58 CB         -4.1445  -12.0024  -43.6327 C.3       3 UNK        -0.1800 
     59 N          -2.3127  -13.3786  -42.7428 N.am      3 UNK        -0.5000 
     60 C          -2.6218  -14.6700  -42.5805 C.2       2 UNK         0.5000 
     61 O          -3.6974  -15.0678  -42.1292 O.2       2 UNK        -0.5000 
     62 CA         -1.5361  -15.6696  -43.0321 C.3       2 UNK         0.1400 
     63 CB         -1.9956  -17.1436  -42.9937 C.3       2 UNK        -0.1800 
     64 N          -0.9849  -15.2947  -44.3411 N.am      2 UNK        -0.5000 
     65 C          -1.6323  -15.2647  -45.5153 C.2       1 UNK         0.5000 
     66 O          -2.7831  -15.6692  -45.6851 O.2       1 UNK        -0.5000 
     67 C          -1.0032  -22.6646  -47.1994 C.2       11 UNK         0.5000 
     68 O          -2.0227  -22.7369  -47.8842 O.2       11 UNK        -0.5000 
     69 N          -0.9863  -22.2607  -45.9211 N.am      12 UNK        -0.5000 
     70 CA         -2.1531  -21.7969  -45.1704 C.3       12 UNK         0.1400 
     71 CB         -1.7082  -21.3145  -43.7819 C.3       12 UNK        -0.1800 
     72 C          -3.2658  -22.8556  -45.0608 C.2       12 UNK         0.5000 
     73 O          -4.4328  -22.5267  -45.2741 O.2       12 UNK        -0.5000 
     74 N          -2.8862  -24.1138  -44.7934 N.am      13 UNK        -0.5000 
     75 CA         -3.7928  -25.2649  -44.7388 C.3       13 UNK         0.1400 
     76 CB         -3.0326  -26.4855  -44.1991 C.3       13 UNK        -0.1800 
     77 C          -4.4449  -25.5996  -46.0948 C.2       13 UNK         0.5000 
     78 O          -5.5734  -26.0917  -46.1195 O.2       13 UNK        -0.5000 
     79 N          -3.7354  -25.3108  -47.1930 N.am      14 UNK        -0.5000 
     80 CA         -4.2101  -25.4795  -48.5667 C.3       14 UNK         0.1400 
     81 CB         -2.9971  -25.7661  -49.4659 C.3       14 UNK        -0.1800 
     82 C          -4.9988  -24.2586  -49.0862 C.2       14 UNK         0.5000 
     83 O          -5.5118  -24.3143  -50.2031 O.2       14 UNK        -0.5000 
     84 N          -5.0635  -23.1802  -48.2891 N.am      15 UNK        -0.5000 
     85 CA         -5.6439  -21.8678  -48.5975 C.3       15 UNK         0.1400 
     86 CB         -7.1672  -21.9600  -48.8179 C.3       15 UNK        -0.1800 
     87 C          -4.8941  -21.0999  -49.7104 C.2       15 UNK         0.5000 
     88 O          -5.4809  -20.2326  -50.3610 O.2       15 UNK        -0.5000 
     89 N          -3.5965  -21.4098  -49.8553 N.am      16 UNK        -0.5000 
     90 CA         -2.5484  -20.7279  -50.6170 C.3       16 UNK         0.1400 
     91 CB         -1.8705  -19.7002  -49.6901 C.3       16 UNK        -0.1800 
     92 C          -2.9944  -20.1375  -51.9722 C.2       16 UNK         0.5000 
     93 O          -3.5645  -20.8572  -52.7941 O.2       16 UNK        -0.5000 
     94 N          -2.7152  -18.8451  -52.1851 N.am      17 UNK        -0.5000 
     95 CA         -3.0029  -18.1014  -53.4090 C.3       17 UNK         0.1400 
     96 CB         -2.1543  -16.8212  -53.4205 C.3       17 UNK        -0.1800 
     97 C          -4.4935  -17.7662  -53.5991 C.2       17 UNK         0.5000 
     98 O          -4.8932  -17.4716  -54.7253 O.2       17 UNK        -0.5000 
     99 N          -5.2937  -17.8263  -52.5235 N.am      18 UNK        -0.5000 
    100 CA        -6.7422  -17.6100  -52.5704 C.3       18 UNK         0.1400 
    101 CB        -7.2865  -17.3676  -51.1541 C.3       18 UNK        -0.1800 
    102 C         -7.4658  -18.7818  -53.2568 C.2       18 UNK         0.5000 
    103 O         -8.3446  -18.5528  -54.0887 O.2       18 UNK        -0.5000 
    104 N         -7.0448  -20.0118  -52.9333 N.am      19 UNK        -0.5000 
    105 CA        -7.4665  -21.2336  -53.6230 C.3       19 UNK         0.1400 
    106 CB        -7.3162  -22.4208  -52.6620 C.3       19 UNK        -0.1800 
    107 C         -6.6712  -21.4923  -54.9180 C.2       19 UNK         0.5000 
    108 O         -7.1033  -22.3042  -55.7367 O.2       19 UNK        -0.5000 
    109 N         -5.5159  -20.8244  -55.0571 N.am      20 UNK        -0.5000 
    110 CA        -4.4822  -21.0064  -56.0836 C.3       20 UNK         0.1400 
    111 CB        -5.0204  -20.6859  -57.4929 C.3       20 UNK        -0.1800 
    112 C         -3.7980  -22.3875  -55.9911 C.2       20 UNK         0.5000 
    113 O         -3.2908  -22.9017  -56.9896 O.2       20 UNK        -0.5000 
    114 N         -3.7799  -22.9564  -54.7786 N.am      21 UNK        -0.5000 
    115 CA        -3.2332  -24.2741  -54.4630 C.3       21 UNK         0.1400 
    116 CB        -3.7432  -24.6991  -53.0797 C.3       21 UNK        -0.1800 
    117 C         -1.6963  -24.3109  -54.5078 C.2       21 UNK         0.5000 
    118 O         -1.1227  -25.3711  -54.7600 O.2       21 UNK        -0.5000 
    119 N         -1.0623  -23.1542  -54.2806 N.am      22 UNK        -0.5000 
    120 CA         0.3884  -22.9541  -54.4017 C.3       22 UNK         0.1400 
    121 C          0.9050  -22.7935  -55.8648 C.2       22 UNK         0.5000 
    122 N          0.0500  -22.7687  -56.8819 N.am      22 UNK        -0.7600 
    123 O          2.1103  -22.7071  -56.0837 O.2       22 UNK        -0.5000 
    124 C124        0.8834  -21.8244  -53.4639 C.3       23 UNK        -0.0398 
    125 S125        0.1719  -20.1812  -53.8330 S.3       23 UNK        -0.2404 
    126 C126        1.5886  -19.0874  -53.4989 C.3       23 UNK        -0.0205 
    127 H127       -1.2536  -10.2501  -47.6238 H         1 UNK         0.0600 
    128 H128       -0.0935  -10.1124  -46.3024 H         1 UNK         0.0600 
    129 H129       -1.7281  -10.6977  -45.9835 H         1 UNK         0.0600 
    130 H130       -2.0128  -12.9285  -45.9663 H         1 UNK         0.3000 
    131 H131        0.1792  -14.7087  -46.5170 H         1 UNK         0.0600 
    132 H132       -0.8962  -14.3705  -48.8349 H         1 UNK         0.0800 
    133 H133       -2.3600  -15.0574  -48.2109 H         1 UNK         0.0800 
    134 H134        1.6345  -15.9435  -48.5852 H         1 UNK         0.0800 
    135 H135        0.7457  -15.5497  -50.0379 H         1 UNK         0.0800 
    136 H136        0.6943  -17.0514  -51.9199 H         1 UNK         0.1150 
    137 H137        2.9966  -20.6661  -51.7626 H         1 UNK         0.1150 
    138 H138        2.3925  -18.3511  -48.2112 H         1 UNK         0.1150 
    139 H139        3.7573  -20.3026  -48.0951 H         1 UNK         0.0800 
    140 H140        4.5431  -20.7831  -49.5771 H         1 UNK         0.0800 
    141 H141        0.6380  -21.1651  -48.7851 H         1 UNK         0.0800 
    142 H142        1.4601  -21.2862  -47.2486 H         1 UNK         0.0800 
    143 H143        0.1270  -23.6099  -48.7408 H         1 UNK         0.0600 
    144 H144        1.7752  -23.6613  -46.3551 H         1 UNK         0.3000 
    145 H145        0.7327  -26.8928  -45.2833 H         1 UNK         0.0600 
    146 H146        2.3857  -27.3743  -47.0967 H         1 UNK         0.0600 
    147 H147        3.1552  -27.3758  -45.5179 H         1 UNK         0.0600 
    148 H148        3.3562  -25.9943  -46.5967 H         1 UNK         0.0600 
    149 H149        2.7645  -25.1191  -44.3501 H         1 UNK         0.3000 
    150 H150        0.7329  -23.1318  -42.2088 H         1 UNK         0.0600 
    151 H151        2.7677  -25.3356  -41.5778 H         1 UNK         0.0600 
    152 H152        1.1271  -25.2556  -40.9468 H         1 UNK         0.0600 
    153 H153        2.2915  -24.0172  -40.5069 H         1 UNK         0.0600 
    154 H154        3.5110  -23.1091  -42.4944 H         1 UNK         0.3000 
    155 H155        4.4685  -21.2590  -43.3942 H         1 UNK         0.0600 
    156 H156        5.5966  -21.4985  -45.6202 H         1 UNK         0.0600 
    157 H157        4.1117  -22.1481  -46.3142 H         1 UNK         0.0600 
    158 H158        4.9683  -23.0417  -45.0666 H         1 UNK         0.0600 
    159 H159        3.6881  -19.7801  -45.7338 H         1 UNK         0.3000 
    160 H160        3.4328  -17.4369  -45.3536 H         1 UNK         0.0600 
    161 H161        0.4732  -18.0822  -44.7998 H         1 UNK         0.0600 
    162 H162        1.3715  -18.6799  -46.1793 H         1 UNK         0.0600 
    163 H163        1.0824  -16.9550  -46.0090 H         1 UNK         0.0600 
    164 H164        2.2783  -17.0663  -42.7275 H         1 UNK         0.3000 
    165 H165        1.7715  -14.8267  -41.9580 H         1 UNK         0.0600 
    166 H166        3.9260  -15.9233  -41.3214 H         1 UNK         0.0600 
    167 H167        4.8334  -14.6171  -42.0726 H         1 UNK         0.0600 
    168 H168        3.8361  -14.3044  -40.6521 H         1 UNK         0.0600 
    169 H169        3.5248  -12.6218  -42.5866 H         1 UNK         0.3000 
    170 H170        2.3819  -10.5482  -42.5759 H         1 UNK         0.0600 
    171 H171        2.0747  -11.0781  -45.5939 H         1 UNK         0.0600 
    172 H172        3.5823  -11.0381  -44.6943 H         1 UNK         0.0600 
    173 H173        2.6513   -9.5625  -44.9023 H         1 UNK         0.0600 
    174 H174       -0.2316  -10.9285  -43.7992 H         1 UNK         0.3000 
    175 H175       -1.5815   -8.4024  -41.8626 H         1 UNK         0.0600 
    176 H176       -1.1516   -6.9399  -43.8410 H         1 UNK         0.0600 
    177 H177       -1.5660   -8.2592  -44.9275 H         1 UNK         0.0600 
    178 H178       -2.7919   -7.5654  -43.8653 H         1 UNK         0.0600 
    179 H179       -2.7927  -10.0973  -43.7980 H         1 UNK         0.3000 
    180 H180       -3.7854  -12.4772  -41.5604 H         1 UNK         0.0600 
    181 H181       -3.6078  -11.8367  -44.5669 H         1 UNK         0.0600 
    182 H182       -4.7840  -11.1376  -43.4507 H         1 UNK         0.0600 
    183 H183       -4.8038  -12.8573  -43.7841 H         1 UNK         0.0600 
    184 H184       -1.3709  -13.1476  -43.0481 H         1 UNK         0.3000 
    185 H185       -0.7185  -15.5679  -42.3172 H         1 UNK         0.0600 
    186 H186       -2.3212  -17.4213  -41.9907 H         1 UNK         0.0600 
    187 H187       -2.8310  -17.3334  -43.6675 H         1 UNK         0.0600 
    188 H188       -1.1860  -17.8195  -43.2625 H         1 UNK         0.0600 
    189 H189       -0.0964  -14.8097  -44.2958 H         1 UNK         0.3000 
    190 H190       -0.0937  -22.2272  -45.4329 H         1 UNK         0.3000 
    191 H191       -2.5654  -20.9411  -45.7091 H         1 UNK         0.0600 
    192 H192       -0.9628  -20.5224  -43.8595 H         1 UNK         0.0600 
    193 H193       -2.5517  -20.9143  -43.2181 H         1 UNK         0.0600 
    194 H194       -1.2745  -22.1250  -43.1960 H         1 UNK         0.0600 
    195 H195       -1.9077  -24.3009  -44.5875 H         1 UNK         0.3000 
    196 H196       -4.5955  -25.0255  -44.0384 H         1 UNK         0.0600 
    197 H197       -3.6826  -27.3595  -44.1409 H         1 UNK         0.0600 
    198 H198       -2.6498  -26.2990  -43.1956 H         1 UNK         0.0600 
    199 H199       -2.1868  -26.7449  -44.8376 H         1 UNK         0.0600 
    200 H200       -2.8164  -24.9014  -47.0858 H         1 UNK         0.3000 
    201 H201       -4.8762  -26.3433  -48.6144 H         1 UNK         0.0600 
    202 H202       -3.3139  -26.0067  -50.4799 H         1 UNK         0.0600 
    203 H203       -2.4249  -26.6179  -49.0980 H         1 UNK         0.0600 
    204 H204       -2.3234  -24.9105  -49.5233 H         1 UNK         0.0600 
    205 H205       -4.6021  -23.2394  -47.3899 H         1 UNK         0.3000 
    206 H206       -5.4935  -21.2681  -47.6988 H         1 UNK         0.0600 
    207 H207       -7.6620  -22.3720  -47.9385 H         1 UNK         0.0600 
    208 H208       -7.6036  -20.9777  -49.0023 H         1 UNK         0.0600 
    209 H209       -7.4183  -22.5956  -49.6642 H         1 UNK         0.0600 
    210 H210       -3.2405  -22.1295  -49.2325 H         1 UNK         0.3000 
    211 H211       -1.8077  -21.4919  -50.8573 H         1 UNK         0.0600 
    212 H212       -0.9765  -19.2792  -50.1511 H         1 UNK         0.0600 
    213 H213       -1.5544  -20.1555  -48.7530 H         1 UNK         0.0600 
    214 H214       -2.5453  -18.8823  -49.4344 H         1 UNK         0.0600 
    215 H215       -2.2413  -18.3352  -51.4540 H         1 UNK         0.3000 
    216 H216       -2.6973  -18.7147  -54.2588 H         1 UNK         0.0600 
    217 H217       -1.0913  -17.0589  -53.4299 H         1 UNK         0.0600 
    218 H218       -2.3550  -16.1948  -52.5504 H         1 UNK         0.0600 
    219 H219       -2.3558  -16.2235  -54.3105 H         1 UNK         0.0600 
    220 H220       -4.9051  -18.1271  -51.6403 H         1 UNK         0.3000 
    221 H221       -6.9336  -16.7096  -53.1583 H         1 UNK         0.0600 
    222 H222       -7.1474  -18.2337  -50.5076 H         1 UNK         0.0600 
    223 H223       -6.7953  -16.5158  -50.6837 H         1 UNK         0.0600 
    224 H224       -8.3552  -17.1515  -51.1822 H         1 UNK         0.0600 
    225 H225       -6.3534  -20.1131  -52.1954 H         1 UNK         0.3000 
    226 H226       -8.5203  -21.1514  -53.8972 H         1 UNK         0.0600 
    227 H227       -8.0025  -22.3217  -51.8229 H         1 UNK         0.0600 
    228 H228       -7.5487  -23.3651  -53.1560 H         1 UNK         0.0600 
    229 H229       -6.3018  -22.4973  -52.2675 H         1 UNK         0.0600 
    230 H230       -5.2507  -20.2254  -54.2878 H         1 UNK         0.3000 
    231 H231       -3.7054  -20.2751  -55.8591 H         1 UNK         0.0600 
    232 H232       -5.7405  -21.4298  -57.8339 H         1 UNK         0.0600 
    233 H233       -4.2102  -20.6606  -58.2224 H         1 UNK         0.0600 
    234 H234       -5.5066  -19.7106  -57.5154 H         1 UNK         0.0600 
    235 H235       -4.1193  -22.4066  -53.9966 H         1 UNK         0.3000 
    236 H236       -3.6063  -24.9858  -55.2023 H         1 UNK         0.0600 
    237 H237       -3.4039  -24.0187  -52.2969 H         1 UNK         0.0600 
    238 H238       -4.8327  -24.7239  -53.0493 H         1 UNK         0.0600 
    239 H239       -3.3891  -25.6992  -52.8284 H         1 UNK         0.0600 
    240 H240       -1.6130  -22.3281  -54.0944 H         1 UNK         0.3000 
    241 H241        0.8656  -23.8682  -54.0432 H         1 UNK         0.0600 
    242 H242        0.4042  -22.6711  -57.8203 H         1 UNK         0.3800 
    243 H243       -0.9445  -22.8579  -56.7312 H         1 UNK         0.3800 
    244 H244        0.6412  -22.0710  -52.4291 H         1 UNK         0.0800 
    245 H245        1.9717  -21.7717  -53.5061 H         1 UNK         0.0800 
    246 H246        2.4893  -19.4861  -53.9681 H         1 UNK         0.0800 
    247 H247        1.4025  -18.1251  -53.9779 H         1 UNK         0.0800 
@<TRIPOS>BOND
     1    1    2 1    
     2    1  127 1    
     3    1  128 1    
     4    1  129 1    
     5    2    3 2    
     6    2    4 am   BACKBONE|DICT|INTERRES
     7    4    5 1    
     8    4  130 1    
     9    5    6 1    
    10    5   65 1    
    11    5  131 1    
    12    6    7 1    
    13    6  132 1    
    14    6  133 1    
    15    7    8 1    
    16    8    9 1    
    17    8  134 1    
    18    8  135 1    
    19    9   10 ar   
    20    9   14 ar   
    21   10   11 ar   
    22   10  136 1    
    23   11   12 ar   
    24   11  126 1    
    25   12   13 ar   
    26   12  137 1    
    27   13   14 ar   
    28   13   15 1    
    29   14  138 1    
    30   15   16 1    
    31   15  139 1    
    32   15  140 1    
    33   16   17 1    
    34   17   18 1    
    35   17  141 1    
    36   17  142 1    
    37   18   19 1    
    38   18   67 1    
    39   18  143 1    
    40   19   20 am   BACKBONE|DICT|INTERRES
    41   19  144 1    
    42   20   21 2    
    43   20   22 1    
    44   22   23 1    
    45   22   24 1    
    46   22  145 1    
    47   23  146 1    
    48   23  147 1    
    49   23  148 1    
    50   24   25 am   BACKBONE|DICT|INTERRES
    51   24  149 1    
    52   25   26 2    
    53   25   27 1    
    54   27   28 1    
    55   27   29 1    
    56   27  150 1    
    57   28  151 1    
    58   28  152 1    
    59   28  153 1    
    60   29   30 am   BACKBONE|DICT|INTERRES
    61   29  154 1    
    62   30   31 2    
    63   30   32 1    
    64   32   33 1    
    65   32   34 1    
    66   32  155 1    
    67   33  156 1    
    68   33  157 1    
    69   33  158 1    
    70   34   35 am   BACKBONE|DICT|INTERRES
    71   34  159 1    
    72   35   36 2    
    73   35   37 1    
    74   37   38 1    
    75   37   39 1    
    76   37  160 1    
    77   38  161 1    
    78   38  162 1    
    79   38  163 1    
    80   39   40 am   BACKBONE|DICT|INTERRES
    81   39  164 1    
    82   40   41 2    
    83   40   42 1    
    84   42   43 1    
    85   42   44 1    
    86   42  165 1    
    87   43  166 1    
    88   43  167 1    
    89   43  168 1    
    90   44   45 am   BACKBONE|DICT|INTERRES
    91   44  169 1    
    92   45   46 2    
    93   45   47 1    
    94   47   48 1    
    95   47   49 1    
    96   47  170 1    
    97   48  171 1    
    98   48  172 1    
    99   48  173 1    
   100   49   50 am   BACKBONE|DICT|INTERRES
   101   49  174 1    
   102   50   51 2    
   103   50   52 1    
   104   52   53 1    
   105   52   54 1    
   106   52  175 1    
   107   53  176 1    
   108   53  177 1    
   109   53  178 1    
   110   54   55 am   BACKBONE|DICT|INTERRES
   111   54  179 1    
   112   55   56 2    
   113   55   57 1    
   114   57   58 1    
   115   57   59 1    
   116   57  180 1    
   117   58  181 1    
   118   58  182 1    
   119   58  183 1    
   120   59   60 am   BACKBONE|DICT|INTERRES
   121   59  184 1    
   122   60   61 2    
   123   60   62 1    
   124   62   63 1    
   125   62   64 1    
   126   62  185 1    
   127   63  186 1    
   128   63  187 1    
   129   63  188 1    
   130   64   65 am   BACKBONE|DICT|INTERRES
   131   64  189 1    
   132   65   66 2    
   133   67   68 2    
   134   67   69 am   BACKBONE|DICT|INTERRES
   135   69   70 1    
   136   69  190 1    
   137   70   71 1    
   138   70   72 1    
   139   70  191 1    
   140   71  192 1    
   141   71  193 1    
   142   71  194 1    
   143   72   73 2    
   144   72   74 am   BACKBONE|DICT|INTERRES
   145   74   75 1    
   146   74  195 1    
   147   75   76 1    
   148   75   77 1    
   149   75  196 1    
   150   76  197 1    
   151   76  198 1    
   152   76  199 1    
   153   77   78 2    
   154   77   79 am   BACKBONE|DICT|INTERRES
   155   79   80 1    
   156   79  200 1    
   157   80   81 1    
   158   80   82 1    
   159   80  201 1    
   160   81  202 1    
   161   81  203 1    
   162   81  204 1    
   163   82   83 2    
   164   82   84 am   BACKBONE|DICT|INTERRES
   165   84   85 1    
   166   84  205 1    
   167   85   86 1    
   168   85   87 1    
   169   85  206 1    
   170   86  207 1    
   171   86  208 1    
   172   86  209 1    
   173   87   88 2    
   174   87   89 am   BACKBONE|DICT|INTERRES
   175   89   90 1    
   176   89  210 1    
   177   90   91 1    
   178   90   92 1    
   179   90  211 1    
   180   91  212 1    
   181   91  213 1    
   182   91  214 1    
   183   92   93 2    
   184   92   94 am   BACKBONE|DICT|INTERRES
   185   94   95 1    
   186   94  215 1    
   187   95   96 1    
   188   95   97 1    
   189   95  216 1    
   190   96  217 1    
   191   96  218 1    
   192   96  219 1    
   193   97   98 2    
   194   97   99 am   BACKBONE|DICT|INTERRES
   195   99  100 1    
   196   99  220 1    
   197  100  101 1    
   198  100  102 1    
   199  100  221 1    
   200  101  222 1    
   201  101  223 1    
   202  101  224 1    
   203  102  103 2    
   204  102  104 am   BACKBONE|DICT|INTERRES
   205  104  105 1    
   206  104  225 1    
   207  105  106 1    
   208  105  107 1    
   209  105  226 1    
   210  106  227 1    
   211  106  228 1    
   212  106  229 1    
   213  107  108 2    
   214  107  109 am   BACKBONE|DICT|INTERRES
   215  109  110 1    
   216  109  230 1    
   217  110  111 1    
   218  110  112 1    
   219  110  231 1    
   220  111  232 1    
   221  111  233 1    
   222  111  234 1    
   223  112  113 2    
   224  112  114 am   BACKBONE|DICT|INTERRES
   225  114  115 1    
   226  114  235 1    
   227  115  116 1    
   228  115  117 1    
   229  115  236 1    
   230  116  237 1    
   231  116  238 1    
   232  116  239 1    
   233  117  118 2    
   234  117  119 am   BACKBONE|DICT|INTERRES
   235  119  120 1    
   236  119  240 1    
   237  120  121 1    
   238  120  124 1    
   239  120  241 1    
   240  121  122 am   BACKBONE|DICT|INTERRES
   241  121  123 2    
   242  122  242 1    
   243  122  243 1    
   244  124  125 1    
   245  124  244 1    
   246  124  245 1    
   247  125  126 1    
   248  126  246 1    
   249  126  247 1    
@<TRIPOS>SUBSTRUCTURE
     1 UNK         1 GROUP             0       ****    0 ROOT    
