@<TRIPOS>MOLECULE
3R540
247   249    1
SMALL
USER_CHARGES


@<TRIPOS>ATOM
      1 CA          2.8337   -9.8243  -49.4898 C.3       0 UNK        -0.1800 
      2 C           2.3566  -11.1034  -48.8049 C.2       0 UNK         0.5000 
      3 O           1.1524  -11.3411  -48.7446 O.2       0 UNK        -0.5000 
      4 N           3.2459  -11.9599  -48.2827 N.am      1 UNK        -0.5000 
      5 CA          4.7107  -11.8184  -48.2455 C.3       1 UNK         0.1400 
      6 C6          5.4120  -13.1526  -47.8842 C.3       23 UNK        -0.0398 
      7 S7          4.9885  -14.5094  -49.0267 S.3       23 UNK        -0.2404 
      8 C8          3.8922  -15.5128  -47.9774 C.3       23 UNK        -0.0205 
      9 C9          3.2409  -16.6213  -48.7844 C.ar      23 UNK        -0.0193 
     10 C10         2.0765  -16.3635  -49.5135 C.ar      23 UNK        -0.1150 
     11 C11         1.4661  -17.3762  -50.2586 C.ar      23 UNK        -0.0193 
     12 C12         2.0469  -18.6468  -50.2909 C.ar      23 UNK        -0.1150 
     13 C13         3.1970  -18.9228  -49.5464 C.ar      23 UNK        -0.0193 
     14 C14         3.7936  -17.9045  -48.7982 C.ar      23 UNK        -0.1150 
     15 C15         3.7809  -20.3265  -49.5338 C.3       23 UNK        -0.0205 
     16 S16         3.1455  -21.3013  -48.1331 S.3       23 UNK        -0.2404 
     17 C17         1.3835  -21.4496  -48.5800 C.3       23 UNK        -0.0398 
     18 CA          0.6533  -22.5143  -47.7334 C.3       11 UNK         0.1400 
     19 N           0.5007  -22.1157  -46.3301 N.am      11 UNK        -0.5000 
     20 C           0.0670  -22.9325  -45.3599 C.2       10 UNK         0.5000 
     21 O          -0.2053  -24.1192  -45.5388 O.2       10 UNK        -0.5000 
     22 CA         -0.1478  -22.3169  -43.9667 C.3       10 UNK         0.1400 
     23 CB          1.1844  -22.1876  -43.2137 C.3       10 UNK        -0.1800 
     24 N          -0.8222  -21.0196  -44.0209 N.am      10 UNK        -0.5000 
     25 C          -2.0696  -20.8312  -44.4766 C.2       9 UNK         0.5000 
     26 O          -2.8003  -21.7433  -44.8601 O.2       9 UNK        -0.5000 
     27 CA         -2.5733  -19.3788  -44.5670 C.3       9 UNK         0.1400 
     28 CB         -3.0576  -18.8813  -43.1981 C.3       9 UNK        -0.1800 
     29 N          -1.5668  -18.4611  -45.1010 N.am      9 UNK        -0.5000 
     30 C          -1.0214  -18.5629  -46.3222 C.2       8 UNK         0.5000 
     31 O          -1.3301  -19.4291  -47.1394 O.2       8 UNK        -0.5000 
     32 CA          0.0990  -17.5658  -46.6593 C.3       8 UNK         0.1400 
     33 CB         -0.4789  -16.2024  -47.0701 C.3       8 UNK        -0.1800 
     34 N           1.0238  -17.3895  -45.5403 N.am      8 UNK        -0.5000 
     35 C           1.8310  -18.3509  -45.0705 C.2       7 UNK         0.5000 
     36 O           1.8991  -19.4838  -45.5459 O.2       7 UNK        -0.5000 
     37 CA          2.6544  -17.9970  -43.8194 C.3       7 UNK         0.1400 
     38 CB          3.8473  -17.1012  -44.1881 C.3       7 UNK        -0.1800 
     39 N           1.8420  -17.3390  -42.7936 N.am      7 UNK        -0.5000 
     40 C           0.8320  -17.9341  -42.1380 C.2       6 UNK         0.5000 
     41 O           0.5236  -19.1141  -42.2938 O.2       6 UNK        -0.5000 
     42 CA         -0.0067  -17.0675  -41.1769 C.3       6 UNK         0.1400 
     43 CB          0.5633  -17.1440  -39.7529 C.3       6 UNK        -0.1800 
     44 N          -0.0968  -15.6652  -41.5793 N.am      6 UNK        -0.5000 
     45 C          -0.5573  -15.2129  -42.7541 C.2       5 UNK         0.5000 
     46 O          -1.0685  -15.9376  -43.6088 O.2       5 UNK        -0.5000 
     47 CA         -0.3651  -13.7101  -43.0456 C.3       5 UNK         0.1400 
     48 CB         -1.6983  -12.9609  -42.9076 C.3       5 UNK        -0.1800 
     49 N           0.6398  -13.0514  -42.2012 N.am      5 UNK        -0.5000 
     50 C           1.9413  -13.3620  -42.1276 C.2       4 UNK         0.5000 
     51 O           2.4562  -14.2767  -42.7746 O.2       4 UNK        -0.5000 
     52 CA          2.7886  -12.5158  -41.1523 C.3       4 UNK         0.1400 
     53 CB          4.2135  -13.0718  -40.9794 C.3       4 UNK        -0.1800 
     54 N           2.8818  -11.1211  -41.5812 N.am      4 UNK        -0.5000 
     55 C           1.9093  -10.1999  -41.5204 C.2       3 UNK         0.5000 
     56 O           0.8105  -10.4064  -41.0025 O.2       3 UNK        -0.5000 
     57 CA          2.2037   -8.8261  -42.1633 C.3       3 UNK         0.1400 
     58 CB          2.5265   -7.7848  -41.0807 C.3       3 UNK        -0.1800 
     59 N           3.3018   -8.8570  -43.1375 N.am      3 UNK        -0.5000 
     60 C           3.2681   -9.5192  -44.3017 C.2       2 UNK         0.5000 
     61 O           2.2661  -10.1086  -44.7186 O.2       2 UNK        -0.5000 
     62 CA          4.5790   -9.5752  -45.1065 C.3       2 UNK         0.1400 
     63 CB          5.7660  -10.0403  -44.2330 C.3       2 UNK        -0.1800 
     64 N           4.3711  -10.5050  -46.2094 N.am      2 UNK        -0.5000 
     65 C           5.1673  -10.7215  -47.2604 C.2       1 UNK         0.5000 
     66 O           6.2122  -10.1057  -47.4721 O.2       1 UNK        -0.5000 
     67 C          -0.6979  -22.8900  -48.3749 C.2       11 UNK         0.5000 
     68 O          -0.7757  -23.9166  -49.0492 O.2       11 UNK        -0.5000 
     69 N          -1.7442  -22.0891  -48.1282 N.am      12 UNK        -0.5000 
     70 CA         -3.1060  -22.3529  -48.5959 C.3       12 UNK         0.1400 
     71 CB         -3.9946  -21.1313  -48.3250 C.3       12 UNK        -0.1800 
     72 C          -3.7129  -23.6295  -47.9835 C.2       12 UNK         0.5000 
     73 O          -4.3739  -24.3863  -48.6959 O.2       12 UNK        -0.5000 
     74 N          -3.4470  -23.8708  -46.6920 N.am      13 UNK        -0.5000 
     75 CA         -3.8285  -25.0900  -45.9799 C.3       13 UNK         0.1400 
     76 CB         -3.5897  -24.9141  -44.4729 C.3       13 UNK        -0.1800 
     77 C          -3.0955  -26.3339  -46.5118 C.2       13 UNK         0.5000 
     78 O          -3.7374  -27.3614  -46.7278 O.2       13 UNK        -0.5000 
     79 N          -1.7829  -26.2120  -46.7600 N.am      14 UNK        -0.5000 
     80 CA         -0.9431  -27.2593  -47.3501 C.3       14 UNK         0.1400 
     81 CB          0.5313  -26.8330  -47.2919 C.3       14 UNK        -0.1800 
     82 C          -1.3511  -27.6164  -48.7925 C.2       14 UNK         0.5000 
     83 O          -1.3126  -28.7901  -49.1632 O.2       14 UNK        -0.5000 
     84 N          -1.7752  -26.6059  -49.5633 N.am      15 UNK        -0.5000 
     85 CA         -2.3473  -26.7507  -50.9035 C.3       15 UNK         0.1400 
     86 CB         -2.3338  -25.3780  -51.5970 C.3       15 UNK        -0.1800 
     87 C          -3.7766  -27.3338  -50.9043 C.2       15 UNK         0.5000 
     88 O          -4.2600  -27.7208  -51.9682 O.2       15 UNK        -0.5000 
     89 N          -4.4276  -27.3700  -49.7306 N.am      16 UNK        -0.5000 
     90 CA         -5.8209  -27.7564  -49.4895 C.3       16 UNK         0.1400 
     91 CB         -6.0391  -29.2558  -49.7801 C.3       16 UNK        -0.1800 
     92 C          -6.8034  -26.8348  -50.2392 C.2       16 UNK         0.5000 
     93 O          -7.7153  -27.3120  -50.9174 O.2       16 UNK        -0.5000 
     94 N          -6.5546  -25.5209  -50.1383 N.am      17 UNK        -0.5000 
     95 CA         -7.2302  -24.3906  -50.7874 C.3       17 UNK         0.1400 
     96 CB         -8.7306  -24.3416  -50.4441 C.3       17 UNK        -0.1800 
     97 C          -6.9994  -24.2970  -52.3080 C.2       17 UNK         0.5000 
     98 O          -6.8305  -23.1863  -52.8101 O.2       17 UNK        -0.5000 
     99 N          -6.9718  -25.4417  -53.0047 N.am      18 UNK        -0.5000 
    100 CA        -6.7048  -25.6171  -54.4358 C.3       18 UNK         0.1400 
    101 CB        -5.1971  -25.4185  -54.7107 C.3       18 UNK        -0.1800 
    102 C         -7.6185  -24.7417  -55.3241 C.2       18 UNK         0.5000 
    103 O         -8.8068  -24.5992  -55.0261 O.2       18 UNK        -0.5000 
    104 N         -7.0536  -24.1453  -56.3805 N.am      19 UNK        -0.5000 
    105 CA        -7.7029  -23.1671  -57.2521 C.3       19 UNK         0.1400 
    106 CB        -7.1190  -23.3065  -58.6701 C.3       19 UNK        -0.1800 
    107 C         -7.5457  -21.7442  -56.6748 C.2       19 UNK         0.5000 
    108 O         -7.0115  -20.8610  -57.3478 O.2       19 UNK        -0.5000 
    109 N         -7.9962  -21.5658  -55.4241 N.am      20 UNK        -0.5000 
    110 CA        -7.9210  -20.3495  -54.6085 C.3       20 UNK         0.1400 
    111 CB        -8.7950  -19.2278  -55.2084 C.3       20 UNK        -0.1800 
    112 C         -6.4657  -19.9112  -54.3446 C.2       20 UNK         0.5000 
    113 O         -6.0632  -18.8079  -54.7242 O.2       20 UNK        -0.5000 
    114 N         -5.6996  -20.8007  -53.6975 N.am      21 UNK        -0.5000 
    115 CA        -4.3214  -20.5851  -53.2544 C.3       21 UNK         0.1400 
    116 CB        -3.8217  -21.8349  -52.5110 C.3       21 UNK        -0.1800 
    117 C         -4.1972  -19.3350  -52.3633 C.2       21 UNK         0.5000 
    118 O         -4.9126  -19.2240  -51.3653 O.2       21 UNK        -0.5000 
    119 N         -3.3190  -18.4141  -52.7755 N.am      22 UNK        -0.5000 
    120 CA        -3.1098  -17.0802  -52.1841 C.3       22 UNK         0.1400 
    121 C         -4.2854  -16.0764  -52.4027 C.2       22 UNK         0.5000 
    122 N         -5.2772  -16.3671  -53.2371 N.am      22 UNK        -0.7600 
    123 O         -4.2841  -14.9888  -51.8321 O.2       22 UNK        -0.5000 
    124 C124       -2.6376  -17.1135  -50.7017 C.3       23 UNK        -0.0398 
    125 S125       -1.1796  -18.1718  -50.4154 S.3       23 UNK        -0.2404 
    126 C126        0.1718  -17.1030  -51.0099 C.3       23 UNK        -0.0205 
    127 H127        2.0090   -9.3482  -50.0205 H         1 UNK         0.0600 
    128 H128        3.6157  -10.0301  -50.2200 H         1 UNK         0.0600 
    129 H129        3.2115   -9.1116  -48.7571 H         1 UNK         0.0600 
    130 H130        2.8916  -12.8051  -47.8625 H         1 UNK         0.3000 
    131 H131        5.0524  -11.5282  -49.2405 H         1 UNK         0.0600 
    132 H132        6.4962  -13.0287  -47.9185 H         1 UNK         0.0800 
    133 H133        5.1776  -13.4517  -46.8606 H         1 UNK         0.0800 
    134 H134        3.1201  -14.8846  -47.5317 H         1 UNK         0.0800 
    135 H135        4.4658  -15.9323  -47.1494 H         1 UNK         0.0800 
    136 H136        1.6430  -15.3734  -49.4922 H         1 UNK         0.1150 
    137 H137        1.5776  -19.4315  -50.8672 H         1 UNK         0.1150 
    138 H138        4.6843  -18.1136  -48.2226 H         1 UNK         0.1150 
    139 H139        3.5625  -20.8415  -50.4706 H         1 UNK         0.0800 
    140 H140        4.8682  -20.2725  -49.4625 H         1 UNK         0.0800 
    141 H141        1.3312  -21.7009  -49.6412 H         1 UNK         0.0800 
    142 H142        0.9016  -20.4772  -48.4651 H         1 UNK         0.0800 
    143 H143        1.2621  -23.4211  -47.7448 H         1 UNK         0.0600 
    144 H144        0.7471  -21.1589  -46.0987 H         1 UNK         0.3000 
    145 H145       -0.7875  -22.9977  -43.4014 H         1 UNK         0.0600 
    146 H146        1.0254  -21.8531  -42.1885 H         1 UNK         0.0600 
    147 H147        1.7010  -23.1469  -43.1657 H         1 UNK         0.0600 
    148 H148        1.8548  -21.4767  -43.6970 H         1 UNK         0.0600 
    149 H149       -0.2977  -20.2229  -43.6720 H         1 UNK         0.3000 
    150 H150       -3.4231  -19.3635  -45.2524 H         1 UNK         0.0600 
    151 H151       -3.8880  -19.4892  -42.8371 H         1 UNK         0.0600 
    152 H152       -3.4056  -17.8494  -43.2497 H         1 UNK         0.0600 
    153 H153       -2.2675  -18.9342  -42.4504 H         1 UNK         0.0600 
    154 H154       -1.2777  -17.6928  -44.5030 H         1 UNK         0.3000 
    155 H155        0.6626  -17.9713  -47.5016 H         1 UNK         0.0600 
    156 H156       -1.0845  -15.7609  -46.2787 H         1 UNK         0.0600 
    157 H157       -1.1146  -16.3013  -47.9502 H         1 UNK         0.0600 
    158 H158        0.3121  -15.4952  -47.3182 H         1 UNK         0.0600 
    159 H159        0.9804  -16.5095  -45.0484 H         1 UNK         0.3000 
    160 H160        3.0429  -18.9275  -43.3999 H         1 UNK         0.0600 
    161 H161        3.5234  -16.1429  -44.5958 H         1 UNK         0.0600 
    162 H162        4.4779  -17.5811  -44.9377 H         1 UNK         0.0600 
    163 H163        4.4715  -16.8987  -43.3176 H         1 UNK         0.0600 
    164 H164        2.0241  -16.3545  -42.6318 H         1 UNK         0.3000 
    165 H165       -1.0203  -17.4698  -41.1607 H         1 UNK         0.0600 
    166 H166       -0.0668  -16.6047  -39.0453 H         1 UNK         0.0600 
    167 H167        0.6214  -18.1784  -39.4111 H         1 UNK         0.0600 
    168 H168        1.5681  -16.7230  -39.6985 H         1 UNK         0.0600 
    169 H169        0.2972  -14.9894  -40.9426 H         1 UNK         0.3000 
    170 H170       -0.0298  -13.6258  -44.0812 H         1 UNK         0.0600 
    171 H171       -2.4639  -13.4020  -43.5475 H         1 UNK         0.0600 
    172 H172       -2.0698  -12.9884  -41.8825 H         1 UNK         0.0600 
    173 H173       -1.5950  -11.9156  -43.1998 H         1 UNK         0.0600 
    174 H174        0.3257  -12.2485  -41.6653 H         1 UNK         0.3000 
    175 H175        2.2971  -12.5493  -40.1778 H         1 UNK         0.0600 
    176 H176        4.7722  -13.0498  -41.9160 H         1 UNK         0.0600 
    177 H177        4.7739  -12.4978  -40.2412 H         1 UNK         0.0600 
    178 H178        4.1905  -14.1065  -40.6346 H         1 UNK         0.0600 
    179 H179        3.7417  -10.8573  -42.0368 H         1 UNK         0.3000 
    180 H180        1.2972   -8.5099  -42.6837 H         1 UNK         0.0600 
    181 H181        3.4355   -8.0403  -40.5346 H         1 UNK         0.0600 
    182 H182        1.7164   -7.7124  -40.3538 H         1 UNK         0.0600 
    183 H183        2.6610   -6.7935  -41.5139 H         1 UNK         0.0600 
    184 H184        4.1535   -8.3871  -42.8656 H         1 UNK         0.3000 
    185 H185        4.7778   -8.5806  -45.5097 H         1 UNK         0.0600 
    186 H186        5.5803  -11.0220  -43.7951 H         1 UNK         0.0600 
    187 H187        6.6880  -10.1059  -44.8101 H         1 UNK         0.0600 
    188 H188        5.9617   -9.3448  -43.4166 H         1 UNK         0.0600 
    189 H189        3.4879  -10.9993  -46.1482 H         1 UNK         0.3000 
    190 H190       -1.5992  -21.2283  -47.6046 H         1 UNK         0.3000 
    191 H191       -3.0580  -22.5006  -49.6757 H         1 UNK         0.0600 
    192 H192       -4.0631  -20.9111  -47.2594 H         1 UNK         0.0600 
    193 H193       -5.0071  -21.2943  -48.6965 H         1 UNK         0.0600 
    194 H194       -3.6051  -20.2442  -48.8259 H         1 UNK         0.0600 
    195 H195       -2.9558  -23.1638  -46.1517 H         1 UNK         0.3000 
    196 H196       -4.8984  -25.2447  -46.1344 H         1 UNK         0.0600 
    197 H197       -3.8813  -25.8101  -43.9238 H         1 UNK         0.0600 
    198 H198       -4.1755  -24.0848  -44.0764 H         1 UNK         0.0600 
    199 H199       -2.5409  -24.7184  -44.2496 H         1 UNK         0.0600 
    200 H200       -1.3140  -25.3464  -46.5052 H         1 UNK         0.3000 
    201 H201       -1.0597  -28.1590  -46.7425 H         1 UNK         0.0600 
    202 H202        0.8500  -26.6561  -46.2645 H         1 UNK         0.0600 
    203 H203        0.7090  -25.9191  -47.8590 H         1 UNK         0.0600 
    204 H204        1.1790  -27.6074  -47.7046 H         1 UNK         0.0600 
    205 H205       -1.6915  -25.6577  -49.2082 H         1 UNK         0.3000 
    206 H206       -1.7142  -27.4307  -51.4769 H         1 UNK         0.0600 
    207 H207       -1.3256  -24.9656  -51.6383 H         1 UNK         0.0600 
    208 H208       -2.6947  -25.4517  -52.6230 H         1 UNK         0.0600 
    209 H209       -2.9683  -24.6592  -51.0779 H         1 UNK         0.0600 
    210 H210       -3.9330  -27.0333  -48.9144 H         1 UNK         0.3000 
    211 H211       -6.0041  -27.5977  -48.4260 H         1 UNK         0.0600 
    212 H212       -5.9231  -29.4883  -50.8389 H         1 UNK         0.0600 
    213 H213       -7.0424  -29.5664  -49.4864 H         1 UNK         0.0600 
    214 H214       -5.3326  -29.8704  -49.2222 H         1 UNK         0.0600 
    215 H215       -5.7406  -25.2466  -49.5898 H         1 UNK         0.3000 
    216 H216       -6.7706  -23.5004  -50.3543 H         1 UNK         0.0600 
    217 H217       -9.1844  -23.4274  -50.8284 H         1 UNK         0.0600 
    218 H218       -8.8892  -24.3553  -49.3658 H         1 UNK         0.0600 
    219 H219       -9.2779  -25.1795  -50.8764 H         1 UNK         0.0600 
    220 H220       -7.1800  -26.2895  -52.4863 H         1 UNK         0.3000 
    221 H221       -6.9538  -26.6531  -54.6686 H         1 UNK         0.0600 
    222 H222       -4.8872  -24.3853  -54.5519 H         1 UNK         0.0600 
    223 H223       -4.5975  -26.0468  -54.0536 H         1 UNK         0.0600 
    224 H224       -4.9354  -25.6970  -55.7320 H         1 UNK         0.0600 
    225 H225       -6.0656  -24.2863  -56.5338 H         1 UNK         0.3000 
    226 H226       -8.7727  -23.3781  -57.3127 H         1 UNK         0.0600 
    227 H227       -7.2719  -24.3126  -59.0611 H         1 UNK         0.0600 
    228 H228       -7.6014  -22.6147  -59.3617 H         1 UNK         0.0600 
    229 H229       -6.0483  -23.0991  -58.6887 H         1 UNK         0.0600 
    230 H230       -8.3722  -22.3798  -54.9526 H         1 UNK         0.3000 
    231 H231       -8.3446  -20.6064  -53.6363 H         1 UNK         0.0600 
    232 H232       -9.8253  -19.5585  -55.3387 H         1 UNK         0.0600 
    233 H233       -8.4248  -18.8940  -56.1781 H         1 UNK         0.0600 
    234 H234       -8.8139  -18.3578  -54.5510 H         1 UNK         0.0600 
    235 H235       -6.1258  -21.6805  -53.4078 H         1 UNK         0.3000 
    236 H236       -3.7084  -20.4508  -54.1477 H         1 UNK         0.0600 
    237 H237       -2.7998  -21.6977  -52.1550 H         1 UNK         0.0600 
    238 H238       -4.4455  -22.0601  -51.6450 H         1 UNK         0.0600 
    239 H239       -3.8250  -22.7099  -53.1601 H         1 UNK         0.0600 
    240 H240       -2.7934  -18.5935  -53.6187 H         1 UNK         0.3000 
    241 H241       -2.2907  -16.6504  -52.7611 H         1 UNK         0.0600 
    242 H242       -6.0150  -15.6944  -53.3716 H         1 UNK         0.3800 
    243 H243       -5.3245  -17.2569  -53.7237 H         1 UNK         0.3800 
    244 H244       -2.4039  -16.1085  -50.3470 H         1 UNK         0.0800 
    245 H245       -3.4405  -17.4711  -50.0559 H         1 UNK         0.0800 
    246 H246       -0.1107  -16.0548  -50.9030 H         1 UNK         0.0800 
    247 H247        0.3256  -17.2762  -52.0757 H         1 UNK         0.0800 
@<TRIPOS>BOND
     1    1    2 1    
     2    1  127 1    
     3    1  128 1    
     4    1  129 1    
     5    2    3 2    
     6    2    4 am   BACKBONE|DICT|INTERRES
     7    4    5 1    
     8    4  130 1    
     9    5    6 1    
    10    5   65 1    
    11    5  131 1    
    12    6    7 1    
    13    6  132 1    
    14    6  133 1    
    15    7    8 1    
    16    8    9 1    
    17    8  134 1    
    18    8  135 1    
    19    9   10 ar   
    20    9   14 ar   
    21   10   11 ar   
    22   10  136 1    
    23   11   12 ar   
    24   11  126 1    
    25   12   13 ar   
    26   12  137 1    
    27   13   14 ar   
    28   13   15 1    
    29   14  138 1    
    30   15   16 1    
    31   15  139 1    
    32   15  140 1    
    33   16   17 1    
    34   17   18 1    
    35   17  141 1    
    36   17  142 1    
    37   18   19 1    
    38   18   67 1    
    39   18  143 1    
    40   19   20 am   BACKBONE|DICT|INTERRES
    41   19  144 1    
    42   20   21 2    
    43   20   22 1    
    44   22   23 1    
    45   22   24 1    
    46   22  145 1    
    47   23  146 1    
    48   23  147 1    
    49   23  148 1    
    50   24   25 am   BACKBONE|DICT|INTERRES
    51   24  149 1    
    52   25   26 2    
    53   25   27 1    
    54   27   28 1    
    55   27   29 1    
    56   27  150 1    
    57   28  151 1    
    58   28  152 1    
    59   28  153 1    
    60   29   30 am   BACKBONE|DICT|INTERRES
    61   29  154 1    
    62   30   31 2    
    63   30   32 1    
    64   32   33 1    
    65   32   34 1    
    66   32  155 1    
    67   33  156 1    
    68   33  157 1    
    69   33  158 1    
    70   34   35 am   BACKBONE|DICT|INTERRES
    71   34  159 1    
    72   35   36 2    
    73   35   37 1    
    74   37   38 1    
    75   37   39 1    
    76   37  160 1    
    77   38  161 1    
    78   38  162 1    
    79   38  163 1    
    80   39   40 am   BACKBONE|DICT|INTERRES
    81   39  164 1    
    82   40   41 2    
    83   40   42 1    
    84   42   43 1    
    85   42   44 1    
    86   42  165 1    
    87   43  166 1    
    88   43  167 1    
    89   43  168 1    
    90   44   45 am   BACKBONE|DICT|INTERRES
    91   44  169 1    
    92   45   46 2    
    93   45   47 1    
    94   47   48 1    
    95   47   49 1    
    96   47  170 1    
    97   48  171 1    
    98   48  172 1    
    99   48  173 1    
   100   49   50 am   BACKBONE|DICT|INTERRES
   101   49  174 1    
   102   50   51 2    
   103   50   52 1    
   104   52   53 1    
   105   52   54 1    
   106   52  175 1    
   107   53  176 1    
   108   53  177 1    
   109   53  178 1    
   110   54   55 am   BACKBONE|DICT|INTERRES
   111   54  179 1    
   112   55   56 2    
   113   55   57 1    
   114   57   58 1    
   115   57   59 1    
   116   57  180 1    
   117   58  181 1    
   118   58  182 1    
   119   58  183 1    
   120   59   60 am   BACKBONE|DICT|INTERRES
   121   59  184 1    
   122   60   61 2    
   123   60   62 1    
   124   62   63 1    
   125   62   64 1    
   126   62  185 1    
   127   63  186 1    
   128   63  187 1    
   129   63  188 1    
   130   64   65 am   BACKBONE|DICT|INTERRES
   131   64  189 1    
   132   65   66 2    
   133   67   68 2    
   134   67   69 am   BACKBONE|DICT|INTERRES
   135   69   70 1    
   136   69  190 1    
   137   70   71 1    
   138   70   72 1    
   139   70  191 1    
   140   71  192 1    
   141   71  193 1    
   142   71  194 1    
   143   72   73 2    
   144   72   74 am   BACKBONE|DICT|INTERRES
   145   74   75 1    
   146   74  195 1    
   147   75   76 1    
   148   75   77 1    
   149   75  196 1    
   150   76  197 1    
   151   76  198 1    
   152   76  199 1    
   153   77   78 2    
   154   77   79 am   BACKBONE|DICT|INTERRES
   155   79   80 1    
   156   79  200 1    
   157   80   81 1    
   158   80   82 1    
   159   80  201 1    
   160   81  202 1    
   161   81  203 1    
   162   81  204 1    
   163   82   83 2    
   164   82   84 am   BACKBONE|DICT|INTERRES
   165   84   85 1    
   166   84  205 1    
   167   85   86 1    
   168   85   87 1    
   169   85  206 1    
   170   86  207 1    
   171   86  208 1    
   172   86  209 1    
   173   87   88 2    
   174   87   89 am   BACKBONE|DICT|INTERRES
   175   89   90 1    
   176   89  210 1    
   177   90   91 1    
   178   90   92 1    
   179   90  211 1    
   180   91  212 1    
   181   91  213 1    
   182   91  214 1    
   183   92   93 2    
   184   92   94 am   BACKBONE|DICT|INTERRES
   185   94   95 1    
   186   94  215 1    
   187   95   96 1    
   188   95   97 1    
   189   95  216 1    
   190   96  217 1    
   191   96  218 1    
   192   96  219 1    
   193   97   98 2    
   194   97   99 am   BACKBONE|DICT|INTERRES
   195   99  100 1    
   196   99  220 1    
   197  100  101 1    
   198  100  102 1    
   199  100  221 1    
   200  101  222 1    
   201  101  223 1    
   202  101  224 1    
   203  102  103 2    
   204  102  104 am   BACKBONE|DICT|INTERRES
   205  104  105 1    
   206  104  225 1    
   207  105  106 1    
   208  105  107 1    
   209  105  226 1    
   210  106  227 1    
   211  106  228 1    
   212  106  229 1    
   213  107  108 2    
   214  107  109 am   BACKBONE|DICT|INTERRES
   215  109  110 1    
   216  109  230 1    
   217  110  111 1    
   218  110  112 1    
   219  110  231 1    
   220  111  232 1    
   221  111  233 1    
   222  111  234 1    
   223  112  113 2    
   224  112  114 am   BACKBONE|DICT|INTERRES
   225  114  115 1    
   226  114  235 1    
   227  115  116 1    
   228  115  117 1    
   229  115  236 1    
   230  116  237 1    
   231  116  238 1    
   232  116  239 1    
   233  117  118 2    
   234  117  119 am   BACKBONE|DICT|INTERRES
   235  119  120 1    
   236  119  240 1    
   237  120  121 1    
   238  120  124 1    
   239  120  241 1    
   240  121  122 am   BACKBONE|DICT|INTERRES
   241  121  123 2    
   242  122  242 1    
   243  122  243 1    
   244  124  125 1    
   245  124  244 1    
   246  124  245 1    
   247  125  126 1    
   248  126  246 1    
   249  126  247 1    
@<TRIPOS>SUBSTRUCTURE
     1 UNK         1 GROUP             0       ****    0 ROOT    
